98 
6eqv_ligand_dft.xyz
 C   -4.716040   -0.146296   -2.153970
 C   -5.071510   -1.252597   -2.928683
 C   -6.267907   -1.921587   -2.689732
 C   -7.118276   -1.501201   -1.668760
 C   -6.774064   -0.395925   -0.896767
 C   -5.582497    0.278083   -1.147502
 C   -3.345141    0.480346   -2.302221
 C   -2.358802   -0.428363   -1.575871
 O   -1.717788   -1.290935   -2.172226
 C   -0.195308   -0.888942    0.726416
 O    0.325665   -0.249321    1.643128
 C   -1.703752   -1.174188    0.720582
 N   -2.348468   -0.274334   -0.232367
 C   -2.056509   -2.663347    0.528380
 C   -3.533740   -2.987763    0.263769
 C   -4.525213   -2.720586    1.393689
 N   -4.608905   -1.303149    1.693226
 C   -5.510322   -0.843146    2.618773
 O   -6.203419   -1.569155    3.310029
 N   -5.542708    0.556265    2.690397
 N    0.481978   -1.342243   -0.348424
 C    1.913642   -1.149847   -0.521032
 C    2.166231    0.249403   -1.113724
 O    2.578295    0.432915   -2.257489
 C    2.532814   -2.265461   -1.374510
 C    2.058953   -3.646601   -0.913389
 C    4.060425   -2.187983   -1.314390
 N    1.872122    1.263378   -0.268157
 C    1.963183    2.664765   -0.657284
 C    3.422096    3.124161   -0.457354
 O    3.754373    3.848313    0.470016
 C    1.009692    3.517494    0.168427
 C   -0.468720    3.230129   -0.093208
 C   -1.335612    4.106860    0.812269
 N   -2.767781    3.999853    0.564178
 C   -3.518242    2.966656    1.069127
 N   -3.074249    1.892048    1.640764
 N   -4.878210    3.146801    0.933361
 N    4.285708    2.595223   -1.363832
 C    5.709741    2.527260   -1.080383
 C    6.071881    1.230303   -0.383034
 C    6.961426    0.321086   -0.951829
 C    7.238245   -0.889936   -0.324549
 C    6.628814   -1.213270    0.886685
 C    6.872705   -2.545944    1.516548
 N    6.935694   -2.531139    2.897182
 N    6.964667   -3.660286    0.892039
 C    5.750304   -0.294216    1.470426
 C    5.472627    0.910001    0.840239
 H   -4.390633   -1.604983   -3.698568
 H   -6.531553   -2.783971   -3.294846
 H   -8.044027   -2.033866   -1.474857
 H   -7.418589   -0.066845   -0.087304
 H   -5.306640    1.132289   -0.534961
 H   -3.036943    0.538725   -3.348061
 H   -3.330193    1.488800   -1.872368
 H   -2.062086   -0.849693    1.698527
 H   -2.802674    0.535122    0.191026
 H   -1.481015   -3.073023   -0.304854
 H   -1.717127   -3.184533    1.432151
 H   -3.871635   -2.472808   -0.643465
 H   -3.592277   -4.057410    0.032354
 H   -5.510104   -3.114010    1.108613
 H   -4.223684   -3.248570    2.304980
 H   -4.418847   -0.681382    0.920622
 H   -4.612956    0.978045    2.602027
 H   -6.032730    0.850445    3.526186
 H   -0.073584   -1.624250   -1.155591
 H    2.356680   -1.174395    0.482232
 H    2.217861   -2.099944   -2.411993
 H    2.284132   -3.801285    0.148669
 H    2.576035   -4.427052   -1.481075
 H    0.983541   -3.789198   -1.052384
 H    4.432473   -1.195303   -1.579438
 H    4.501734   -2.909667   -2.010216
 H    4.417948   -2.433897   -0.307798
 H    1.521096    1.018743    0.656443
 H    1.712754    2.724286   -1.723114
 H    1.229656    4.569258   -0.045101
 H    1.246572    3.377467    1.230334
 H   -0.718840    3.440043   -1.140390
 H   -0.686768    2.169116    0.077548
 H   -1.111696    3.892698    1.867976
 H   -1.070122    5.155559    0.648918
 H   -3.260972    4.879250    0.509596
 H   -2.079209    1.938224    1.846529
 H   -5.210575    3.592617    0.090460
 H   -5.440395    2.363628    1.254070
 H    3.900078    1.882822   -1.981152
 H    5.950243    3.386676   -0.449371
 H    6.265184    2.626613   -2.017748
 H    7.439297    0.555419   -1.899856
 H    7.934989   -1.589821   -0.777729
 H    7.223528   -3.416623    3.292709
 H    7.368966   -1.724101    3.322348
 H    6.778691   -3.519881   -0.100242
 H    5.266454   -0.541931    2.410634
 H    4.785279    1.615073    1.298481
