82 
6er4_ligand_xtb.xyz
 C   -1.391810   -3.498446   -1.294598
 C   -0.952745   -2.021871   -1.456414
 C   -1.958319   -1.175912   -2.235115
 C   -3.218119   -0.912077   -1.405014
 C   -2.828405   -0.382020   -0.013633
 C   -1.791537   -1.309057    0.656490
 C   -1.300172   -0.714433    2.004501
 C   -0.103909   -1.446789    2.646752
 C   -0.446986   -2.839390    3.205194
 C   -4.247273    0.867580    1.556722
 C   -5.635603    0.935155    2.141680
 N   -4.020477   -0.216297    0.788614
 O   -2.242309   -3.908160   -2.223669
 O   -0.935531   -4.230193   -0.453196
 O    0.241734   -2.053174   -2.199015
 O   -4.070993   -0.004586   -2.046573
 O   -0.674655   -1.468196   -0.197530
 O   -0.907297    0.625508    1.869199
 O    1.011374   -1.541168    1.790577
 O   -1.204163   -3.661101    2.361861
 O   -3.391099    1.710982    1.771379
 C    2.815234    0.546078   -0.425107
 C    3.945003    0.059927    0.490456
 C    4.650824   -1.151898   -0.143073
 C    3.623594   -2.245693   -0.511253
 C    2.489821   -1.628304   -1.348527
 C    1.367581   -2.652070   -1.572900
 O    2.133366    1.534662    0.247595
 O    4.843416    1.122409    0.679554
 O    5.611293   -1.664451    0.741691
 O    3.184373   -2.892195    0.650987
 O    1.918461   -0.517857   -0.689470
 C   -0.956838    2.954024   -1.368944
 C    0.062816    1.866943   -1.025336
 C    1.387551    2.476712   -0.518973
 C    1.168882    3.637047    0.465656
 C    2.481534    4.427808    0.719616
 C   -1.036499    3.988554   -0.240760
 O   -1.917430    4.988410   -0.641476
 O   -2.228822    2.372857   -1.566496
 O    0.263579    1.105750   -2.190859
 O    0.216396    4.567070   -0.000758
 O    3.620182    3.915716    0.096574
 H   -2.215472   -1.673312   -3.168461
 H   -1.474344   -0.223763   -2.466647
 H   -3.800013   -1.837613   -1.295775
 H   -2.385069    0.610809   -0.153311
 H   -2.258562   -2.283088    0.862732
 H   -2.142292   -0.802010    2.707691
 H    0.181295   -0.819407    3.509804
 H   -1.047929   -2.715411    4.109858
 H    0.501753   -3.322091    3.475428
 H   -5.858315    0.025779    2.694954
 H   -6.363864    1.045235    1.340993
 H   -5.704772    1.790322    2.807400
 H   -4.780044   -0.854887    0.609558
 H   -2.415208   -4.862001   -2.136689
 H   -3.570461    0.815439   -2.178577
 H   -1.711724    1.185508    1.836340
 H    0.957955   -0.812194    1.152042
 H   -0.694423   -3.866985    1.564549
 H    3.243803    0.918228   -1.376531
 H    3.495879   -0.232645    1.452848
 H    5.186409   -0.814196   -1.038602
 H    4.131958   -3.015691   -1.104875
 H    2.899599   -1.299969   -2.316981
 H    1.089391   -3.081381   -0.609495
 H    1.739996   -3.444113   -2.230490
 H    5.666547    0.745690    1.019862
 H    5.156472   -2.320860    1.293655
 H    2.454600   -2.394932    1.069062
 H   -0.632289    3.464042   -2.287396
 H   -0.331415    1.245153   -0.212449
 H    1.977988    2.815326   -1.381813
 H    0.802912    3.180495    1.398555
 H    2.334443    5.425998    0.298763
 H    2.636253    4.522726    1.801800
 H   -1.405937    3.491130    0.681485
 H   -1.684976    5.791741   -0.162357
 H   -2.858780    3.105821   -1.575931
 H    0.672509    0.264477   -1.929295
 H    3.826726    3.037252    0.450509
