52 
6es0_ligand_dft.xyz
 C   -0.751324    1.192848    0.357907
 C   -3.037471    2.020597    0.597707
 C    1.655217    0.713387   -0.049285
 C    6.738598   -0.058926   -0.972450
 C    6.407058    1.287678   -1.145466
 C    5.699722   -0.900889   -0.591293
 C    4.399508   -0.489329   -0.375241
 C  -11.470679   -1.581236   -0.477487
 C   -9.270255   -0.846598    0.261709
 C   -7.841113   -0.606626   -0.171195
 C   -6.937203   -0.144196    0.770598
 C   -5.623171    0.074074    0.362699
 C   -5.274220   -0.178045   -0.962689
 C   -6.270007   -0.641583   -1.817511
 C   -3.441382    0.740741    0.961976
 C   -2.528230   -0.301471    1.027872
 C   -1.186486   -0.081697    0.727718
 C   -1.703883    2.215302    0.307419
 C    4.093248    0.858452   -0.577734
 C    5.110157    1.739914   -0.965311
 C    8.859795   -1.632898    0.084236
 C    8.567971   -0.983957    1.433339
 F   -1.274138    3.447199   -0.045372
 F    5.976290   -2.209846   -0.362394
 N  -10.074954   -1.298967   -0.721020
 N   -7.530493   -0.857664   -1.450739
 N    0.564320    1.553720    0.037861
 N    2.810023    1.392181   -0.398790
 O   -4.761687    0.532002    1.309380
 O    7.396684   -1.329855    1.999712
 O    9.315217   -0.215161    1.972629
 O    1.606731   -0.485504    0.156442
 O   -9.638375   -0.640088    1.410361
 S    8.385378   -0.599471   -1.348893
 H   -3.740503    2.843435    0.547976
 H    7.187457    1.988548   -1.422720
 H    3.646537   -1.198857   -0.064713
 H  -11.583611   -2.351117    0.292666
 H  -11.995336   -0.683303   -0.135439
 H  -11.927954   -1.932055   -1.404325
 H   -7.255569    0.037913    1.789901
 H   -4.265403   -0.024506   -1.326158
 H   -6.029880   -0.848608   -2.857784
 H   -2.868040   -1.289049    1.320008
 H   -0.470493   -0.889259    0.777382
 H    4.890407    2.793982   -1.112601
 H    8.408950   -2.623797   -0.003508
 H    9.943193   -1.728574   -0.007212
 H   -9.655170   -1.431405   -1.630168
 H    0.677986    2.533657   -0.173274
 H    2.747810    2.389403   -0.537884
 H    6.898274   -1.920340    1.415582
