57 
6esn_ligand_xtb.xyz
 C   -7.005569   -4.295190   -1.006973
 C   -5.891680   -3.274264   -0.941494
 O   -6.828947   -2.123953    1.267860
 O   -7.620791   -1.254880   -0.899250
 C   -5.015381    0.184499   -1.246349
 C   -3.944202    1.059402   -1.292929
 C   -3.042245    1.116539   -0.236664
 C   -3.215404    0.284409    0.865643
 C   -4.282174   -0.595996    0.909882
 C   -1.880545    2.067417   -0.277605
 C   -1.394786    4.236640    0.778603
 C   -1.698935    5.111849    1.966956
 C    1.839354    1.773501   -0.563587
 C    2.430424    0.583248   -0.275053
 C    3.844130    0.631466   -0.413981
 C    6.684252   -1.782487   -0.851360
 C    4.546999   -1.348621    0.931402
 C    3.197536   -1.808342    2.868370
 C    7.755192   -1.996143   -1.746905
 S   -6.549543   -1.791532   -0.103411
 C   -5.173314   -0.632764   -0.144266
 N   -1.953529    3.008994    0.831754
 O   -0.700416    4.586394   -0.160614
 C   -0.527635    1.303877   -0.226884
 O   -0.432701    0.136234    0.073621
 N    0.498549    2.122415   -0.555882
 C    4.282917    1.861862   -0.811139
 S    3.002084    2.988814   -1.009143
 C    4.747359   -0.498862   -0.181604
 C    5.804567   -0.719454   -1.047709
 C    6.497243   -2.633444    0.233278
 C    5.446895   -2.406025    1.098584
 F    5.328968   -3.265305    2.142555
 O    3.516656   -1.026984    1.736067
 N    8.623940   -2.165102   -2.475650
 H   -6.678893   -5.204713   -1.506936
 H   -7.849617   -3.873839   -1.548077
 H   -7.332820   -4.539887    0.000776
 H   -5.563837   -2.951184   -1.925592
 H   -5.046392   -3.613390   -0.349551
 H   -5.743897    0.137493   -2.040240
 H   -3.811319    1.703952   -2.149092
 H   -2.505154    0.311109    1.677426
 H   -4.447663   -1.244863    1.755357
 H   -1.895556    2.654387   -1.205100
 H   -2.760054    5.351798    1.987398
 H   -1.438732    4.600427    2.890787
 H   -1.127624    6.032063    1.889098
 H    1.878143   -0.290065    0.011179
 H    4.001746   -1.797246    3.608107
 H    2.966063   -2.840751    2.596961
 H    2.309947   -1.339940    3.290888
 H   -2.510065    2.736125    1.626419
 H    0.280402    3.110485   -0.713399
 H    5.292670    2.183674   -0.970144
 H    5.939521   -0.065687   -1.895604
 H    7.158652   -3.466041    0.414877
