40 
6esy_ligand_dft.xyz
 N   -1.272283    1.559565    0.829664
 S   -1.429723    1.233459   -1.766981
 C    3.399320   -0.389021    0.029259
 N    4.604230   -1.057735    0.170737
 C    3.352023    0.997281   -0.203749
 C    2.134430    1.657437   -0.315238
 C    0.922338    0.981684   -0.219705
 C    0.964984   -0.397812   -0.000230
 C    2.167504   -1.072144    0.121550
 C   -0.385579    1.733631   -0.320461
 C   -2.227104    0.567459    0.641749
 C   -2.472845    0.271533   -0.709457
 C   -3.421894   -0.658860   -1.080116
 C   -4.166342   -1.332115   -0.096914
 C   -3.905756   -1.047318    1.238710
 C   -2.938209   -0.112175    1.622477
 C    5.831371   -0.363988   -0.155580
 C    4.610064   -2.505273    0.165641
 C   -0.701406    1.778688    2.138815
 C   -5.213881   -2.339844   -0.500940
 H    4.264593    1.573374   -0.297939
 H    2.137922    2.731861   -0.488798
 H    0.037986   -0.960751    0.071757
 H    2.143543   -2.142781    0.284929
 H   -0.172215    2.801498   -0.440876
 H   -3.590326   -0.876995   -2.131760
 H   -4.460919   -1.571304    2.012624
 H   -2.750947    0.073347    2.675122
 H    6.676233   -1.037903   -0.003722
 H    5.855216   -0.009595   -1.197873
 H    5.980433    0.500008    0.502452
 H    5.637472   -2.859645    0.265081
 H    4.043968   -2.903727    1.015426
 H    4.186758   -2.929008   -0.758088
 H   -0.134894    0.911802    2.511265
 H   -0.025034    2.636217    2.093054
 H   -1.498729    2.015807    2.850031
 H   -6.039920   -1.862168   -1.041123
 H   -4.796194   -3.109125   -1.160619
 H   -5.637114   -2.844044    0.373078
