23 
6etg_ligand_xtb.xyz
 N   -3.437895   -1.184480    0.006531
 N   -4.660248   -0.804321    0.002414
 N   -4.724132    0.537243   -0.008972
 N   -3.544028    1.032437   -0.010433
 C   -2.696739   -0.037529   -0.001084
 C   -1.292841    0.026266    0.001294
 C   -0.526370   -1.162752    0.005937
 C    0.832733   -1.115576    0.006276
 C   -0.622290    1.270135   -0.000238
 C    0.736775    1.321951    0.002290
 C    1.517435    0.131485    0.003941
 C    2.914419    0.236567    0.003245
 O    3.505246    1.418463    0.011468
 N    3.738996   -0.838027   -0.005902
 N    5.123454   -0.618588   -0.010683
 H   -1.057781   -2.101861    0.009259
 H    1.387708   -2.043249    0.010632
 H   -1.221849    2.166903   -0.003183
 H    1.254945    2.268131    0.001671
 H    3.352605   -1.772186   -0.021616
 H    5.554311   -1.004563   -0.848420
 H    4.472965    1.277682    0.010262
 H    5.563357   -1.031692    0.808995
