23 
6etg_ligand_dft.xyz
 N   -3.425902   -1.190452   -0.000148
 N   -4.674361   -0.813786   -0.000119
 N   -4.740636    0.543130    0.000141
 N   -3.534979    1.040462    0.000235
 C   -2.715689   -0.037298    0.000066
 C   -1.299757    0.028164    0.000001
 C   -0.527071   -1.166538    0.000039
 C    0.836882   -1.113416   -0.000023
 C   -0.623508    1.276107   -0.000123
 C    0.742883    1.329617   -0.000173
 C    1.517854    0.136752   -0.000123
 C    2.920435    0.228580    0.000021
 O    3.512603    1.398871    0.000001
 N    3.749372   -0.841614    0.000226
 N    5.121069   -0.601852   -0.000009
 H   -1.055874   -2.112940    0.000118
 H    1.381805   -2.054860    0.000026
 H   -1.221803    2.180163   -0.000159
 H    1.249052    2.288914   -0.000266
 H    3.383750   -1.782281   -0.000292
 H    5.553343   -0.990647   -0.833040
 H    4.481262    1.227886    0.000094
 H    5.553522   -0.990226    0.833122
