66 
6eu6_ligand_dft.xyz
 C   -0.078857   -1.400847    0.425114
 O   -4.007975   -0.645042   -1.030013
 C   -0.509061   -1.331107   -1.040107
 O   -5.174190   -0.407928    2.406068
 C   -0.929473    0.104521   -1.367549
 O   -3.468215    2.947145   -0.645177
 C    0.253075    1.034430   -1.069327
 O   -5.154072    2.316435    1.565819
 C   -4.081495    1.692475   -0.513689
 O    0.703571    0.893201    0.279430
 C    1.056538   -0.409200    0.677724
 O   -4.019410   -3.321050   -0.467523
 C   -4.339027    1.341683    0.950256
 O   -2.029560    0.527983   -0.591611
 C   -5.037451   -0.006620    1.061231
 C   -4.209169   -1.055558    0.325304
 C   -3.306728    0.552658   -1.179838
 C   -4.854956   -2.426202    0.229850
 O    2.165697   -0.893202   -0.019546
 C    3.387492   -0.229760    0.285489
 C    4.464909   -0.778818   -0.633084
 C    5.812443   -0.064879   -0.485964
 C    6.481547   -0.257382    0.878273
 C    7.830502    0.456673    1.016172
 C    8.923589   -0.057348    0.076495
 C   10.271405    0.618883    0.323270
 O    0.293890   -2.710717    0.784855
 O   -1.541625   -2.236111   -1.315731
 C   -0.052612    2.528437   -1.208958
 O   -0.747615    3.041292   -0.090862
 H   -0.928320   -1.130353    1.057950
 H    0.369877   -1.562615   -1.664705
 H   -5.558846    0.345282    2.874131
 H   -1.173118    0.176561   -2.437614
 H   -2.538248    2.882420   -0.341584
 H    1.069431    0.774548   -1.757269
 H   -4.809844    3.171094    1.267844
 H   -5.049403    1.767092   -1.021620
 H    1.278254   -0.326240    1.749011
 H   -3.664627   -2.816476   -1.216038
 H   -3.370999    1.268189    1.473262
 H   -6.023188    0.076489    0.573709
 H   -3.236357   -1.161417    0.821012
 H   -3.219313    0.716816   -2.260141
 H   -5.834913   -2.323190   -0.263620
 H   -5.016426   -2.825604    1.233753
 H    3.628980   -0.397562    1.344625
 H    3.265616    0.850834    0.133344
 H    4.586271   -1.852291   -0.441214
 H    4.106990   -0.679574   -1.664657
 H    6.478230   -0.434208   -1.273812
 H    5.679681    1.009993   -0.675891
 H    5.816053    0.107909    1.670600
 H    6.618288   -1.332633    1.062362
 H    8.179835    0.350585    2.051796
 H    7.688665    1.534295    0.850529
 H    9.027323   -1.143448    0.204193
 H    8.629461    0.104558   -0.967713
 H   11.037335    0.245580   -0.364048
 H   10.195752    1.703434    0.183529
 H   10.621024    0.439576    1.346404
 H    1.158432   -2.865166    0.375607
 H   -1.471446   -2.962777   -0.678456
 H    0.894204    3.070091   -1.335739
 H   -0.672122    2.707381   -2.092823
 H   -0.422529    2.542541    0.673620
