20 
6eum_ligand_xtb.xyz
 C   -1.466012    1.625636    0.218981
 C   -2.819677    1.500324    0.462303
 C   -3.433711    0.277802    0.256476
 C   -2.681164   -0.792847   -0.192908
 C   -1.317821   -0.658024   -0.425821
 C    3.165354    0.319965   -0.394965
 O    4.111929   -0.179392    0.398166
 C    1.751177   -0.016623   -0.016936
 C    0.753215    0.751489   -0.465833
 C   -0.671575    0.560220   -0.212231
 F   -0.876321    2.813641    0.424419
 F   -0.626208   -1.700376   -0.903181
 F   -3.274679   -1.974066   -0.412683
 O    3.412125    0.999244   -1.350511
 S    1.503315   -1.338920    1.154054
 H   -3.378968    2.355780    0.804245
 H   -4.488484    0.143454    0.431495
 H    3.727889   -0.658225    1.156260
 H    1.023871    1.620479   -1.054776
 H    2.186382   -2.258026    0.465290
