51 
6evr_ligand_dft.xyz
 C   -6.596007   -0.020016   -0.486510
 O   -0.780781   -3.224217    1.256135
 C   -2.819599    0.473604   -0.394260
 C   -1.114781    1.845649    0.841760
 C   -1.068548    3.027226    0.094511
 C    0.139592    3.682129   -0.122588
 C    1.322118    3.165745    0.403503
 C    1.285411    2.002468    1.165490
 C    0.072927    1.353078    1.383933
 C   -0.652112   -2.315734    0.443924
 C    2.408596   -0.866654   -1.341984
 C    3.251595   -0.733753   -0.248120
 C    2.878742   -1.181043    1.017744
 C    1.617619   -1.724304    1.190424
 C   -3.036108   -2.262870    0.313053
 C   -4.181926   -1.617406   -0.452436
 N   -4.135247   -0.167204   -0.339258
 C    0.722050   -1.795506    0.117572
 C    1.140850   -1.410422   -1.154468
 C   -5.234266    0.647412   -0.432240
 O   -5.117555    1.864346   -0.461346
 N   -1.746971   -1.738677   -0.135635
 C   -1.785597   -0.515035   -0.929842
 C   -2.409396    1.078352    0.964828
 S    4.791468    0.133214   -0.449594
 O    4.994503    0.340513   -1.875007
 O    4.821417    1.245779    0.487666
 N    5.908696   -0.967646    0.138724
 H   -6.810037   -0.559180    0.442884
 H   -7.341464    0.764110   -0.616914
 H   -6.672193   -0.731881   -1.314933
 H   -2.887948    1.295732   -1.114172
 H   -1.989629    3.431538   -0.320090
 H    0.158539    4.597486   -0.707290
 H    2.270184    3.662941    0.223424
 H    2.205233    1.598985    1.577223
 H    0.048777    0.441604    1.975638
 H    2.738838   -0.534388   -2.319892
 H    3.566793   -1.095106    1.852095
 H    1.295916   -2.084517    2.161624
 H   -3.154849   -2.079748    1.388131
 H   -3.056335   -3.346622    0.169510
 H   -5.113876   -1.992601   -0.026216
 H   -4.155019   -1.932798   -1.506366
 H    0.480765   -1.522346   -2.008452
 H   -0.815492   -0.022905   -0.897781
 H   -2.006564   -0.751904   -1.978991
 H   -2.313963    0.279885    1.710174
 H   -3.222277    1.737139    1.283459
 H    6.326969   -1.507183   -0.613399
 H    6.611152   -0.473863    0.681667
