20 
6ew3_ligand_dft.xyz
 C   -1.374355   -0.521480   -0.234160
 C   -1.813191    2.218480   -0.037415
Cl    0.739940    2.865823   -0.617857
 C   -0.547594    1.729377   -0.337539
 C   -0.298257    0.356639   -0.430873
 C    1.049067   -0.173192   -0.747349
 C    2.019328   -0.338747    0.161344
 C    3.378238   -0.860450   -0.241096
 O    3.399625   -1.700299   -1.289230
 O    4.392323   -0.550276    0.325852
 S    1.814151    0.079376    1.860530
Cl   -1.093651   -2.230273   -0.375757
 C   -2.649427   -0.038125    0.065226
Cl   -3.989004   -1.111247    0.315475
 C   -2.859585    1.333184    0.166409
 H   -1.976411    3.287473    0.033236
 H    1.236866   -0.411734   -1.792599
 H    2.502119   -1.996477   -1.495362
 H    3.127639    0.006064    2.132568
 H   -3.851384    1.701988    0.401761
