20 
6ew3_ligand_xtb.xyz
 C   -1.190108   -0.430622   -0.301200
 C   -2.153296    2.098159    0.336103
Cl    0.256055    3.262613    0.076960
 C   -0.815284    1.911189    0.037852
 C   -0.300379    0.647035   -0.266614
 C    1.123303    0.495196   -0.563743
 C    1.967164   -0.318487    0.097447
 C    3.426780   -0.425425   -0.231230
 O    3.812103    0.026932   -1.421808
 O    4.214895   -0.911520    0.536261
 S    1.503795   -1.276075    1.484267
Cl   -0.641694   -1.983106   -0.787993
 C   -2.537713   -0.244819   -0.000623
Cl   -3.619522   -1.580572   -0.044383
 C   -3.013858    1.016067    0.323896
 H   -2.517707    3.083181    0.579054
 H    1.496792    1.183545   -1.313584
 H    3.080314    0.335079   -1.973933
 H    2.770123   -1.625283    1.738408
 H   -4.058118    1.145729    0.556904
