48 
6ewk_ligand_xtb.xyz
 O    7.740218   -0.612455    0.876147
 C    7.618129    0.251502   -0.220268
 C    6.354510   -0.071926   -1.027136
 N    5.158814    0.038235   -0.147529
 C    5.341087   -0.857363    1.024744
 C    6.647926   -0.499843    1.744820
 C    3.894696   -0.212576   -0.890177
 C    2.641707    0.182369   -0.111259
 C    1.409462    0.104587   -1.019102
 C    0.115837    0.425447   -0.269138
 C   -1.080568    0.382851   -1.225699
 C   -2.399231    0.660667   -0.568356
 N   -3.328386   -0.274448   -0.698407
 C   -4.542196   -0.087292   -0.213196
 C   -4.894755    1.067996    0.488875
 C   -3.924376    2.051792    0.648439
 C   -2.670050    1.852925    0.105105
 O   -6.164990    1.182516    0.998566
 C   -5.545033   -1.166174   -0.546459
 N   -6.484693   -1.421414    0.573902
 O   -7.549494   -2.185139    0.100837
 H    8.504138    0.097258   -0.837531
 H    7.595614    1.301405    0.111539
 H    6.409874   -1.096902   -1.399336
 H    6.257201    0.613864   -1.869271
 H    5.127933    1.003122    0.208383
 H    5.394127   -1.885525    0.661068
 H    4.497466   -0.753479    1.705736
 H    6.582318    0.518523    2.159701
 H    6.827194   -1.200697    2.561274
 H    3.859761   -1.271741   -1.152566
 H    3.933870    0.366315   -1.816303
 H    2.742922    1.203820    0.263642
 H    2.488190   -0.481080    0.740548
 H    1.336352   -0.898383   -1.442020
 H    1.524972    0.806706   -1.846633
 H    0.194191    1.414593    0.184792
 H   -0.034888   -0.300749    0.531553
 H   -1.145166   -0.600026   -1.692469
 H   -0.930564    1.124405   -2.014327
 H   -4.161634    2.966024    1.173702
 H   -1.918255    2.619836    0.192629
 H   -6.306489    2.067215    1.362831
 H   -5.019964   -2.081652   -0.822455
 H   -6.154195   -0.852069   -1.400454
 H   -6.782282   -0.470732    0.908334
 H   -5.995236   -1.914718    1.337864
 H   -8.256331   -2.281102    0.762452
