47 
6ex1_ligand_dft.xyz
 C   -2.168059    0.824689    1.053022
 C   -3.476591    1.141454    0.714195
 C   -4.237317    0.211933    0.012139
 C   -3.718767   -1.024094   -0.359209
 C   -2.404287   -1.329421   -0.030814
 C   -1.623204   -0.401347    0.664991
 C   -0.220976   -0.699808    1.077816
 O    0.238402   -0.324068    2.140855
 N    0.557638   -1.473729    0.205280
 C    1.871913   -1.842692    0.704123
 C    2.898574   -0.746834    0.438060
 N    2.894784   -0.471811   -1.056313
 C    1.537914   -0.135917   -1.605948
 C    0.544806   -1.237527   -1.229182
 S   -5.920872    0.622863   -0.445157
 O   -5.991028    2.070668   -0.516845
 O   -6.271380   -0.242265   -1.556907
 N   -6.802444    0.135228    0.881142
 C    4.326125   -1.074672    0.876922
 C    5.316213   -0.046432    0.374417
 C    6.164345   -0.342125   -0.697084
 C    7.034318    0.623475   -1.199859
 C    7.058805    1.896205   -0.638693
 C    6.214582    2.201686    0.427293
 C    5.345940    1.237938    0.929094
 H   -1.561059    1.521536    1.621376
 H   -3.903759    2.102700    0.978490
 H   -4.335701   -1.726878   -0.908534
 H   -1.993978   -2.300283   -0.293563
 H    2.181314   -2.781499    0.225135
 H    1.809480   -2.008873    1.779579
 H    2.556221    0.183877    0.899929
 H    3.574080    0.278384   -1.240678
 H    3.267280   -1.297145   -1.539528
 H    1.248730    0.819348   -1.161345
 H    1.633810   -0.016710   -2.687296
 H    0.791566   -2.170119   -1.752044
 H   -0.446629   -0.930087   -1.561931
 H   -7.265697    0.921891    1.325247
 H   -7.446794   -0.612142    0.642551
 H    4.321883   -1.119114    1.971041
 H    4.599884   -2.076975    0.522614
 H    6.172672   -1.344535   -1.121455
 H    7.700660    0.375127   -2.019686
 H    7.741996    2.646664   -1.022629
 H    6.241067    3.189041    0.876773
 H    4.703125    1.478398    1.773186
