30 
6ey7_ligand_dft.xyz
 C    2.124792   -0.865456    0.495339
 C    2.091994    0.530085    0.590924
 C   -1.167892    0.235151   -0.104646
 C    4.452031    0.602572    0.031247
 C    3.262150    1.250242    0.356031
 O   -3.644167   -1.740082   -1.149271
 C    0.791385    1.228898    0.917045
 C    4.447957   -0.779262   -0.056703
 C   -2.210195    0.204061   -1.220953
 C   -3.340976   -0.653214   -0.712331
 C    3.300739   -1.528235    0.170811
 O   -5.073492   -0.911872    0.913319
 C   -4.184955   -0.051949    0.429983
 O   -4.062627    1.086629    0.797169
 O   -1.269926   -0.570821    0.816293
 N   -0.173887    1.152186   -0.178962
 C    0.066347    2.034105   -1.303960
 F    5.586998   -1.415334   -0.370205
 H    1.215675   -1.430142    0.682632
 H    5.369213    1.151439   -0.151307
 H    3.251907    2.334981    0.432376
 H    0.970334    2.289003    1.131070
 H    0.317913    0.779184    1.790929
 H   -1.801044   -0.252059   -2.126998
 H   -2.587510    1.205337   -1.449574
 H    3.342967   -2.609362    0.097216
 H   -4.968248   -1.739600    0.406472
 H   -0.178895    3.072239   -1.048468
 H    1.124025    1.980898   -1.583727
 H   -0.520670    1.737966   -2.172840
