49 
6ey8_ligand_dft.xyz
 C   -0.319390   33.629174   23.610212
 C   -1.483999   33.763514   24.406815
 C   -1.485753   33.460698   25.755910
 O   -2.591917   34.232072   23.766327
 C    0.903353   32.895137   25.541657
 C   -0.270868   33.026734   26.306547
 C    1.903737   32.476717   26.483273
 C    3.376856   32.271198   26.265396
 C    3.722349   31.817687   24.864906
 C    4.549788   32.592081   24.052229
 C    4.821160   32.208000   22.740856
 C    3.181332   30.639379   24.344193
 C   -0.419233   35.722659   20.455009
 C   -0.268912   36.347927   22.865424
 C    2.246123   36.143665   23.036749
 C    3.422823   36.060701   23.770006
 C    0.857657   33.177322   24.168438
 C   -0.349567   33.971230   22.142118
 N   -0.345329   35.310484   21.843569
 O   -0.334692   33.101932   21.285788
 N    0.074146   32.684234   27.574548
 N    1.386078   32.346115   27.684886
 C    4.266570   31.040195   22.227620
 C    3.448147   30.253551   23.035908
 C    1.016350   36.322319   23.670729
 C    3.363781   36.163246   25.155803
 C    2.153769   36.347153   25.811350
 C    0.986475   36.427714   25.058893
Cl    4.842408   36.049507   26.088702
 H   -2.386448   33.557647   26.356570
 H   -3.339730   34.225432   24.375609
 H    3.731965   31.549229   27.009355
 H    3.896521   33.214029   26.475422
 H    4.977340   33.509542   24.448992
 H    5.463260   32.825704   22.119249
 H    2.524693   30.034643   24.964879
 H    0.454367   36.326009   20.179338
 H   -0.444315   34.825283   19.838091
 H   -1.324726   36.313972   20.273386
 H   -0.350649   37.305397   22.339945
 H   -1.133533   36.289747   23.535614
 H    2.285155   36.031228   21.956927
 H    4.375538   35.911429   23.273823
 H    1.741915   33.081522   23.548115
 H   -0.511055   32.622425   28.389972
 H    4.467321   30.743791   21.202530
 H    3.008796   29.342241   22.641466
 H    2.121769   36.403868   26.893726
 H    0.032576   36.526515   25.570130
