46 
6eyb_ligand_xtb.xyz
 C   65.191131   32.907162   25.498792
 C   65.185792   33.709383   24.388913
 C   66.395555   34.226929   23.827732
 C   66.061647   35.905987   20.613907
 C   67.908999   36.848143   23.367499
 C   69.075726   37.448733   22.905870
 C   69.900797   38.119858   23.788723
 C   69.570199   38.195170   25.131736
 C   68.396535   37.615615   25.585808
 C   67.558425   36.950846   24.710151
 C   68.644171   32.627326   26.379868
 C   70.123747   32.785205   26.327287
 C   70.742300   30.547221   25.370794
 C   71.220920   29.746260   24.350254
 C   67.608284   33.916543   24.392070
 C   66.326827   35.062559   22.635286
 C   65.644431   34.864102   21.451236
 N   66.929397   36.685334   21.222685
 N   67.088132   36.180575   22.449727
 O   64.025186   34.074253   23.777472
 C   66.424408   32.596655   26.093577
 C   67.640547   33.110538   25.536518
 N   68.004384   31.897048   27.310519
 N   66.679403   31.857685   27.175807
 C   70.682472   31.926443   25.217272
 C   71.641251   30.316272   23.160452
 C   71.582239   31.689397   22.998783
 C   71.104151   32.489777   24.021814
 H   64.274125   32.522662   25.920692
 H   65.765000   36.112502   19.604520
 H   69.311510   37.384809   21.855172
 H   70.806699   38.583577   23.427381
 H   70.219216   38.713851   25.821452
 H   68.124465   37.690646   26.628234
 H   66.634231   36.519912   25.062488
 H   70.557415   32.487527   27.285363
 H   70.368064   33.833465   26.142265
 H   70.413908   30.097032   26.297348
 H   71.265343   28.675331   24.483606
 H   68.525926   34.283259   23.958301
 H   64.958566   34.074407   21.227356
 H   63.278752   33.679214   24.244077
 H   68.428351   31.402204   28.081702
 H   72.014196   29.691488   22.362694
 H   71.909135   32.140001   22.073292
 H   71.065045   33.562093   23.891503
