63 
6eyz_ligand_dft.xyz
 C   -8.277129  -31.349167   23.651084
 C   -6.986116  -31.613551   24.035358
 C   -6.434534  -32.950973   23.854812
 C   -6.031945  -34.976377   23.385269
 C   -3.583789  -35.045680   24.344329
 C   -1.361533  -35.580643   23.631408
 C   -0.349296  -35.484626   22.499654
 N   -0.051731  -34.093568   22.174307
 O  -11.756576  -31.497496   19.831358
 C    1.268020  -32.499176   20.814765
 C   -4.921677  -34.494330   23.993496
 O  -14.159534  -29.146378   22.292627
 C  -10.274756  -29.856256   23.362907
 C  -14.926532  -28.325847   23.165259
 C   -8.873107  -30.057535   23.799837
 C  -12.894674  -29.391683   22.636661
 C  -11.169562  -29.094157   24.111220
 C   -6.821048  -29.262140   24.755110
 C  -10.779679  -30.414695   22.188024
 C    2.261830  -34.678443   21.511784
 C    0.962246  -33.970270   21.115131
 C   -6.225291  -30.550806   24.603859
 N   -4.859265  -29.102199   25.482676
 C   -4.933548  -30.391003   25.098368
 C   -1.299093  -33.417955   21.830797
 O   -5.178571  -33.185170   24.302081
 C   -2.313974  -33.515541   22.959863
 C  -12.513086  -30.845973   20.520159
 N   -2.600233  -34.905919   23.278051
 C   -8.154159  -29.019595   24.343519
 N   -5.966680  -28.378120   25.297513
 N   -6.990432  -33.986525   23.302237
 N  -12.434245  -28.861703   23.763286
 C  -12.095719  -30.202089   21.795216
 H   -8.865616  -32.161048   23.234961
 H   -6.204153  -35.970098   22.998229
 H   -3.699950  -36.114556   24.553516
 H   -3.242523  -34.567120   25.283649
 H   -1.576591  -36.637310   23.829053
 H   -0.913592  -35.149501   24.548729
 H   -0.740152  -36.031945   21.619509
 H    0.562597  -35.986764   22.829207
 H    0.438566  -31.983479   20.324146
 H    1.508180  -31.969493   21.743487
 H    2.129654  -32.428301   20.144166
 H  -15.908867  -28.259056   22.697366
 H  -15.005081  -28.775464   24.158628
 H  -14.480761  -27.332382   23.263075
 H  -10.853805  -28.656394   25.056508
 H  -10.152450  -31.019823   21.540374
 H    2.163665  -35.766853   21.534428
 H    3.048441  -34.443555   20.788459
 H    2.588075  -34.336832   22.500553
 H    0.586563  -34.439728   20.182914
 H   -4.057167  -28.645833   25.890351
 H   -4.103809  -31.071950   25.198417
 H   -1.105032  -32.358071   21.654468
 H   -1.746878  -33.838701   20.909345
 H   -1.921359  -32.975244   23.845381
 H   -3.236331  -33.018340   22.646288
 H   -8.573540  -28.023088   24.437744
 O  -13.796253  -30.661490   20.180095
 H  -13.906412  -31.138995   19.341928
