56 
6ezg_ligand_xtb.xyz
 C    6.484035   -3.912457   -5.292835
 N    4.643746   -5.510253   -5.250995
 C    3.798909   -6.451562   -5.972855
 C    3.000074   -5.466866   -8.151903
 C    0.815014   -4.503818   -8.377024
 C    3.935093   -4.728075   -4.257907
 C    4.936491   -3.994237   -3.370540
 C    9.443494    1.731569   -2.680914
 C   10.114295    3.089550   -6.579180
 C    9.153963    0.316861   -7.309520
 O    8.889667    0.172983   -5.935013
 C    9.243958    1.129104   -5.042714
 C    9.060520    0.820539   -3.684567
 C    8.474931   -0.443182   -3.158078
 O    8.643257   -0.756557   -1.998090
 C    7.634478   -1.288122   -4.084683
 C    6.832381   -2.340770   -3.323214
 C    5.818349   -3.067806   -4.207382
 C    5.430351   -4.652181   -6.113361
 C    2.734483   -5.810572   -6.831436
 C    2.048649   -4.819347   -8.919991
 C    0.536014   -4.848093   -7.065564
 C    1.488962   -5.496657   -6.300089
 C    9.977478    2.952233   -2.983197
Cl   10.437272    4.090171   -1.757943
 C   10.145708    3.279667   -4.325904
 N   10.635293    4.419299   -4.871509
 C   10.614295    4.304924   -6.228677
 C    9.794808    2.386988   -5.372438
 H    7.145322   -4.642900   -4.824117
 H    7.075597   -3.286534   -5.962419
 H    3.331959   -7.101728   -5.227083
 H    4.458558   -7.063062   -6.596125
 H    3.958619   -5.716567   -8.584959
 H    0.072013   -3.996902   -8.975253
 H    3.253148   -3.992608   -4.723172
 H    3.336442   -5.410095   -3.648265
 H    4.398045   -3.423674   -2.611725
 H    5.566014   -4.728576   -2.865718
 H    9.295896    1.423959   -1.657514
 H    9.991948    2.763202   -7.590216
 H    8.872150   -0.637482   -7.755101
 H    8.545475    1.109404   -7.752763
 H   10.213784    0.503282   -7.498573
 H    8.310624   -1.765944   -4.794801
 H    6.969945   -0.636930   -4.654932
 H    6.302894   -1.848503   -2.504480
 H    7.518073   -3.061621   -2.875533
 H    5.176584   -2.320764   -4.691417
 H    5.923209   -5.279165   -6.861518
 H    4.800497   -3.914208   -6.644434
 H    2.270143   -4.561589   -9.945832
 H   -0.427693   -4.612005   -6.637785
 H    1.260572   -5.770239   -5.279644
 H   10.954941    5.210043   -4.337605
 H   10.958270    5.101873   -6.858494
