41 
6f05_ligand_xtb.xyz
 N    2.471549    0.185069    0.813472
 C    3.463765   -0.861805    0.505037
 C    4.719546   -0.253963   -0.139754
 O    4.794547    1.057747    0.083804
 O    5.529102   -0.889968   -0.740410
 C    2.881762   -1.939634   -0.414112
 C    1.816667   -2.819767    0.260005
 C    0.555182   -2.010537    0.465509
 O    0.415842   -1.261365    1.427732
 N   -0.376547   -2.099533   -0.497947
 C   -1.366608   -1.042444   -0.619825
 C   -0.585748    0.281797   -0.847107
 O    0.608569    0.239600   -1.127526
 C   -2.304344   -1.014712    0.583964
 S   -3.927879   -0.472365    0.018394
 O   -3.891733    0.953938   -0.149565
 O   -4.337342   -1.254396   -1.100122
 O   -4.813009   -0.839898    1.282963
 N   -1.282460    1.402907   -0.741176
 C   -0.675778    2.697491   -0.959313
 C    0.192110    3.140946    0.214523
 O    0.103536    4.440535    0.409714
 O    0.895726    2.403924    0.858562
 H    1.942540    0.476260   -0.043795
 H    2.887166    1.020092    1.234109
 H    1.713090   -0.217626    1.425364
 H    3.793254   -1.323494    1.445067
 H    5.602994    1.433417   -0.302128
 H    2.456129   -1.458350   -1.296535
 H    3.711323   -2.568922   -0.739586
 H    1.617583   -3.684410   -0.370567
 H    2.180188   -3.169890    1.226816
 H   -0.204632   -2.681416   -1.302381
 H   -1.973301   -1.243226   -1.509955
 H   -2.444487   -2.018516    0.973477
 H   -1.972343   -0.355550    1.379228
 H   -5.691667   -1.156813    1.058467
 H   -2.281442    1.380832   -0.515840
 H   -1.451480    3.440006   -1.136074
 H   -0.013513    2.646989   -1.833473
 H    0.665652    4.754191    1.138294
