21 
6f1j_ligand_dft.xyz
 O    0.579898    1.626657   -1.033510
 C    1.342363    0.722417   -0.271645
 C    0.982748    0.821338    1.209743
 N   -0.376795    0.172154    1.257707
 C    0.861435   -0.703559   -0.614923
 O    1.690628   -1.663817   -0.012113
 C   -0.496509   -0.802540    0.085437
 C   -1.701257   -0.384382   -0.760877
 O   -2.687439    0.023206    0.168140
 H    1.045472    2.467625   -1.117008
 H    2.419664    0.829643   -0.433747
 H    0.914277    1.839968    1.591436
 H    1.657681    0.223953    1.822730
 H   -0.535500   -0.304930    2.146362
 H   -1.153021    0.841779    1.157444
 H    0.761637   -0.836638   -1.697974
 H    2.476593   -1.806065   -0.554622
 H   -0.636049   -1.798537    0.506059
 H   -2.019723   -1.249800   -1.353236
 H   -1.425242    0.432087   -1.436630
 H   -3.465602    0.347829   -0.301303
