21 
6f1j_ligand_xtb.xyz
 O    0.947157    1.864849   -0.649806
 C    1.289541    0.754635    0.126862
 C    0.400692    0.643930    1.396758
 N   -0.467965   -0.545875    1.194557
 C    0.954988   -0.531639   -0.676649
 O    1.725557   -1.620860   -0.249766
 C   -0.486169   -0.837817   -0.268106
 C   -1.560496    0.054124   -0.901229
 O   -2.647500    0.046106    0.006865
 H    1.457929    2.642110   -0.397957
 H    2.351981    0.755675    0.390057
 H   -0.216741    1.539917    1.472371
 H    0.989467    0.530945    2.304684
 H   -0.090573   -1.354242    1.694237
 H   -1.452694   -0.375221    1.460840
 H    1.042144   -0.335666   -1.748767
 H    2.567523   -1.657659   -0.715763
 H   -0.719392   -1.893507   -0.420054
 H   -1.844942   -0.356702   -1.873743
 H   -1.177603    1.071280   -1.044371
 H   -3.424400    0.434028   -0.407587
