81 
6f1w_ligand_xtb.xyz
 C   -4.281593    1.356160   -1.588610
 C   -3.829471    2.646537    0.477305
 C   -2.830543    3.730642    0.850076
 C   -1.610814    3.358407   -0.034342
 C   -2.267071    2.852451   -1.341153
 C   -1.595971    1.597588   -1.908673
 C   -3.426726    0.236342   -1.120358
 C   -3.656875   -0.939905   -0.426904
 C   -2.380065   -1.461877   -0.124772
 C   -1.421825   -0.597010   -0.621448
 C    0.047100   -0.606994   -0.500355
 C    1.885291   -2.161268    0.089357
 C    3.219899   -3.783156    0.953247
 C    4.358342   -3.010027    0.799199
 C    4.229810   -1.744124    0.227335
 C    2.959021   -1.320242   -0.159124
 C    5.359965   -0.845803    0.050173
 C    6.642278   -1.097458   -0.382706
 C    5.348147    0.574177    0.236174
 C    4.228230    1.396482    0.685133
 C    3.435316    0.986272    1.754232
 C    2.329036    1.725039    2.126301
 C    2.036931    2.870178    1.414011
 C    2.820189    3.321968    0.370972
 C    3.928334    2.577619    0.013199
 C    7.342905   -2.348715   -0.795455
 C    8.365210   -2.738349    0.277379
 C    8.030787   -2.140951   -2.146018
 C   -4.942936   -1.535606   -0.087306
 C   -5.111353   -2.206968    1.125811
 C   -6.317081   -2.781379    1.449324
 C   -7.399378   -2.716821    0.564285
 C   -9.654435   -3.336948    0.120809
 C   -7.235994   -2.053831   -0.650222
 C   -6.021693   -1.471413   -0.963417
 F    0.915549    3.582291    1.743978
 N   -3.720374    2.612364   -1.005849
 N   -2.081297    0.437398   -1.221276
 N    0.559773   -1.821751   -0.191439
 N    2.008931   -3.372960    0.620900
 N    6.517129    1.077312   -0.062671
 O   -3.370066    4.953781    0.428859
 O   -0.832311    4.476753   -0.329116
 O    0.705247    0.413620   -0.650987
 O    7.313636    0.058998   -0.443591
 O   -8.533406   -3.320758    0.975890
 H   -4.275273    1.455157   -2.678934
 H   -5.309671    1.227101   -1.246590
 H   -4.844288    2.901392    0.779388
 H   -3.544033    1.677382    0.886637
 H   -2.587261    3.742204    1.918826
 H   -1.026061    2.561740    0.436613
 H   -2.191280    3.661093   -2.072813
 H   -1.813524    1.505161   -2.979682
 H   -0.512313    1.668210   -1.776049
 H   -2.207216   -2.375124    0.407977
 H    3.270953   -4.775983    1.378248
 H    5.316346   -3.373862    1.132038
 H    2.808961   -0.363993   -0.628158
 H    3.684511    0.087996    2.298098
 H    1.700422    1.421370    2.948208
 H    2.566514    4.231687   -0.150502
 H    4.563108    2.897166   -0.797486
 H    6.592033   -3.140039   -0.889231
 H    9.112980   -1.955999    0.380480
 H    8.863692   -3.661695   -0.004686
 H    7.882882   -2.884671    1.241659
 H    7.303176   -1.878551   -2.910895
 H    8.764249   -1.342172   -2.074852
 H    8.536167   -3.054072   -2.448100
 H   -4.288685   -2.264075    1.822141
 H   -6.455371   -3.298975    2.384670
 H  -10.016728   -2.325120   -0.085235
 H   -9.431227   -3.846304   -0.821315
 H  -10.422702   -3.891427    0.656068
 H   -8.042858   -1.996473   -1.363090
 H   -5.901709   -0.995857   -1.926561
 H   -4.246494    3.424971   -1.339091
 H   -0.074103   -2.596275   -0.043195
 H   -2.643862    5.586219    0.320529
 H   -0.123002    4.559422    0.322245
