34 
6f28_ligand_dft.xyz
 O   -1.868447    2.112375   -0.481938
 N    2.897464   -1.292915   -0.500735
 C    1.403320   -1.470728   -0.669086
 C    3.119060   -0.042317    0.336211
 C   -2.212864   -1.400835    0.790972
 C   -2.622062   -0.867239   -0.584134
 C    3.600975   -2.510968    0.015910
 N    0.268499    2.464679    0.189849
 N   -0.394726    0.376505   -0.666323
 C   -1.400968   -0.396168   -1.400538
 C    1.845256    0.701292    0.106529
 C    1.602930    2.091302    0.467897
 C   -0.725687    1.692618   -0.323654
 C    0.891649   -0.072001   -0.432639
 N   -3.680766    0.192556   -0.470679
 O    2.399539    2.850634    0.950341
 O   -3.156936   -1.185762    1.696820
 O   -1.168694   -1.970773    0.963730
 H    3.280102   -1.089390   -1.429095
 H    1.214391   -1.888297   -1.660579
 H    1.030486   -2.163895    0.090101
 H    3.257980   -0.341728    1.379564
 H    4.018888    0.472688   -0.006424
 H   -3.076072   -1.709624   -1.117386
 H    3.203486   -2.749004    1.002950
 H    4.667533   -2.292520    0.081721
 H    3.430150   -3.337850   -0.674467
 H    0.006069    3.418357    0.426796
 H   -1.737516    0.188238   -2.262543
 H   -0.918667   -1.290825   -1.789918
 H   -4.280658    0.226241   -1.300752
 H   -3.190963    1.122697   -0.384647
 H   -4.277809    0.030010    0.349427
 H   -2.914035   -1.582405    2.554046
