34 
6f28_ligand_xtb.xyz
 O   -1.948509    1.988260   -0.431248
 N    2.916820   -1.265127   -0.499348
 C    1.453105   -1.434442   -0.760942
 C    3.089193    0.000698    0.285584
 C   -2.091442   -1.347064    0.849635
 C   -2.578257   -0.952195   -0.565735
 C    3.535607   -2.437704    0.144120
 N    0.176785    2.422373    0.174610
 N   -0.410768    0.343847   -0.739536
 C   -1.400017   -0.468067   -1.440479
 C    1.801205    0.728362    0.066041
 C    1.526099    2.108745    0.442601
 C   -0.783397    1.626741   -0.332247
 C    0.875292   -0.065596   -0.506005
 N   -3.650881    0.066612   -0.486635
 O    2.281334    2.898107    0.918236
 O   -3.040920   -1.180794    1.740595
 O   -0.984348   -1.755994    1.047504
 H    3.385811   -1.128703   -1.400569
 H    1.292540   -1.806955   -1.774002
 H    1.024344   -2.144767   -0.043930
 H    3.222781   -0.229908    1.347199
 H    3.957642    0.573657   -0.045061
 H   -2.980477   -1.871070   -1.011072
 H    3.065192   -2.622344    1.108572
 H    4.598654   -2.259864    0.299480
 H    3.420620   -3.320566   -0.482642
 H   -0.114081    3.365698    0.429832
 H   -1.801789    0.120031   -2.272938
 H   -0.890296   -1.337851   -1.849766
 H   -4.284317    0.043885   -1.292147
 H   -3.139907    1.027219   -0.461375
 H   -4.205034   -0.057455    0.371977
 H   -2.800155   -1.478442    2.636668
