39 
6f2n_ligand_dft.xyz
 C    3.252773   -0.618426    1.462317
 C    4.202848   -1.615175    1.265114
 C    4.108752   -2.442327    0.152271
 C    3.068947   -2.265926   -0.756046
 C    2.112146   -1.267504   -0.576853
 C    0.987908   -1.093087   -1.579913
 C   -0.393114   -1.206377   -0.967750
 C   -1.353362   -0.247103   -1.184878
 C   -2.639471   -0.328936   -0.585456
 C   -3.625753    0.675343   -0.775880
 C   -4.849735    0.574925   -0.167295
 C   -5.149145   -0.532996    0.660546
 C    1.227391    1.843603    0.246094
 O    0.331602    4.045847    0.467898
 C    0.144616    2.856156    0.517992
 C   -4.214964   -1.514888    0.866553
 C   -2.937414   -1.437947    0.254321
 C   -1.937126   -2.425114    0.454561
 C   -0.705872   -2.312003   -0.133996
 C    1.199924    0.623676    0.797842
 C    2.210091   -0.435865    0.553471
 O   -1.066772    2.365314    0.820440
 S    2.540804    2.370425   -0.815493
 H    3.319255    0.035773    2.326851
 H    5.011174   -1.742499    1.978430
 H    4.842484   -3.225802   -0.011535
 H    2.998782   -2.915418   -1.625060
 H    1.097316   -1.851494   -2.364741
 H    1.083635   -0.119407   -2.075289
 H   -1.128305    0.608316   -1.820121
 H   -3.390562    1.529353   -1.405390
 H   -5.595192    1.349903   -0.316358
 H   -6.123129   -0.599188    1.135644
 H   -4.439661   -2.365308    1.505101
 H   -2.161462   -3.275323    1.093697
 H    0.055446   -3.066350    0.046080
 H    0.390088    0.371719    1.480946
 H   -1.121410    1.418969    0.610683
 H    2.133406    3.650495   -0.835838
