39 
6f2n_ligand_xtb.xyz
 C    3.430730    0.065508    1.498639
 C    4.673847   -0.449684    1.195926
 C    4.867642   -1.092376   -0.015635
 C    3.811742   -1.224738   -0.896597
 C    2.553703   -0.703449   -0.615222
 C    1.442652   -0.926564   -1.608169
 C    0.097926   -1.153324   -0.977999
 C   -1.018430   -0.493468   -1.421360
 C   -2.265972   -0.647679   -0.783942
 C   -3.409491    0.068190   -1.194372
 C   -4.596612   -0.077781   -0.533973
 C   -4.698160   -0.950042    0.560960
 C    0.435944    1.545031    0.348472
 O   -1.290191    3.159016    0.399830
 C   -0.864805    2.108954    0.809968
 C   -3.609032   -1.660040    0.981801
 C   -2.367855   -1.526622    0.326620
 C   -1.215909   -2.232099    0.736937
 C   -0.019426   -2.049932    0.103998
 C    1.097085    0.573951    1.001326
 C    2.370225   -0.024786    0.595647
 O   -1.553875    1.388794    1.697558
 S    1.044114    2.319785   -1.104484
 H    3.271019    0.573529    2.439226
 H    5.485549   -0.354294    1.901145
 H    5.834521   -1.502468   -0.265853
 H    3.961597   -1.749463   -1.829655
 H    1.699440   -1.796005   -2.221429
 H    1.385329   -0.063146   -2.277930
 H   -0.949903    0.185726   -2.259803
 H   -3.324970    0.741755   -2.035006
 H   -5.466282    0.479373   -0.848658
 H   -5.645183   -1.053414    1.069591
 H   -3.681026   -2.332642    1.825078
 H   -1.297320   -2.921122    1.566336
 H    0.858974   -2.588369    0.430888
 H    0.734433    0.246643    1.971078
 H   -1.182333    0.507207    1.842962
 H    0.068021    3.233336   -1.093477
