27 
6f34_ligand_xtb.xyz
 N    0.708389   -1.155173    0.353109
 C    1.509162   -0.167551   -0.374891
 C    2.994880   -0.345067   -0.041195
 O    3.375502   -1.053738    0.849410
 C    1.107739    1.275605   -0.034653
 C   -0.361051    1.577150   -0.342447
 C   -1.288138    1.227395    0.834324
 N   -2.606961    0.807272    0.399066
 C   -2.876619   -0.401222   -0.090565
 N   -4.131056   -0.669560   -0.480252
 N   -1.937068   -1.322614   -0.190181
 O    3.779756    0.371783   -0.830428
 H   -2.193469   -2.238695   -0.518209
 H    1.008910   -2.084932    0.067255
 H    0.950419   -1.091552    1.341872
 H    1.374705   -0.333406   -1.448724
 H    1.745144    1.930713   -0.627911
 H    1.312955    1.475669    1.018529
 H   -0.465773    2.635018   -0.580555
 H   -0.663894    1.012389   -1.225126
 H   -1.417691    2.094331    1.481740
 H   -0.855534    0.425682    1.433313
 H   -3.331223    1.507436    0.364351
 H   -4.871680    0.000369   -0.365631
 H   -4.384675   -1.583171   -0.814697
 H   -0.916693   -1.169856    0.047502
 H    4.717475    0.258312   -0.601189
