58 
6f3e_ligand_xtb.xyz
 C    2.087230   -1.602151    0.060339
 C    2.686744   -0.346261   -0.158159
 C    2.207426    0.982290   -0.277255
 C    1.200035    3.090107   -0.699680
 C    0.874919    1.664856   -0.187515
 C    0.373036    1.636202    1.273274
 C   -0.971452    2.303724    1.414875
 C    0.110473   -2.897192    0.450244
 C   -0.731555   -3.290998   -0.773711
 C   -2.133990   -2.656199   -0.739277
 C   -2.005556   -1.335219    0.009400
 C   -1.819657   -1.631898    1.498786
 C   -0.776807   -2.751261    1.685117
 C   -4.095187    1.374308   -1.650458
 C   -3.128026    0.187523   -1.599631
 O   -2.023561    1.798958    1.021238
 N   -0.966286    3.513446    1.979894
 C    2.727514    3.283422   -0.573531
 C    3.209250    1.878694   -0.474516
 C    4.093487   -0.391684   -0.292423
 S    4.790775    1.183525   -0.545154
 N    4.804447   -1.506011   -0.230204
 C    4.121944   -2.606345   -0.030477
 N    2.802986   -2.705110    0.117960
 O    0.754948   -1.635413    0.216154
 N   -3.092495   -0.335270   -0.214308
 O   -5.385616    0.976685   -1.266626
 C   -5.389851    0.467435    0.041150
 C   -4.460020   -0.745051    0.165385
 H    0.919764    3.158659   -1.750549
 H    0.646283    3.855672   -0.159428
 H    0.123849    1.183719   -0.820840
 H    1.108866    2.123599    1.912021
 H    0.289924    0.589870    1.572236
 H    0.893764   -3.641167    0.620287
 H   -0.817596   -4.375380   -0.812800
 H   -0.196667   -2.969546   -1.668329
 H   -2.487672   -2.520225   -1.760271
 H   -2.833097   -3.314727   -0.222467
 H   -1.101050   -0.837166   -0.350567
 H   -1.502335   -0.725505    2.014564
 H   -2.756637   -1.958672    1.949339
 H   -1.269969   -3.708600    1.848747
 H   -0.159458   -2.543561    2.558210
 H   -4.178337    1.754339   -2.669199
 H   -3.724499    2.173891   -0.991632
 H   -3.478334   -0.595542   -2.274178
 H   -2.128114    0.505098   -1.895367
 H   -1.835739    4.010360    2.102039
 H   -0.126849    3.935952    2.337655
 H    2.998934    3.846171    0.323201
 H    3.146211    3.810425   -1.429745
 H    4.677969   -3.530430    0.022278
 H   -2.793553    0.485182    0.381281
 H   -6.419157    0.179058    0.257099
 H   -5.072670    1.242470    0.755587
 H   -4.473835   -1.108597    1.191170
 H   -4.788844   -1.538788   -0.509024
