42 
6f3f_ligand_dft.xyz
 P   -0.427790   -2.211224    0.955549
 O   -0.779879   -3.329896    2.033994
 O   -1.087900   -2.816445   -0.334012
 O   -0.713366   -0.815662    1.328836
 P    2.182252   -1.826532   -0.287297
 O    3.556251   -2.589199    0.021768
 O    1.741881   -1.894385   -1.691034
 O    1.188302   -2.472092    0.791729
 O    2.432785   -0.383299    0.331705
 C    3.324543    0.510988   -0.358137
 C    2.706542    1.889293   -0.477578
 O    1.591310    1.832136   -1.374784
 C    2.196770    2.520114    0.822221
 O    2.414034    3.907899    0.751323
 C    0.695508    2.227029    0.783294
 O    0.012805    3.227501    1.487539
 C    0.421862    2.247829   -0.735489
 N   -0.649132    1.321618   -1.092041
 C   -0.552239    0.161456   -1.800058
 N   -1.650486   -0.564161   -1.758737
 C   -2.515297    0.171697   -0.969366
 C   -3.792162   -0.087778   -0.442465
 N   -4.495621   -1.198117   -0.753458
 N   -4.337765    0.805206    0.396843
 C   -3.629386    1.886593    0.728422
 N   -2.407040    2.232055    0.324649
 C   -1.901541    1.333690   -0.531327
 H   -0.698653   -2.977498    2.930537
 H   -1.261994   -2.118309   -1.031203
 H    3.692535   -3.312720   -0.605772
 H    4.255368    0.558949    0.214133
 H    3.536674    0.134540   -1.363503
 H    3.462579    2.553032   -0.911578
 H    2.677010    2.083132    1.708090
 H    1.653198    4.309343    1.202477
 H    0.481658    1.222648    1.167731
 H   -0.941015    3.106735    1.301391
 H    0.129463    3.254577   -1.057801
 H    0.361811   -0.129544   -2.295262
 H   -5.319353   -1.395480   -0.206895
 H   -4.033316   -1.963987   -1.216957
 H   -4.109999    2.566801    1.426430
