42 
6f3f_ligand_xtb.xyz
 P    0.460775   -2.073086   -0.903231
 O    0.981316   -3.002034   -2.067879
 O    1.103877   -2.721543    0.352534
 O    0.626236   -0.638237   -1.124557
 P   -2.101916   -1.887001    0.201951
 O   -3.431147   -2.717544   -0.061366
 O   -1.643917   -1.918002    1.586461
 O   -1.108011   -2.506406   -0.870562
 O   -2.427407   -0.467183   -0.423280
 C   -3.315291    0.359939    0.324302
 C   -2.745094    1.767840    0.514369
 O   -1.661777    1.743520    1.436757
 C   -2.236209    2.417527   -0.783305
 O   -2.598554    3.769217   -0.815539
 C   -0.712825    2.242833   -0.690044
 O   -0.056556    3.318641   -1.291512
 C   -0.476615    2.174789    0.839566
 N    0.603734    1.264712    1.130194
 C    0.577936    0.111769    1.842669
 N    1.681193   -0.581917    1.752748
 C    2.498476    0.150568    0.923967
 C    3.771833   -0.058439    0.369411
 N    4.537876   -1.124718    0.664489
 N    4.253054    0.862384   -0.471090
 C    3.516694    1.916815   -0.766543
 N    2.304929    2.219300   -0.332010
 C    1.821767    1.307510    0.515003
 H    0.911976   -2.558955   -2.912692
 H    1.320292   -2.043450    1.056242
 H   -3.471877   -3.488197    0.504547
 H   -4.263247    0.416835   -0.216978
 H   -3.479341   -0.077924    1.312294
 H   -3.534265    2.397436    0.945343
 H   -2.640135    1.897646   -1.661374
 H   -1.844415    4.247599   -1.194290
 H   -0.418140    1.282901   -1.130121
 H    0.904083    3.167586   -1.168279
 H   -0.199005    3.174996    1.219931
 H   -0.278247   -0.189852    2.410696
 H    5.381290   -1.260012    0.135089
 H    4.127885   -1.893570    1.163908
 H    3.958239    2.619605   -1.460232
