50 
6f3g_ligand_xtb.xyz
 C   -4.261903   -2.844176    0.812513
 C   -3.158002   -1.970325    0.224342
 C   -2.788457   -2.439364   -1.185642
 C   -3.464512    1.679490   -0.041999
 C   -1.637497    2.925258   -0.296465
 C   -1.288794    0.664355   -0.092705
 C    1.032397   -0.019920   -0.200560
 C    1.846576   -1.182948   -0.765259
 C    3.307320   -0.759913   -0.936747
 C    3.068213    0.821501    1.001098
 C    1.606583    0.405808    1.158922
 C    5.710187    0.947392   -0.689022
 C   -2.673868    0.493903    0.026213
 N   -3.530228   -0.567953    0.193984
 C   -4.803454   -0.076955    0.205422
 C   -4.813149    1.280558    0.076456
 N   -2.937345    2.900135   -0.200326
 N   -0.798434    1.890456   -0.249167
 N   -0.364854   -0.362610   -0.135387
 C    3.866857   -0.343863    0.420338
 N    5.340157   -0.000690    0.378245
 C    6.195475   -1.199667    0.315570
 H   -4.597208   -2.453219    1.770178
 H   -5.110055   -2.912265    0.136885
 H   -3.876136   -3.848601    0.967892
 H   -2.283380   -2.059426    0.884122
 H   -3.657651   -2.369623   -1.835172
 H   -1.997261   -1.820447   -1.602345
 H   -2.454669   -3.473434   -1.163256
 H   -1.169748    3.892743   -0.424799
 H    1.085585    0.839385   -0.877071
 H    1.438665   -1.479805   -1.730704
 H    1.781547   -2.042573   -0.094173
 H    3.336670    0.075932   -1.635311
 H    3.873943   -1.591904   -1.356849
 H    3.472271    1.114106    1.973725
 H    3.101928    1.685808    0.337297
 H    1.522238   -0.416427    1.873502
 H    1.024819    1.247933    1.531422
 H    5.632223    0.463733   -1.659729
 H    5.059762    1.818196   -0.668189
 H    6.737554    1.278460   -0.547733
 H   -5.645396   -0.730214    0.313740
 H   -5.667602    1.923967    0.064209
 H   -0.591091   -1.207033    0.364969
 H    3.781484   -1.193209    1.107315
 H    5.527818    0.467840    1.272455
 H    6.021363   -1.730510   -0.617868
 H    7.244993   -0.914645    0.361827
 H    5.978445   -1.866932    1.147361
