49 
6f3g_ligand_dft.xyz
 C  -28.900828  -16.491191  -12.690007
 C  -27.578495  -15.948886  -12.152268
 C  -27.411355  -14.460915  -12.477211
 C  -26.573777  -16.443361   -8.641707
 C  -24.410197  -16.608138   -8.119525
 C  -24.879689  -16.270166  -10.350344
 C  -22.991488  -15.937314  -11.913030
 C  -22.827903  -15.168316  -13.225057
 C  -21.350152  -14.995381  -13.584758
 C  -20.795286  -17.108432  -12.335759
 C  -22.273847  -17.288960  -11.985014
 C  -18.366764  -15.460386  -13.287630
 C  -26.251203  -16.288257  -10.003161
 N  -27.436937  -16.185477  -10.715405
 C  -28.468412  -16.246266   -9.808186
 C  -27.993255  -16.407638   -8.536552
 N  -25.645958  -16.609636   -7.669453
 N  -23.979577  -16.444062   -9.385164
 N  -24.413137  -16.102350  -11.629022
 C  -20.630050  -16.356032  -13.660647
 N  -19.231703  -16.305333  -14.089437
 C  -19.076020  -16.012528  -15.500116
 H  -29.049892  -17.533165  -12.393642
 H  -29.754135  -15.899067  -12.343710
 H  -28.890592  -16.439967  -13.782587
 H  -26.782974  -16.527901  -12.632403
 H  -26.468395  -14.065646  -12.084787
 H  -27.435606  -14.295407  -13.559434
 H  -28.223275  -13.886054  -12.019644
 H  -23.621564  -16.749515   -7.383213
 H  -22.539483  -15.354546  -11.099245
 H  -23.315196  -14.187529  -13.146938
 H  -23.337341  -15.721462  -14.029020
 H  -20.868340  -14.369509  -12.821780
 H  -21.261984  -14.460442  -14.537391
 H  -20.291862  -18.077457  -12.410704
 H  -20.306942  -16.555319  -11.522296
 H  -22.770286  -17.906721  -12.746232
 H  -22.383946  -17.799012  -11.024215
 H  -18.467112  -15.703244  -12.226694
 H  -17.324851  -15.645457  -13.570913
 H  -18.558890  -14.378413  -13.413837
 H  -29.492473  -16.182530  -10.144753
 H  -28.576184  -16.504462   -7.633099
 H  -25.037315  -15.664930  -12.285876
 H  -21.146947  -16.954373  -14.425896
 H  -18.030829  -16.168221  -15.789832
 H  -19.694251  -16.695218  -16.092518
 H  -19.345302  -14.975407  -15.777889
