16 
6f4n_ligand_xtb.xyz
 C    2.449387    0.417681   -0.009336
 O    3.524110   -0.355038   -0.002358
 O    2.457203    1.613863   -0.031209
 C    1.151650   -0.431140    0.012022
 O    1.274883   -1.636789    0.025699
 C   -0.128234    0.323852    0.012812
 C   -1.347746   -0.590908   -0.009326
 C   -2.643898    0.203337    0.002287
 O   -3.757182   -0.548724   -0.033979
 O   -2.701870    1.395063    0.040819
 H    3.236218   -1.293447    0.014148
 H   -0.130102    1.005062   -0.842862
 H   -0.143028    0.974702    0.892246
 H   -1.328969   -1.253427    0.861169
 H   -1.322179   -1.219458   -0.904430
 H   -3.576058   -1.497364   -0.062795
