72 
6f5h_ligand_xtb.xyz
 N    1.986467    0.788691   -0.190445
 C    1.979929    2.930960   -1.213473
 O   -0.145156    3.907853   -1.528236
 O   -0.818683   -1.263201    1.405359
 C   -1.992562   -0.898526    1.417427
 C   -3.106841   -1.771422    0.878261
 C   -2.559842   -2.933293    0.036019
 C   -3.710132   -3.800870   -0.478187
 C   -1.730797   -2.436020   -1.123411
 C   -2.193993   -1.442842   -1.979300
 C   -1.415160   -0.988998   -3.030259
 C   -0.159883   -1.528295   -3.250779
 C    0.296532   -2.544055   -2.428482
 C   -0.484000   -2.993584   -1.377740
 N   -2.336617    0.303572    1.920109
 C   -1.315789    1.234664    2.365389
 C   -1.478049    2.599963    1.678936
 C   -3.628785    0.944620    1.821437
 C   -3.643290    1.887892    0.610269
 C   -2.256980    2.522890    0.347425
 O   -2.513665    3.812513   -0.134457
 C   -1.503595    1.679616   -0.724376
 N   -0.055719    1.783860   -0.696397
 C    0.556521    2.975780   -1.193610
 C    0.686981    0.781886   -0.247394
 C    2.667668    1.864622   -0.696291
 N    4.028021    1.786149   -0.717843
 C    4.844477    1.037482    0.219087
 C    4.775238   -0.484562    0.030844
 N    3.566297   -1.052630    0.641222
 C    3.588247   -1.174885    2.110503
 C    2.367502   -2.036625    2.431352
 C    2.101115   -2.836721    1.143979
 C    3.200860   -2.402698    0.176700
 H    2.486239    3.790726   -1.618735
 H   -3.795239   -1.179263    0.276918
 H   -3.664673   -2.175764    1.726765
 H   -1.916550   -3.543240    0.677584
 H   -4.372665   -3.222783   -1.118198
 H   -3.319721   -4.633718   -1.057380
 H   -4.289084   -4.198848    0.351561
 H   -3.183033   -1.028117   -1.846595
 H   -1.795090   -0.219842   -3.686295
 H    0.445721   -1.176349   -4.072382
 H    1.255781   -3.004009   -2.621060
 H   -0.131209   -3.802541   -0.754840
 H   -1.398158    1.355761    3.451311
 H   -0.343834    0.787733    2.151705
 H   -2.042042    3.282608    2.315585
 H   -0.501353    3.057739    1.511540
 H   -4.431163    0.212862    1.759553
 H   -3.774713    1.515626    2.742052
 H   -3.973650    1.367311   -0.288839
 H   -4.338428    2.708148    0.785845
 H   -1.743755    4.145428   -0.631842
 H   -1.750148    0.623182   -0.624541
 H   -1.844326    2.035602   -1.701917
 H    0.190672   -0.111587    0.115851
 H    4.472869    2.597895   -1.117891
 H    4.582027    1.290409    1.253791
 H    5.876560    1.347657    0.054226
 H    4.760884   -0.708100   -1.037869
 H    5.661149   -0.946941    0.473980
 H    2.757352   -0.327536    0.337417
 H    3.548470   -0.197382    2.587551
 H    4.512506   -1.677501    2.408890
 H    1.498933   -1.422808    2.661288
 H    2.559464   -2.680288    3.285755
 H    2.130111   -3.909709    1.313600
 H    1.117625   -2.576435    0.758617
 H    2.865481   -2.368306   -0.858751
 H    4.075655   -3.054313    0.251963
