45 
6f6i_ligand_dft.xyz
 F    0.465603    4.906547   -0.067254
 C    2.101168    3.329533   -0.648846
 C    0.288949    2.756676    0.857013
 C   -1.823120   -1.528973    1.370538
 C    2.598730    2.037578   -0.525635
 C    0.803587    1.470901    0.970381
 C   -3.157041   -1.231659    1.684338
 C   -2.146991   -0.852525   -0.953448
 C    4.392371   -1.881504    0.881220
 C    3.952220   -0.433907    0.728260
 C    2.601849   -2.587203   -0.745008
 C   -5.549303    0.170869   -0.573143
 C    0.653287   -1.119378   -1.222975
 N    4.065231   -2.644895   -0.380231
 O   -0.014356   -1.679380   -0.117159
 O   -5.266698   -0.395319    0.701173
 O   -4.430439   -0.087832   -1.424535
 C    0.950388    3.669114    0.048653
 C   -1.335922   -1.343595    0.081794
 C    1.963328    1.094871    0.287364
 C   -3.947573   -0.740685    0.670787
 C   -3.449385   -0.556713   -0.612609
 C    2.145787   -1.138238   -0.895081
 C    2.457888   -0.332705    0.388275
 H    2.588407    4.069829   -1.273275
 H   -0.611700    3.054839    1.381398
 H   -1.153373   -1.913849    2.131968
 H    3.496805    1.775839   -1.080426
 H    0.278664    0.744636    1.585548
 H   -3.549090   -1.380725    2.683455
 H   -1.798304   -0.718403   -1.969851
 H    3.854029   -2.386285    1.687839
 H    5.466189   -1.984672    1.050904
 H    4.160138    0.083638    1.669114
 H    4.566406    0.056508   -0.038087
 H    2.478731   -3.159215   -1.667979
 H    2.054846   -3.084961    0.059360
 H   -6.438466   -0.301577   -0.994524
 H   -5.683737    1.254615   -0.473288
 H    0.448127   -1.692754   -2.139138
 H    0.340142   -0.082972   -1.390659
 H    4.615245   -2.255613   -1.152719
 H    4.358891   -3.620926   -0.282738
 H    2.670361   -0.680506   -1.747150
 H    1.901276   -0.816586    1.200060
