68 
6f6r_ligand_dft.xyz
 C    3.934278    0.470319   -1.022149
 C    5.707227    1.542161    0.318300
 N    4.882990    2.643147    0.416318
 C    5.997007   -0.759313   -0.489947
 C    6.638644   -0.912522   -1.863244
 C    5.226267   -2.024766   -0.068905
 O    6.822860    1.501725    0.803079
 C    5.372608    3.805970    1.150822
 O    3.563359   -0.468878   -1.729058
 C    3.585927    2.654165   -0.048640
 C    3.083996    1.611964   -0.739331
 N    5.166964    0.457399   -0.394053
 N    4.240856   -1.851395    0.848957
 O    5.555394   -3.118624   -0.497684
 N    1.759648    1.437723   -1.141398
 C    0.687316    2.033090   -0.528149
 C   -0.616615    1.318964   -0.669796
 O    0.788432    3.082183    0.092001
 C   -1.789344    2.072946   -0.584272
 C   -3.034006    1.469906   -0.666862
 C   -3.132906    0.076218   -0.785684
 C   -1.958638   -0.682735   -0.857518
 C   -0.714923   -0.069845   -0.814283
 N   -4.357298   -0.590348   -0.871736
 C   -5.594326   -0.224826   -0.377234
 C   -5.735222    0.688218    0.723412
 N   -6.898515    1.002674    1.216291
 N   -6.630138   -0.823912   -0.914840
 C   -7.854911   -0.515193   -0.405074
 C   -7.997461    0.417543    0.652105
 C   -9.283356    0.728313    1.149932
 C  -10.391041    0.125788    0.607700
 C  -10.250197   -0.808955   -0.444879
 C   -9.011246   -1.127225   -0.943965
 C    3.290629   -2.909907    1.165367
 C    2.494809   -3.361423   -0.069899
 O    0.266034   -1.319632    1.992409
 C    1.587239   -1.170241    1.897118
 C    2.357078   -2.414439    2.282452
 O    2.107552   -0.117062    1.579198
 O    1.755420   -2.306723   -0.646000
 H    6.782995   -0.612140    0.254330
 H    7.258437   -1.810466   -1.868378
 H    7.266008   -0.041625   -2.073139
 H    5.878134   -1.012897   -2.639695
 H    5.162281    4.711637    0.577658
 H    6.445860    3.694010    1.288364
 H    4.885840    3.869786    2.128352
 H    2.988006    3.520173    0.197023
 H    3.929128   -0.914590    1.073930
 H    1.617119    0.585811   -1.667735
 H   -1.708387    3.148579   -0.466968
 H   -3.929153    2.082442   -0.661116
 H   -2.021476   -1.764744   -0.926888
 H    0.164781   -0.709944   -0.830311
 H   -4.396355   -1.407851   -1.465124
 H   -4.857794    1.122111    1.195221
 H   -9.355754    1.446126    1.960583
 H  -11.380522    0.360086    0.987533
 H  -11.136046   -1.278216   -0.862317
 H   -8.883906   -1.840928   -1.751327
 H    3.845448   -3.777024    1.541101
 H    1.776691   -4.130292    0.233743
 H    3.187664   -3.802627   -0.793908
 H   -0.141935   -0.490531    1.686311
 H    1.660747   -3.208867    2.557285
 H    2.955448   -2.160011    3.164472
 H    2.389771   -1.733979   -1.111602
