49 
6f6s_ligand_xtb.xyz
 C    5.416086    0.074964    0.004733
 N    4.059416   -0.474109   -0.117486
 C    3.217117   -0.296257    1.104383
 C    2.782056    1.167407    1.023200
 C    2.787364    1.495341   -0.479813
 C    3.222368    0.195300   -1.158926
 C    2.048230   -1.273081    1.000450
 C    1.172606   -1.011531   -0.237024
 C    2.053238   -0.734517   -1.475674
 O    0.310688    0.062091    0.047302
 C   -0.944084    0.025542   -0.632083
 C   -1.771862   -1.176225   -0.223345
 C   -1.991884   -1.434184    1.123971
 C   -2.758396   -2.518127    1.509900
 C   -3.317148   -3.349254    0.552828
 C   -3.103520   -3.095033   -0.790892
 C   -2.329757   -2.014562   -1.178416
 C   -2.729078    1.695649   -1.160859
 C   -3.482168    2.816026   -0.862123
 C   -3.226950    3.537630    0.292286
 C   -2.217978    3.130999    1.147239
 C   -1.467822    2.005630    0.852949
 C   -1.715240    1.283971   -0.305072
 H    5.952938   -0.434973    0.802717
 H    5.959124   -0.063934   -0.928534
 H    5.370950    1.136408    0.232183
 H    4.133735   -1.472606   -0.333864
 H    3.808858   -0.514410    1.996132
 H    1.786367    1.284611    1.439911
 H    3.460962    1.813295    1.577457
 H    3.473394    2.308548   -0.710933
 H    1.796261    1.787312   -0.816310
 H    3.819168    0.366552   -2.057959
 H    2.423296   -2.298833    0.973718
 H    1.420433   -1.174859    1.885680
 H    0.571415   -1.912466   -0.430579
 H    1.438781   -0.273802   -2.249353
 H    2.427472   -1.679628   -1.876704
 H   -0.771246   -0.013786   -1.720022
 H   -1.564012   -0.775223    1.864945
 H   -2.927040   -2.710442    2.558589
 H   -3.921009   -4.191314    0.853937
 H   -3.538536   -3.738486   -1.540327
 H   -2.164404   -1.819527   -2.229105
 H   -2.932309    1.132182   -2.060036
 H   -4.269678    3.126380   -1.531708
 H   -3.814621    4.412387    0.524815
 H   -2.016195    3.687823    2.050021
 H   -0.684584    1.686695    1.523040
