63 
6f7b_ligand_xtb.xyz
 C   -3.713323   -0.999289   -0.437082
 C    1.665394    0.831530    3.109556
 C   -1.645798   -1.883627   -0.064716
 C    0.117369   -0.685854    1.394670
 C   -0.306163   -1.670162    0.447257
 C    1.506962   -0.918390    1.533489
 C   -0.498420    0.312289    2.149268
 C    0.288043    1.061827    2.991868
 N   -1.952736   -3.069192   -0.561347
 C   -4.142141   -2.247775   -0.968823
 C   -7.972311    2.274303   -0.042206
 O   -6.795581    1.509958   -0.143204
 C   -5.599091    2.137207    0.096178
 C   -5.439277    3.466245    0.450355
 N   -4.257163    4.026328    0.668862
 C   -3.178346    3.279751    0.530334
 C   -3.207732    1.939956    0.176949
 C   -4.441387    1.337266   -0.036342
 N   -4.618087    0.019144   -0.395887
 N   -2.482765   -0.842680    0.012898
 O   -5.441375   -2.326809   -1.390856
 C   -5.878806   -3.558873   -1.914914
 C   -3.191554   -3.247849   -1.006333
 N    0.722820   -2.402750    0.069902
 C    2.296748   -0.159143    2.393779
 N    1.801021   -1.960931    0.708624
 C    3.087655   -2.548643    0.449922
 C    4.108567   -1.507873    0.069022
 C    5.342843   -1.409715    0.704838
 C    6.277438   -0.446425    0.397790
 F    5.640376   -2.297736    1.675752
 C    3.871946   -0.557576   -0.917221
 F    2.703161   -0.589047   -1.579276
 C    4.774673    0.432210   -1.259162
 C    5.995030    0.494338   -0.594775
 O    6.965474    1.407643   -0.830083
 C    6.793590    2.373393   -1.846178
 C    5.758581    3.459333   -1.505271
 O    4.669857    3.332399   -2.393685
 H    2.241564    1.443559    3.788187
 H   -1.560253    0.477293    2.068932
 H   -0.160082    1.845320    3.585161
 H   -8.109999    2.665681    0.970380
 H   -7.973593    3.103988   -0.755749
 H   -8.786847    1.591450   -0.279471
 H   -6.285180    4.127938    0.572918
 H   -2.236913    3.780341    0.710482
 H   -2.306201    1.364129    0.063375
 H   -5.564205   -0.234254   -0.651232
 H   -5.309000   -3.837587   -2.806389
 H   -5.803333   -4.357768   -1.171013
 H   -6.923272   -3.409564   -2.183477
 H   -3.399942   -4.233947   -1.398847
 H    3.354593   -0.343214    2.501095
 H    2.934535   -3.258969   -0.368498
 H    3.438709   -3.094492    1.333050
 H    7.219465   -0.412288    0.918662
 H    4.496728    1.138700   -2.024080
 H    6.500613    1.903981   -2.792079
 H    7.785637    2.813595   -1.960315
 H    6.213393    4.452628   -1.605352
 H    5.433679    3.328541   -0.463967
 H    4.006506    4.000287   -2.192335
