63 
6f7b_ligand_dft.xyz
 C   -3.579937   -1.003493   -0.540120
 C    1.276472    1.066823    3.644254
 C   -1.534826   -1.811229    0.077490
 C   -0.002817   -0.521476    1.754062
 C   -0.265975   -1.527675    0.766200
 C    1.360380   -0.690482    2.058907
 C   -0.745820    0.459794    2.432461
 C   -0.096975    1.243856    3.364869
 N   -1.712059   -3.006281   -0.466268
 C   -3.871725   -2.250261   -1.149026
 C   -8.055875    1.916349   -0.614703
 O   -6.803889    1.266148   -0.576779
 C   -5.725289    1.984416   -0.155724
 C   -5.748750    3.307145    0.260133
 N   -4.659291    3.975416    0.661468
 C   -3.506813    3.314435    0.639565
 C   -3.363753    1.987494    0.237366
 C   -4.498249    1.286915   -0.161949
 N   -4.541015   -0.029143   -0.601747
 N   -2.422956   -0.798673    0.066196
 O   -5.092795   -2.358244   -1.733720
 C   -5.411765   -3.593534   -2.340998
 C   -2.888302   -3.212571   -1.081649
 N    0.823091   -2.226664    0.505732
 C    2.027316    0.100719    3.005810
 N    1.799685   -1.728392    1.283430
 C    3.150893   -2.244274    1.168636
 C    4.110364   -1.256333    0.554256
 C    5.098091   -0.600768    1.284181
 C    5.971638    0.321732    0.744031
 F    5.215424   -0.885594    2.596924
 C    4.048626   -0.909478   -0.792349
 F    3.114616   -1.500448   -1.545849
 C    4.884337    0.013836   -1.398809
 C    5.859322    0.631270   -0.614097
 O    6.743148    1.551732   -1.069375
 C    7.036877    1.659013   -2.454134
 C    6.261104    2.764858   -3.143649
 O    4.941658    2.330274   -3.391599
 H    1.751846    1.703793    4.384437
 H   -1.802067    0.586687    2.225896
 H   -0.650482    2.009804    3.899530
 H   -8.361253    2.248722    0.384991
 H   -8.036745    2.777497   -1.293986
 H   -8.768219    1.178051   -0.984090
 H   -6.680686    3.865457    0.279334
 H   -2.627972    3.868895    0.961032
 H   -2.396204    1.507226    0.236388
 H   -5.428453   -0.323615   -0.987247
 H   -4.715759   -3.824102   -3.156869
 H   -5.397754   -4.409896   -1.608358
 H   -6.418879   -3.482061   -2.742888
 H   -3.025861   -4.194641   -1.526526
 H    3.078650   -0.042455    3.228271
 H    3.067271   -3.141847    0.554082
 H    3.506105   -2.535321    2.160453
 H    6.730641    0.792515    1.355972
 H    4.721594    0.282671   -2.433875
 H    6.876513    0.702918   -2.965748
 H    8.103535    1.899218   -2.501070
 H    6.780562    3.009155   -4.084049
 H    6.284924    3.654943   -2.499999
 H    4.389889    3.095160   -3.585335
