47 
6f7c_ligand_xtb.xyz
 C    4.891203   -1.031488   -0.521544
 C   -1.562547    0.068415    0.837888
 C    4.128254   -2.153222   -0.904225
 C    2.762910   -2.080480   -0.964690
 C    2.067338    1.438801    0.057173
 C    5.046639    1.276273    0.209960
 C    6.410026    1.173680    0.254463
 C    7.046827   -0.026714   -0.088489
 C    6.299416   -1.105386   -0.465178
 C   -1.278288    2.551274    0.471145
 C   -2.034507    1.287943    0.362401
 N    0.796318    1.388989    0.147505
 N    0.096050    2.486378    0.428753
 C    4.240001    0.188421   -0.184721
 C    2.113722   -0.887443   -0.649451
 C   -2.347389   -1.062931    0.710174
 C   -3.620536   -1.002862    0.099429
 C   -4.090698    0.235329   -0.367229
 C   -3.296722    1.363493   -0.213443
 C   -5.827729    1.518922   -1.387348
 C    2.815046    0.239694   -0.258177
 C   -5.605932   -2.311993   -0.318842
 C   -0.749681   -2.451474    1.794084
 O   -1.802480    3.643948    0.580292
 O   -1.988613   -2.303251    1.145144
 O   -4.245451   -2.207192    0.032134
 O   -5.324439    0.273817   -0.968168
 H   -0.599701    0.018161    1.313449
 H    4.644018   -3.069970   -1.151551
 H    2.180509   -2.940042   -1.262232
 H    2.601670    2.380733    0.211863
 H    4.589931    2.213441    0.486520
 H    7.005345    2.022777    0.557010
 H    8.124170   -0.089910   -0.049856
 H    6.775094   -2.039522   -0.727830
 H    0.575290    3.388924    0.520129
 H    1.039077   -0.818155   -0.718799
 H   -3.631928    2.330666   -0.549014
 H   -5.927084    2.217216   -0.550915
 H   -5.200779    1.967428   -2.164150
 H   -6.813362    1.306250   -1.799558
 H   -6.238496   -1.696640    0.324756
 H   -5.780333   -2.039442   -1.361598
 H   -5.853048   -3.363466   -0.171284
 H    0.088095   -2.184440    1.141826
 H   -0.699042   -1.852477    2.709472
 H   -0.682279   -3.507196    2.052460
