61 
6f8r_ligand_xtb.xyz
 C   -0.193444   -0.680794   -0.969146
 C    1.018248   -1.471226   -0.880167
 C    5.041255   -1.209345    0.725045
 C    4.159444    1.733562    0.442621
 C    2.269128    1.212774    1.825885
 C    2.514419   -3.107425   -0.862844
 C    1.163526   -2.871141   -0.940161
 C   -3.734626    2.776811   -1.900256
 O   -3.736082    1.487491   -1.329868
 C   -2.565900    0.808278   -1.207678
 C   -2.595054   -0.473993   -0.604898
 O   -3.662639   -1.135541   -0.120231
 C   -4.953188   -0.549536    0.042892
 C   -5.892702   -1.682251    0.488797
 C   -6.048094   -1.498522    1.996179
 C   -6.067264    0.018894    2.148402
 C   -4.975561    0.487454    1.184893
 C   -1.404089   -1.186214   -0.506863
 C   -0.176060    0.584733   -1.547459
 C   -1.348594    1.307060   -1.660814
 N    2.228604   -0.915415   -0.771400
 N    3.129149   -1.915365   -0.750960
 C    4.523693   -1.595110   -0.692220
 O    6.192509   -0.412086    0.600760
 C    4.028705   -0.444429    1.598744
 N    3.294620    0.643576    0.928673
 C    3.293422    2.767859   -0.278373
 O    2.321910    3.297752    0.586978
 C    1.476075    2.291398    1.081485
 H    5.272627   -2.128495    1.282950
 H    4.656488    2.201148    1.297327
 H    4.923165    1.335186   -0.222059
 H    2.761117    1.652243    2.698714
 H    1.591686    0.422398    2.151866
 H    3.064529   -4.025931   -0.890608
 H    0.383196   -3.592777   -1.052554
 H   -3.394655    2.756070   -2.939534
 H   -3.118369    3.472003   -1.322443
 H   -4.772078    3.105360   -1.870349
 H   -5.278395   -0.120174   -0.907227
 H   -6.857544   -1.570358   -0.004262
 H   -5.472748   -2.649324    0.220028
 H   -6.947721   -1.973135    2.382202
 H   -5.183359   -1.914567    2.514644
 H   -5.882230    0.345526    3.170245
 H   -7.035825    0.408173    1.832351
 H   -4.004361    0.472266    1.684125
 H   -5.153384    1.494704    0.814639
 H   -1.453147   -2.159653   -0.045843
 H    0.739046    0.978186   -1.963295
 H   -1.311851    2.275230   -2.132681
 H    5.095329   -2.450124   -1.059342
 H    4.710601   -0.748952   -1.362867
 H    6.952841   -0.941520    0.338110
 H    4.590639   -0.035098    2.443754
 H    3.291211   -1.154304    1.980057
 H    2.734130    0.118377    0.042955
 H    3.905055    3.608968   -0.605968
 H    2.814434    2.305684   -1.155105
 H    0.903599    1.827286    0.263929
 H    0.783745    2.782096    1.766555
