64 
6f8v_ligand_xtb.xyz
 C    0.767030    1.654074    0.220035
 C   -0.513087    1.873724    0.871142
 C   -4.348096    1.689874   -0.414002
 C   -4.562926   -2.056690    0.235714
 C   -4.155509   -0.913174   -1.824815
 C   -2.194297    2.023108    2.296499
 C   -0.867136    1.679215    2.224407
 C   -1.642854   -0.752700   -1.502736
 C    4.653564    1.416517   -2.978396
 O    4.485895    1.090459   -1.622539
 C    3.246324    1.259407   -1.050252
 C    3.068539    0.862009    0.288694
 O    4.006740    0.317111    1.114182
 C    5.139648   -0.373168    0.609462
 C    4.750561   -1.596261   -0.247552
 C    5.479413   -2.786938    0.375266
 C    5.542389   -2.425649    1.855794
 C    5.890461   -0.939386    1.827597
 C    1.834426    1.071554    0.892945
 C    0.948457    2.013721   -1.111066
 C    2.167286    1.815738   -1.727823
 N   -1.570959    2.307826    0.189310
 N   -2.570833    2.398674    1.059086
 C   -3.887508    2.743617    0.597648
 C   -4.552862    0.361968    0.308662
 N   -4.491353   -0.768928   -0.428598
 C   -3.217857   -2.782484    0.095202
 O   -2.852672   -2.882098   -1.273960
 C   -2.802498   -1.643047   -1.954677
 O   -4.789143    0.328466    1.503536
 C   -3.290820   -4.198558    0.647992
 H   -5.290821    1.992499   -0.873417
 H   -3.576706    1.613962   -1.177983
 H   -5.353401   -2.654949   -0.231013
 H   -4.800661   -1.886064    1.285807
 H   -4.117362    0.046571   -2.332924
 H   -4.933144   -1.527001   -2.296722
 H   -2.885543    2.015253    3.114169
 H   -0.241782    1.345664    3.025879
 H   -1.494163    0.054609   -2.213791
 H   -1.830299   -0.314553   -0.526301
 H   -0.728712   -1.337988   -1.448373
 H    3.990749    0.828516   -3.622024
 H    4.488541    2.483214   -3.162065
 H    5.689587    1.171104   -3.209920
 H    5.771913    0.322744    0.049942
 H    3.670475   -1.738205   -0.174533
 H    5.005536   -1.453775   -1.295956
 H    4.964578   -3.728755    0.189980
 H    6.490276   -2.860939   -0.029828
 H    6.274798   -3.015218    2.405285
 H    4.563001   -2.569330    2.313317
 H    5.582620   -0.415959    2.730419
 H    6.963897   -0.806217    1.693184
 H    1.738305    0.761969    1.921152
 H    0.128827    2.459910   -1.650222
 H    2.279851    2.118899   -2.756720
 H   -4.559337    2.761843    1.457161
 H   -3.858571    3.728380    0.121499
 H   -2.452310   -2.211123    0.642268
 H   -2.651290   -1.927196   -3.002716
 H   -4.041605   -4.767760    0.106462
 H   -3.547553   -4.174409    1.702892
 H   -2.330112   -4.689030    0.522322
