26 
6f90_ligand_xtb.xyz
 C   -0.724110    1.017543    0.198536
 N    0.575644    0.695826    0.394382
 C   -1.223661   -1.372755   -0.216202
 C   -0.004028   -1.659026    0.671423
 C    1.125044   -0.632895    0.451056
 C    1.951023   -0.921293   -0.812306
 C    0.343225    2.857305    0.211991
 C    1.269094    1.875158    0.405350
 N   -0.896147    2.311416    0.085264
 O   -0.851280   -1.418107   -1.567438
 O   -2.758974    0.342657   -0.855726
 O   -0.466404   -1.642933    1.999896
 C   -1.813744    0.003077    0.137788
 O    3.192627   -0.266437   -0.671590
 H   -1.983792   -2.141027   -0.006905
 H    0.381375   -2.655434    0.408209
 H    1.820775   -0.682016    1.301805
 H    1.405128   -0.566733   -1.692738
 H    2.096882   -2.005546   -0.908341
 H    0.480855    3.918059    0.158145
 H    2.330480    1.899207    0.534033
 H   -1.555592   -0.951491   -2.043818
 H   -2.829177    1.306462   -0.852124
 H    0.254649   -1.886750    2.591942
 H   -2.305631   -0.068387    1.121598
 H    3.682768   -0.341164   -1.496270
