52 
6f96_ligand_dft.xyz
 C   -4.561074    5.590541   -0.196297
 O   -4.318526    4.462390    0.611695
 C   -3.211860    3.719845    0.350218
 C   -2.284268    4.001518   -0.652007
 C   -1.191111    3.157160   -0.837586
 C   -3.020697    2.602804    1.170223
 C   -1.918547    1.785478    0.996248
 C   -0.995861    2.046730   -0.023374
 N    0.159422    1.251785   -0.203053
 C    0.210808   -0.102724   -0.308440
 C   -0.948820   -0.893134   -0.344112
 C   -0.815198   -2.266997   -0.473877
 N   -1.892173   -3.147756   -0.503612
 C   -3.241681   -2.868250   -0.342491
 O   -3.694279   -1.743602   -0.204454
 N   -4.032941   -3.991118   -0.385880
 C   -5.448888   -3.879943   -0.069674
 C   -5.734977   -3.798520    1.427829
 N    0.360447   -2.909335   -0.606362
 C    1.446177   -2.152772   -0.569483
 C    1.471190   -0.769580   -0.390000
 C    2.745016   -0.013573   -0.334782
 O    2.829634    1.174452   -0.645737
 N    3.833061   -0.726818    0.107350
 C    5.167879   -0.304936    0.210127
 C    5.653847    0.926251   -0.234076
 C    7.009684    1.185672   -0.070851
 C    7.828313    0.231118    0.520184
 N    7.372197   -0.949016    0.947965
 C    6.078452   -1.197606    0.791068
 H   -3.751959    6.328166   -0.113408
 H   -4.688290    5.311759   -1.250529
 H   -5.487690    6.032015    0.172512
 H   -2.401443    4.860241   -1.302772
 H   -0.480560    3.366289   -1.632279
 H   -3.746886    2.400681    1.950138
 H   -1.768716    0.935620    1.654031
 H    1.037321    1.721681   -0.400441
 H   -1.934551   -0.455088   -0.303525
 H   -1.598122   -4.096802   -0.688964
 H   -3.600225   -4.884817   -0.203784
 H   -5.952954   -4.742191   -0.517568
 H   -5.817980   -2.983379   -0.571560
 H   -5.362630   -4.686408    1.951255
 H   -5.252615   -2.913807    1.852476
 H   -6.812364   -3.724856    1.608928
 H    2.379032   -2.693280   -0.727466
 H    3.643157   -1.635788    0.501858
 H    4.985817    1.647912   -0.681730
 H    7.425365    2.131510   -0.402747
 H    8.890790    0.414788    0.658838
 H    5.730483   -2.168850    1.146743
