48 
6fam_ligand_dft.xyz
 C   -0.928054   -0.357290    0.246658
 C   -1.609822   -1.705317    0.132374
 C   -3.124049   -1.442901    0.303561
 C   -3.638841   -0.389671   -0.694992
 C   -2.759062    0.867826   -0.711047
 C   -2.968565    1.833648    0.453962
 O   -1.124775   -2.504357    1.189211
 O   -3.377998   -0.966874    1.603729
 O   -3.576986   -0.910078   -2.003168
 O   -1.380556    0.470620   -0.805563
 O   -1.907624    2.806770    0.420359
 O    0.464928   -0.438955    0.111902
 C    1.203909    0.554545    0.777498
 C    1.658926    1.673304   -0.184010
 N    0.479773    2.296996   -0.847286
 C    2.453408   -0.088382    1.403776
 O    3.131383    0.963458    2.063562
 C    3.421344   -0.661885    0.363605
 C    3.025076   -1.876594   -0.477099
 O    4.001882   -1.902559   -1.498526
 N    3.777066    0.464332   -0.588792
 C    2.607238    1.118422   -1.252840
 H   -1.170180    0.082276    1.222800
 H   -1.404895   -2.131922   -0.856300
 H   -3.666164   -2.381539    0.114461
 H   -4.659950   -0.108996   -0.404372
 H   -2.945405    1.387387   -1.652897
 H   -3.934905    2.328873    0.315410
 H   -2.981949    1.317979    1.417594
 H   -1.348357   -3.427727    1.015186
 H   -3.013466   -1.610245    2.228448
 H   -4.361761   -1.445584   -2.172851
 H   -2.175108    3.561819    0.959530
 H    0.620007    1.004257    1.589909
 H    2.155003    2.449974    0.404051
 H   -0.109949    1.567647   -1.308745
 H    0.730899    3.040467   -1.504286
 H   -0.228258    2.674241   -0.169234
 H    2.126563   -0.885657    2.078430
 H    3.442003    0.686454    2.935177
 H    4.365139   -0.892639    0.865616
 H    3.065131   -2.759772    0.170571
 H    2.012202   -1.789719   -0.880254
 H    3.978901   -2.735865   -1.985448
 H    4.328055    1.157235   -0.070574
 H    4.375138    0.027397   -1.308902
 H    2.113679    0.356789   -1.861503
 H    2.998663    1.899159   -1.910006
