20 
6fba_ligand_dft.xyz
 O    2.896159   -1.397868   -0.000319
 C    1.714413   -0.736066   -0.000012
 C    0.527121   -1.414029    0.000220
 C   -0.708653   -0.713532    0.000286
 C   -1.953749   -1.391987    0.000016
 C   -3.135904   -0.695439   -0.000320
 C   -3.129696    0.717434   -0.000248
 C   -1.940239    1.401724   -0.000015
 C   -0.704297    0.708811    0.000254
 C    0.542595    1.391813    0.000430
 C    1.713940    0.689875    0.000225
 O    2.964739    1.242814    0.000718
 H    3.603920   -0.737738   -0.001403
 H    0.541669   -2.499484    0.000140
 H   -1.955401   -2.478950    0.000223
 H   -4.081501   -1.229244   -0.000448
 H   -4.069978    1.260499   -0.000563
 H   -1.931706    2.489015    0.000256
 H    0.554651    2.480205    0.000835
 H    2.897976    2.204502   -0.007240
