31 
6fcj_ligand_dft.xyz
 C   -0.014958    1.576733   -0.460802
 C   -1.112029    0.598311   -0.483863
 N    2.139305    2.283111   -0.446888
 C   -1.050794   -0.550731   -1.279099
 C   -2.263325    0.789247    0.294700
 C    1.333318    3.326839   -0.568165
 C    2.710764   -0.552343   -1.219130
 C    1.626983   -0.861836    0.908899
 C   -2.065734   -1.493827   -1.302118
 C   -3.297317   -0.146235    0.279321
 C    3.282931   -1.812745   -1.117692
 C    2.184044   -2.133811    1.004164
 C   -3.195636   -1.288312   -0.513127
 N    1.306180    1.220559   -0.369897
 C   -0.022028    2.950523   -0.579862
 C    1.869366   -0.071535   -0.217392
 C    3.007856   -2.608596   -0.009023
Cl    0.661984   -0.269859    2.230574
 O   -2.333745    1.905917    1.061594
 O   -4.173559   -2.228736   -0.558112
 H   -0.176314   -0.707545   -1.902508
 H    1.758239    4.318571   -0.645024
 H    2.905197    0.089610   -2.071537
 H   -2.003050   -2.380058   -1.922677
 H   -4.182676    0.017013    0.892691
 H    3.936141   -2.174680   -1.904872
 H    1.978393   -2.736704    1.881636
 H   -0.894592    3.578446   -0.669526
 H    3.441981   -3.599668    0.076210
 H   -3.144058    1.882952    1.584011
 H   -4.893597   -1.973566    0.030604
