37 
6fcl_ligand_xtb.xyz
 P   -1.155059   -2.467494   -0.364327
 O    0.358836   -2.450979   -0.806929
 O   -1.454365   -3.029449    0.954028
 O   -1.872406   -3.211063   -1.575955
 O   -1.620798   -0.947782   -0.579091
 C   -2.852809   -0.587154    0.027052
 C   -2.800201    0.858798    0.530096
 O   -1.792030    1.020673    1.521041
 C   -2.478657    1.884487   -0.568256
 O   -3.065499    3.115831   -0.262473
 C   -0.945478    1.952317   -0.509203
 O   -0.473694    3.211908   -0.872388
 C   -0.649590    1.594547    0.972653
 N    0.480868    0.694449    1.024836
 C    0.586293   -0.542802    1.578786
 N    1.715397   -1.139203    1.310975
 C    2.420174   -0.243176    0.541528
 C    3.690260   -0.250303   -0.064300
 N    4.540938   -1.282884    0.026445
 N    4.056604    0.823741   -0.770933
 C    3.224904    1.841782   -0.887013
 N    2.014046    1.975093   -0.371653
 C    1.646098    0.909203    0.347535
 H    0.931148   -2.269218   -0.045059
 H   -1.944659   -4.146080   -1.388683
 H   -3.661733   -0.695532   -0.700935
 H   -3.034419   -1.252939    0.876360
 H   -3.755528    1.102039    1.004887
 H   -2.821438    1.533462   -1.550892
 H   -2.441100    3.803438   -0.537674
 H   -0.529891    1.165248   -1.152532
 H    0.501786    3.164684   -0.844279
 H   -0.391250    2.505068    1.538822
 H   -0.195072   -0.968240    2.176079
 H    5.446338   -1.205332   -0.400937
 H    4.300475   -2.075613    0.592885
 H    3.579940    2.673744   -1.479954
