61 
6fdc_ligand_dft.xyz
 C   -0.159648   -1.209977   -1.036703
 C   -1.446316   -1.908046   -0.884224
 C   -5.016439   -0.871653    0.979953
 C   -1.827516    1.327607    1.184062
 C   -4.042228    2.081594    0.390601
 C   -3.112798   -3.283585   -0.405692
 C   -1.740649   -3.240416   -0.522648
 C    3.424725    2.010895   -0.024837
 O    3.234535    1.188874   -1.114456
 C    2.122551    0.384027   -1.070522
 C    2.003829   -0.631720   -0.112128
 O    2.959686   -0.768468    0.842265
 C    3.858337   -1.899090    0.702448
 C    4.794126   -1.839036    1.900689
 C    5.790820   -0.724322    1.536214
 C    5.886821   -0.745891   -0.012525
 C    4.794544   -1.729023   -0.492556
 C    0.854972   -1.418861   -0.100004
 C   -0.001700   -0.229015   -2.020082
 C    1.136616    0.566953   -2.031530
 N   -2.570491   -1.198582   -0.990312
 N   -3.578354   -2.046459   -0.700941
 C   -4.874393   -1.458598   -0.448368
 C   -3.778956   -0.152337    1.528517
 N   -3.165007    0.892656    0.649196
 C   -1.222381    2.368944    0.251274
 O   -2.084989    3.470474    0.105845
 C   -3.297408    3.080490   -0.486176
 F    4.565115    2.662983   -0.246806
 F    2.415075    2.920002    0.039638
 O   -6.105384    0.021577    1.016848
 H   -5.168470   -1.701663    1.685037
 H   -1.190970    0.440544    1.240882
 H   -1.991833    1.738420    2.183797
 H   -4.965252    1.730628   -0.070870
 H   -4.280790    2.519990    1.363078
 H   -3.784861   -4.094366   -0.162418
 H   -1.045999   -4.057980   -0.403050
 H    3.469579    1.469398    0.921003
 H    3.253153   -2.812740    0.656800
 H    4.256547   -1.662732    2.836181
 H    5.305689   -2.804638    1.983218
 H    6.760366   -0.874171    2.017367
 H    5.411947    0.242655    1.882847
 H    6.874058   -1.071157   -0.350513
 H    5.723342    0.250682   -0.427779
 H    4.275621   -1.393275   -1.394886
 H    5.226487   -2.710308   -0.718765
 H    0.747892   -2.167248    0.680217
 H   -0.777737   -0.082604   -2.764419
 H    1.276952    1.343981   -2.775153
 H   -5.648265   -2.212678   -0.614036
 H   -5.024761   -0.663525   -1.183544
 H   -2.993027   -0.888856    1.715361
 H   -4.046942    0.324071    2.474490
 H   -2.949000    0.387659   -0.245427
 H   -0.280691    2.732559    0.665374
 H   -1.005823    1.908630   -0.724483
 H   -3.122034    2.648738   -1.485489
 H   -3.907030    3.978152   -0.603040
 H   -6.935142   -0.471652    1.018548
