61 
6fdc_ligand_xtb.xyz
 C    0.008614   -0.474862   -1.182053
 C   -1.158855   -1.338067   -1.120941
 C   -5.111982   -1.370194    0.658113
 C   -2.460105    1.168379    1.807418
 C   -4.443894    1.636519    0.534600
 C   -2.582350   -3.034444   -1.161606
 C   -1.245984   -2.735001   -1.274649
 C    4.239610    2.064304   -0.338831
 O    3.252475    2.115173   -1.273912
 C    2.220426    1.201558   -1.237738
 C    2.383676   -0.139772   -0.834419
 O    3.637522   -0.533903   -0.537529
 C    3.890133   -1.843437   -0.029224
 C    3.389181   -1.998956    1.422707
 C    4.635368   -2.281944    2.269181
 C    5.768420   -1.636651    1.477635
 C    5.414918   -2.001148    0.038826
 C    1.256951   -0.952177   -0.789039
 C   -0.117431    0.831242   -1.646625
 C    0.985691    1.661755   -1.662788
 N   -2.382581   -0.843785   -0.922939
 N   -3.236606   -1.879144   -0.941257
 C   -4.640311   -1.628229   -0.803228
 C   -4.107461   -0.599768    1.536578
 N   -3.481940    0.582104    0.912347
 C   -1.782815    2.353555    1.111050
 O   -2.723716    3.321466    0.726110
 C   -3.686290    2.781237   -0.141068
 F    4.772471    3.291194   -0.274662
 F    3.739575    1.801792    0.894006
 O   -6.313363   -0.641335    0.639181
 H   -5.258808   -2.336776    1.161873
 H   -1.713337    0.412255    2.052093
 H   -2.947654    1.508902    2.724952
 H   -5.205123    1.228499   -0.126945
 H   -4.934819    2.003906    1.439578
 H   -3.095831   -3.971437   -1.232053
 H   -0.445344   -3.415281   -1.471189
 H    5.047088    1.341019   -0.540310
 H    3.445380   -2.576454   -0.712911
 H    2.932277   -1.057661    1.733356
 H    2.646984   -2.791020    1.518752
 H    4.802537   -3.357368    2.341200
 H    4.543580   -1.879730    3.275698
 H    6.749278   -2.003242    1.771003
 H    5.743776   -0.554300    1.608299
 H    5.901963   -1.368078   -0.700070
 H    5.680654   -3.038720   -0.161695
 H    1.342083   -1.968431   -0.442454
 H   -1.068253    1.180268   -2.017786
 H    0.914756    2.682498   -2.001337
 H   -5.189750   -2.480869   -1.207991
 H   -4.892864   -0.747004   -1.403268
 H   -3.306032   -1.280562    1.831721
 H   -4.650318   -0.286211    2.432736
 H   -2.947915    0.176685    0.006119
 H   -1.097375    2.847638    1.800606
 H   -1.214969    1.992680    0.240266
 H   -3.211545    2.420076   -1.066307
 H   -4.372038    3.593317   -0.384520
 H   -7.055319   -1.200317    0.385243
