41 
6fe5_ligand_xtb.xyz
 O    1.159796    2.602663   -0.277148
 C    1.751696    1.907473    0.677061
 O    1.226494    1.645014    1.732923
 C    3.151622    1.476039    0.283956
 C    3.114095    0.569390   -0.952144
 C    2.505756   -0.817807   -0.636224
 C    3.474308   -1.624674    0.206100
 O    3.313188   -1.905171    1.362305
 O    4.562499   -1.973402   -0.483707
 N    1.256966   -0.710761    0.070009
 C    0.103217   -0.364926   -0.568605
 O   -0.045100   -0.451171   -1.772172
 N   -0.899292    0.023389    0.279627
 C   -2.186872    0.394245   -0.243617
 C   -2.407572    1.891793   -0.170560
 O   -3.653765    2.249747   -0.460376
 O   -1.556323    2.704675    0.105464
 C   -3.324084   -0.376848    0.443104
 C   -3.142638   -1.896663    0.359695
 C   -3.144404   -2.387704   -1.085690
 C   -4.254011   -2.580762    1.153637
 H    0.216015    2.785110   -0.055498
 H    3.616570    0.971371    1.131821
 H    3.720951    2.375138    0.043630
 H    4.120600    0.428304   -1.347039
 H    2.499571    1.041949   -1.719416
 H    2.330608   -1.341626   -1.582846
 H    5.174763   -2.476609    0.077183
 H    1.326944   -0.628811    1.073940
 H   -0.659552    0.325258    1.212337
 H   -2.157819    0.139158   -1.313099
 H   -3.750787    3.215827   -0.425913
 H   -3.360453   -0.079712    1.494134
 H   -4.267495   -0.092512   -0.024036
 H   -2.179759   -2.154033    0.812570
 H   -4.042880   -2.054535   -1.601274
 H   -2.273910   -2.024920   -1.625293
 H   -3.120563   -3.474608   -1.108851
 H   -5.224977   -2.355833    0.717414
 H   -4.117095   -3.659181    1.146234
 H   -4.255447   -2.244306    2.187968
