41 
6fe5_ligand_dft.xyz
 O    1.105851    2.618149   -0.133016
 C    1.737383    1.904252    0.794148
 O    1.231804    1.588256    1.854703
 C    3.125816    1.502754    0.339112
 C    3.089679    0.626371   -0.926594
 C    2.516911   -0.791922   -0.678230
 C    3.491087   -1.602118    0.153700
 O    3.363897   -1.845213    1.329951
 O    4.563125   -1.978620   -0.561465
 N    1.255406   -0.768715    0.019661
 C    0.103179   -0.399862   -0.624344
 O   -0.038029   -0.480011   -1.838343
 N   -0.892009    0.030775    0.229622
 C   -2.186467    0.380428   -0.286186
 C   -2.409848    1.883593   -0.259126
 O   -3.617129    2.220944   -0.721672
 O   -1.625254    2.724637    0.131733
 C   -3.327983   -0.361449    0.437741
 C   -3.149396   -1.885047    0.458994
 C   -3.028891   -2.474482   -0.949310
 C   -4.309367   -2.528204    1.223237
 H    0.161511    2.718014    0.128708
 H    3.619964    0.996898    1.173000
 H    3.683220    2.417676    0.111997
 H    4.096801    0.535014   -1.345322
 H    2.461719    1.108488   -1.680824
 H    2.377939   -1.284727   -1.643621
 H    5.153758   -2.447541    0.049973
 H    1.313062   -0.696565    1.026799
 H   -0.615055    0.408046    1.128571
 H   -2.180191    0.097975   -1.344741
 H   -3.673841    3.189650   -0.681792
 H   -3.396629    0.008393    1.470205
 H   -4.274522   -0.107232   -0.053221
 H   -2.219261   -2.103156    0.998437
 H   -3.905418   -2.212812   -1.556623
 H   -2.133520   -2.121378   -1.470876
 H   -2.971742   -3.567233   -0.901554
 H   -5.261079   -2.360225    0.703702
 H   -4.165037   -3.609931    1.314113
 H   -4.402198   -2.114804    2.234104
