59 
6few_ligand_dft.xyz
 C   -3.780108   -4.837788   16.968726
 C   -4.059076   -3.466792   16.357506
 C   -3.780074   -8.167146   16.559470
 C   -4.085555   -6.391184   15.074428
 C   -4.444168   -8.416392   19.268162
 C   -5.323375   -7.542260   21.346914
 C   -5.510347   -6.261028   19.299024
 C   -5.327455   -1.308240   17.989662
 C   -4.693722   -1.924843   19.038295
 C   -4.090144   -1.114041   20.030671
 C   -4.819061    0.928098   18.844935
 C   -3.377015   -1.349025   21.203832
 C   -6.263527   -4.088676   15.566718
 C   -6.163316   -5.502331   16.142849
 C   -4.703124   -5.948766   16.398377
 N   -5.485759   -3.178653   16.393104
 N   -4.634610   -7.180872   17.192566
 N   -3.664821   -7.679820   15.206369
 O   -3.966592   -5.716650   14.067480
 C   -4.857167   -7.270133   18.563885
 C   -4.678686   -8.544595   20.632158
 C   -5.733584   -6.402833   20.662265
 C   -6.093989   -2.091982   16.961207
 O   -7.244400   -1.769883   16.690964
 C   -4.141005    0.310445   19.930061
 C   -5.406018    0.120772   17.914080
 N   -3.071744   -0.128776   21.684062
 N   -3.508598    0.904997   20.954573
 C   -2.708619   -8.217133   14.285879
 C   -1.284431   -7.730399   14.612118
 O   -1.050424   -7.021957   15.577286
 N   -0.336535   -8.174754   13.749980
 C    1.054842   -7.783309   13.850346
 H   -3.914101   -4.785351   18.051484
 H   -2.738570   -5.128591   16.790562
 H   -3.734684   -3.456840   15.309902
 H   -3.506218   -2.691999   16.887897
 H   -4.247273   -9.162246   16.568602
 H   -2.788402   -8.232647   17.034557
 H   -3.934027   -9.224446   18.756441
 H   -5.503759   -7.646388   22.411757
 H   -5.852823   -5.355052   18.816905
 H   -4.669658   -3.007696   19.120414
 H   -4.872304    2.009530   18.779919
 H   -3.075945   -2.255696   21.706495
 H   -5.878797   -4.066326   14.541052
 H   -7.296841   -3.742874   15.560852
 H   -6.731418   -5.544062   17.073963
 H   -6.631423   -6.220973   15.461105
 H   -4.345153   -9.446519   21.137692
 H   -6.242389   -5.601691   21.191095
 H   -5.961998    0.548945   17.086573
 H   -2.553973    0.071563   22.526229
 H   -2.985750   -7.880254   13.282178
 H   -2.746694   -9.312235   14.303553
 H   -0.631434   -8.689011   12.933803
 H    1.704902   -8.660973   13.789288
 H    1.328743   -7.076297   13.059890
 H    1.192198   -7.299921   14.817841
