59 
6fff_ligand_xtb.xyz
 C    3.401451    0.661304    1.198835
 C    0.541326    2.676881    0.492350
 C    0.537453    3.585483   -1.744929
 C   -0.688107    4.181547   -1.508540
 C   -1.289593    4.035053   -0.271785
 C   -0.686182    3.297197    0.739106
 C    5.633556   -2.621097    0.600411
 C    4.118662   -2.701282    0.559944
 O    3.544731   -3.742067    0.800852
 N    3.454051   -1.552094    0.233984
 C    4.067795   -0.239265    0.146480
 N    1.987363    0.741166    0.961517
 C    1.241410    1.836976    1.542507
 C    1.142374    2.842134   -0.748441
 C   -1.399978    3.147270    2.064056
 O   -1.923156    1.845031    2.250935
 C    1.335082   -0.370500    0.488211
 C   -0.048880   -0.370830    0.341340
 C   -0.731768   -1.457325   -0.191694
 C   -0.012565   -2.574739   -0.607466
 C    1.361622   -2.591852   -0.470992
 C    2.046215   -1.523485    0.091549
 C   -2.184724   -1.384245   -0.293269
 C   -2.854270   -0.181524   -0.548626
 N   -4.167274   -0.081436   -0.559610
 C   -4.864858   -1.188196   -0.356650
 N   -4.339106   -2.396474   -0.162811
 C   -3.024612   -2.488415   -0.120140
 C   -6.365162   -1.082021   -0.341820
 N   -6.959059   -2.290336   -0.246528
 O   -6.965170   -0.033419   -0.408569
 C    3.925537    0.314493   -1.266285
 C    5.084841    0.249722   -2.217888
 C    4.819057    1.425432   -1.734210
 H    3.619855    0.250293    2.199031
 H    3.833740    1.664898    1.139659
 H    1.021537    3.696167   -2.704004
 H   -1.174871    4.757436   -2.280939
 H   -2.245871    4.502689   -0.084380
 H    5.970515   -2.022276    1.444416
 H    6.006628   -3.633723    0.729694
 H    6.033603   -2.207908   -0.322095
 H    5.129092   -0.302207    0.389737
 H    1.948119    2.472550    2.085761
 H    0.514411    1.452619    2.264977
 H    2.094872    2.371435   -0.934766
 H   -0.708861    3.310364    2.895769
 H   -2.200715    3.893943    2.135611
 H   -2.660900    1.715708    1.643147
 H   -0.618161    0.473279    0.683887
 H   -0.515865   -3.413373   -1.061940
 H    1.916343   -3.456515   -0.793255
 H   -2.309445    0.728894   -0.768744
 H   -2.624832   -3.475664    0.074756
 H   -6.382405   -3.110217   -0.156567
 H   -7.961395   -2.354015   -0.201106
 H    2.915348    0.234069   -1.659234
 H    5.661716   -0.388511   -2.839566
 H    5.020384    2.465606   -1.663772
