32 
6fg6_ligand_xtb.xyz
 C    3.321151    1.946431   -0.390325
 C    1.104511    0.978494   -0.144273
 C    0.298560   -0.308716   -0.324692
 C    0.845543   -1.344956    0.671678
 C    2.285643   -1.647070    0.291982
 C    3.159313   -0.419584    0.070578
 C   -1.159013   -0.083160   -0.038944
 C   -3.436073   -1.048769   -0.385177
 C   -4.244940    0.244796   -0.510584
 N    2.527425    0.750649   -0.201242
 N   -2.015021   -0.890063   -0.677607
 N   -4.028751    1.086679    0.684945
 O    4.366376   -0.511679    0.086702
 O   -1.532065    0.783214    0.766430
 H    3.107022    2.676536    0.392764
 H    4.369952    1.662478   -0.342255
 H    3.109659    2.390637   -1.364477
 H    0.832273    1.435915    0.818272
 H    0.844620    1.692428   -0.935439
 H    0.428051   -0.692308   -1.341155
 H    0.252373   -2.262142    0.651122
 H    0.798894   -0.929480    1.679702
 H    2.323170   -2.227388   -0.634138
 H    2.769320   -2.248126    1.062753
 H   -3.827726   -1.778953   -1.092265
 H   -3.559657   -1.455893    0.625688
 H   -5.302495    0.000332   -0.624681
 H   -3.918800    0.799760   -1.392001
 H   -1.620398   -1.566613   -1.314070
 H   -4.325544    2.052388    0.542215
 H   -4.509378    0.713845    1.505270
 H   -2.879560    1.028655    0.853512
