27 
6fg6_ligand_dft.xyz
 C   34.046699  -37.532364   29.187382
 C   36.028219  -38.970842   29.003453
 C   36.655465  -40.128702   28.647489
 C   35.869404  -41.143544   28.022006
 C   34.536464  -40.977388   27.840667
 C   33.852805  -39.764555   28.243483
 C   38.123223  -40.346040   28.803953
 C   40.159990  -39.813309   30.060373
 C   41.039305  -39.079938   29.047249
 N   34.696144  -38.783196   28.816172
 N   38.740730  -39.631368   29.793384
 N   42.440792  -39.250482   29.412989
 O   32.659001  -39.531522   28.120276
 O   38.732161  -41.115571   28.074996
 H   34.791078  -36.849317   29.599447
 H   33.575831  -37.085661   28.309330
 H   33.266607  -37.725957   29.926617
 H   36.563741  -38.124721   29.422590
 H   36.375666  -42.047094   27.697060
 H   33.916970  -41.736318   27.377690
 H   40.413498  -40.877608   30.040913
 H   40.357537  -39.435818   31.069315
 H   40.707312  -38.029722   28.978885
 H   40.875420  -39.538069   28.068156
 H   38.165437  -39.259201   30.531823
 H   43.041494  -39.010331   28.631570
 H   42.687007  -38.622364   30.172730
