55 
6fgc_ligand_dft.xyz
 C    4.623497    2.790876   -0.865816
 C    3.251787    2.125438   -0.728679
 C    2.214347    3.130576   -0.225286
 C    0.829695    2.505127   -0.100551
 C    0.836915    1.288815    0.836247
 C   -0.536260    0.601880    0.982406
 C   -0.848418   -0.153923   -0.302795
 C    1.425816   -0.587331   -0.773443
 C    1.903715    0.250700    0.431379
 C    3.296467    0.892034    0.196548
 C    4.349331   -0.127228   -0.275408
 C    4.255984   -1.522991    0.344456
 C    2.884330   -2.193373    0.141273
 C    2.952067   -3.697553   -0.023406
 C   -3.134912   -0.548646   -0.797507
 C   -4.261049   -1.525424   -0.541602
 C   -5.617843   -0.872032   -0.750732
 C   -5.881597    0.197490    0.281435
 C   -1.661497    1.564219    1.360820
 O    0.131588   -1.110859   -0.588059
 O    2.264015   -1.663743   -1.034041
 O    2.035579   -1.985108    1.241846
 O    2.052013   -0.597246    1.591609
 O   -2.029884   -0.921359   -0.133183
 O   -3.217269    0.418874   -1.516413
 O   -5.151814    0.484845    1.200975
 O   -7.059307    0.811272    0.073234
 H    5.034822    3.038622    0.120842
 H    4.541113    3.722259   -1.436342
 H    5.344474    2.150345   -1.381395
 H    2.939701    1.792318   -1.731173
 H    2.174625    3.991471   -0.903430
 H    2.534939    3.515638    0.754086
 H    0.120037    3.245740    0.281164
 H    0.471072    2.226652   -1.100628
 H    1.133725    1.647061    1.832354
 H   -0.436222   -0.161182    1.761940
 H   -0.993504    0.526845   -1.152061
 H    1.436779    0.046241   -1.673149
 H    3.591090    1.246960    1.195552
 H    4.279030   -0.232530   -1.364362
 H    5.345860    0.273664   -0.064069
 H    4.464377   -1.499931    1.418376
 H    5.020389   -2.154472   -0.121694
 H    3.450062   -3.928942   -0.968194
 H    3.513464   -4.144206    0.801447
 H    1.940580   -4.108902   -0.045256
 H   -4.134192   -2.360604   -1.240292
 H   -4.159044   -1.927773    0.468376
 H   -6.424036   -1.611020   -0.691776
 H   -5.679473   -0.409496   -1.740314
 H   -1.924161    2.231714    0.533330
 H   -1.364762    2.180745    2.216663
 H   -2.567330    1.017151    1.635326
 H   -7.147044    1.480297    0.770886
