46 
6fgf_ligand_dft.xyz
 C    5.180204   -0.853919    1.017292
 C    2.809596   -1.387445    0.706554
 C    1.460905   -0.838123    0.260100
 C    1.566574   -0.373403   -1.195904
 C    2.597809    0.744061   -1.285206
 C    3.925957    0.443544   -0.605026
 C    0.389389   -1.915937    0.386203
 C   -1.996588   -2.313008    0.844700
 C   -2.537752   -2.652895   -0.547915
 C   -2.866927   -1.426033   -1.400091
 C   -3.869332    0.414895    0.045373
 C   -2.605671    1.226725    0.083740
 C   -1.925571    1.636568   -1.065475
 C   -0.762770    2.392478   -0.968789
 C   -0.289120    2.724149    0.292332
 C   -0.956115    2.356896    1.453125
 C   -2.132088    1.623736    1.337456
 F    0.850958    3.420290    0.391746
 N    3.925402   -0.509669    0.378219
 N   -0.818450   -1.465231    0.811363
 N   -3.950994   -0.607892   -0.864190
 O    4.928105    1.074410   -0.908559
 O    0.591692   -3.084304    0.084470
 O   -4.798149    0.678881    0.793553
 H    5.475233   -1.879950    0.761950
 H    5.944809   -0.160262    0.671283
 H    5.081735   -0.781978    2.106948
 H    2.953582   -2.375083    0.248390
 H    2.807669   -1.536234    1.793764
 H    1.194913    0.028196    0.881580
 H    0.593784   -0.022501   -1.558592
 H    1.859963   -1.227786   -1.817580
 H    2.209521    1.656240   -0.814997
 H    2.832624    1.001209   -2.321057
 H   -1.742509   -3.240624    1.365467
 H   -2.755120   -1.794852    1.439823
 H   -3.430688   -3.280818   -0.433786
 H   -1.786452   -3.250671   -1.074502
 H   -3.149948   -1.739993   -2.409941
 H   -1.972171   -0.810057   -1.499638
 H   -2.313640    1.376984   -2.045631
 H   -0.223644    2.724490   -1.849154
 H   -0.563064    2.658082    2.417726
 H   -2.695140    1.344442    2.222426
 H   -0.930262   -0.479141    0.994033
 H   -4.845691   -1.078383   -0.788471
