41 
6fgy_ligand_xtb.xyz
 C   -5.331935   -0.227520   -0.017498
 C   -4.516794    0.893523    0.095720
 C   -1.135667   -0.449680   -0.061023
 C    0.766353    1.144139    0.064010
 C    1.785717    0.205631   -0.062106
 C    3.114067    0.603926   -0.055121
 C    3.416658    1.953058    0.098038
 C    2.403801    2.888045    0.223654
 C    1.080576    2.494039    0.205086
 C    4.237866   -0.410924   -0.154138
 C    6.685911   -0.127663   -0.468291
 C    6.907091   -0.907285    0.818595
Br   -7.218833   -0.032581    0.009977
 N   -3.204330    0.809393    0.081163
 C   -2.634982   -0.387568   -0.045240
 C   -3.373804   -1.561463   -0.163773
 C   -4.754527   -1.482190   -0.150248
 O   -0.544656   -1.506596   -0.165532
 N   -0.579452    0.779940    0.051641
 N    5.405592    0.230007   -0.735917
 O    5.786465   -1.637074    1.261273
 C    4.631440   -0.842642    1.274681
 N    7.605724    0.278001   -1.245674
 C    3.867943   -1.645277   -0.987238
 H   -4.936564    1.884709    0.200467
 H    1.516378   -0.829715   -0.167595
 H    4.447579    2.271351    0.115320
 H    2.649995    3.933016    0.337559
 H    0.289342    3.223453    0.301128
 H    7.219122   -0.185733    1.595340
 H    7.710927   -1.634347    0.679367
 H   -2.855110   -2.501766   -0.263744
 H   -5.368441   -2.365608   -0.240110
 H   -1.256144    1.532787    0.135161
 H    5.279729    0.661153   -1.641198
 H    4.787342    0.054437    1.894177
 H    3.839933   -1.449599    1.715922
 H    8.542828    0.023547   -0.951985
 H    3.549437   -1.345341   -1.983029
 H    4.742528   -2.286705   -1.073333
 H    3.074776   -2.218243   -0.517715
