41 
6fgy_ligand_dft.xyz
 C   -5.359712   -0.247003   -0.011992
 C   -4.573379    0.899025    0.089176
 C   -1.145018   -0.383715   -0.110621
 C    0.780575    1.197428    0.018717
 C    1.803199    0.253393   -0.099296
 C    3.139013    0.658135   -0.080320
 C    3.444151    2.012804    0.065553
 C    2.422845    2.949936    0.180328
 C    1.094338    2.552217    0.156918
 C    4.261746   -0.378067   -0.136628
 C    6.725294   -0.249657   -0.456564
 C    6.895466   -0.908694    0.903890
Br   -7.238028   -0.095363    0.044083
 N   -3.245691    0.849393    0.056547
 C   -2.656083   -0.342269   -0.078217
 C   -3.363232   -1.535165   -0.186758
 C   -4.750431   -1.487298   -0.152950
 O   -0.554344   -1.446960   -0.227939
 N   -0.580435    0.847069    0.003168
 N    5.462765    0.242417   -0.702486
 O    5.750476   -1.598167    1.348406
 C    4.614198   -0.766392    1.310496
 N    7.663231   -0.038450   -1.299120
 C    3.891760   -1.632102   -0.943809
 H   -5.032720    1.877027    0.200202
 H    1.530705   -0.785619   -0.209730
 H    4.482190    2.326599    0.083559
 H    2.663620    4.003006    0.289992
 H    0.299816    3.289117    0.244243
 H    7.173266   -0.125403    1.629901
 H    7.705038   -1.640061    0.857024
 H   -2.820832   -2.467049   -0.294108
 H   -5.346466   -2.389862   -0.233183
 H   -1.256175    1.598241    0.092980
 H    5.366761    0.588113   -1.651258
 H    4.784526    0.148124    1.900721
 H    3.789742   -1.326624    1.757210
 H    8.545958   -0.406744   -0.946063
 H    3.632155   -1.363900   -1.972842
 H    4.748332   -2.310767   -0.962682
 H    3.048536   -2.173942   -0.506902
