31 
6fh3_ligand_xtb.xyz
 P   -2.398999   -0.653601   -0.015648
 N    1.168783   -0.406389    1.445654
 C    1.738453   -0.386112    0.114416
 C    2.694888    0.824442   -0.031390
 C    2.075774    2.121651    0.492461
 C    1.146546    2.844959   -0.495615
 N    0.077656    2.034287   -1.037287
 C   -0.848661    1.372328   -0.299601
 N   -1.186728    1.849157    0.915992
 N   -1.414287    0.352944   -0.869569
 O   -2.266128   -2.021345   -0.825251
 O   -3.916420   -0.173721   -0.318173
 O   -2.165770   -0.841518    1.428627
 C    2.519403   -1.628707   -0.293168
 O    2.719160   -2.482081    0.717200
 O    2.941950   -1.829828   -1.401651
 H   -0.561567    2.484437    1.381062
 H    1.803112   -0.852929    2.098487
 H    0.289760   -0.912205    1.464367
 H    0.925561   -0.297515   -0.611366
 H    2.993632    0.917541   -1.075726
 H    3.590072    0.614970    0.558506
 H    1.538893    1.865376    1.406540
 H    2.874602    2.819492    0.749443
 H    1.729706    3.201168   -1.347124
 H    0.715570    3.723588   -0.002450
 H    0.271241    1.568825   -1.910852
 H   -1.663558    1.176049    1.500469
 H   -2.270112   -1.840623   -1.765116
 H   -4.444092   -0.319268    0.465813
 H    3.213437   -3.258295    0.410490
