44 
6fh7_ligand_xtb.xyz
 C   -4.630387    2.214692    1.731877
 C   -3.610095    1.009214   -0.154533
 C   -3.643478   -0.387511   -0.715219
 C   -4.826717   -0.921739   -1.015928
 C   -6.077048   -0.139533   -0.846314
 C   -6.013298    0.779589    0.365778
 C   -2.406482   -1.183175   -0.932994
 C    0.024860   -1.123292   -1.193460
 C    0.821648   -1.217405    0.109897
 C    2.130173   -1.988023   -0.097413
 C    3.741743   -1.206345    1.651906
 C    4.248035   -0.153942    0.711996
 C    5.040534   -0.495139   -0.379096
 C    5.551519    0.488901   -1.205935
 C    5.256724    1.811537   -0.926390
 C    4.481603    2.176836    0.159378
 C    3.985249    1.183277    0.983830
 F    5.741789    2.773972   -1.736494
 N   -4.791634    1.288878    0.635721
 N   -1.249278   -0.473625   -1.000302
 N    2.879700   -2.113150    1.129096
 O   -6.996239    1.033149    1.031228
 O   -2.431308   -2.389308   -1.080640
 O    4.106994   -1.267307    2.807311
 H   -4.284237    3.185183    1.367895
 H   -5.601516    2.333608    2.208775
 H   -3.914926    1.827113    2.460585
 H   -3.526609    1.743260   -0.974315
 H   -2.747612    1.138505    0.507464
 H   -4.883094   -1.931793   -1.391879
 H   -6.952219   -0.781390   -0.744698
 H   -6.236156    0.496053   -1.725097
 H   -0.195067   -2.128078   -1.562867
 H    0.599429   -0.579014   -1.948788
 H    0.212379   -1.727009    0.858882
 H    1.052171   -0.215080    0.480145
 H    2.743077   -1.470859   -0.838129
 H    1.909015   -2.991646   -0.469375
 H    5.271238   -1.532367   -0.571670
 H    6.172858    0.245317   -2.053119
 H    4.285252    3.219631    0.352162
 H    3.393729    1.442049    1.848975
 H   -1.250733    0.524402   -0.878604
 H    2.522330   -2.778290    1.803019
