17 
6fhq_ligand_dft.xyz
 C   19.554848    2.582290    7.894666
 C   19.430479    1.096982    8.197347
 N   18.922094    4.467322    4.876034
 N   19.183824    2.955395    6.630804
 C   19.290312    4.233610    6.099811
 N   19.205394    0.919949    9.618000
 C   19.119398    5.795834    4.578630
 C   19.634708    6.559162    5.574640
 S   19.902406    5.596218    6.990777
 O   20.000863    3.377076    8.702967
 H   18.599538    0.663641    7.626341
 H   20.357318    0.633396    7.811379
 H   18.789111    2.278582    5.991825
 H   19.494606   -0.006435    9.911124
 H   19.771079    1.599588   10.119837
 H   18.859172    6.151507    3.589386
 H   19.868850    7.613884    5.562434
