42 
6fhu_ligand_xtb.xyz
 N    1.231724   -2.467012   -0.083297
 C    2.349865   -1.620752    0.407706
 C    1.926908   -0.225969   -0.102442
 O    1.536743   -0.155799   -1.256271
 C    3.670013   -2.060873   -0.204174
 N    1.931993    0.769209    0.784394
 C    1.098841    1.971564    0.654083
 C   -0.339014    1.447163    0.831777
 O   -0.929586    1.530790    1.888041
 C    1.348576    2.773245   -0.621681
 C    0.465796    4.015311   -0.647743
 N   -0.846535    0.780758   -0.225193
 C   -2.016819   -0.047013   -0.019624
 C   -1.792694   -0.923133    1.221299
 O   -0.802602   -1.643826    1.346631
 C   -2.283021   -0.912987   -1.265889
 O   -1.104924   -1.651720   -1.550908
 C   -2.702389   -0.046392   -2.448546
 N   -2.753888   -0.896024    2.135808
 H    0.320117   -2.189618    0.434888
 H    1.066519   -2.203046   -1.069767
 H    1.413252   -3.467204    0.005993
 H    2.378238   -1.666433    1.498172
 H    4.478626   -1.434426    0.161352
 H    3.896634   -3.091534    0.057966
 H    3.631912   -1.965423   -1.287091
 H    2.263003    0.576464    1.717799
 H    1.314766    2.602869    1.520132
 H    2.399616    3.067105   -0.638042
 H    1.162998    2.164831   -1.505285
 H    0.673646    4.652892    0.207673
 H   -0.586495    3.742422   -0.621473
 H    0.652099    4.586241   -1.552553
 H   -0.266038    0.576857   -1.029558
 H   -2.887753    0.594071    0.156712
 H   -3.095739   -1.614466   -1.018173
 H   -1.182929   -1.979852   -2.454312
 H   -2.913146   -0.671869   -3.313762
 H   -1.914193    0.655665   -2.709163
 H   -3.601814    0.511770   -2.208039
 H   -2.619767   -1.412574    2.993264
 H   -3.480044   -0.199802    2.122730
