24 
6fi1_ligand_xtb.xyz
 C    0.353095    0.403255   -0.014562
 C    0.789011   -0.923678   -0.022416
 C    2.133376   -1.202229   -0.010081
 C   -2.087894    0.055826   -0.026018
 C   -3.464097    0.708041   -0.029529
 N   -1.001044    0.777458   -0.019136
 N   -4.423622   -0.379878    0.072733
 C    1.295095    1.437125    0.002732
 N    4.407711   -0.454198    0.025064
 C    2.637424    1.157914    0.015237
 C    3.091389   -0.173582    0.010362
 O   -2.090069   -1.241263   -0.034743
 H    0.079266   -1.732544   -0.037569
 H    2.465579   -2.228441   -0.015795
 H   -3.586724    1.260839   -0.966351
 H   -3.530600    1.429385    0.792440
 H   -1.129377    1.786556   -0.015085
 H   -5.144790   -0.346996   -0.634737
 H   -3.071509   -1.493150   -0.029202
 H   -4.867336   -0.429428    0.981024
 H    0.964251    2.465825    0.007094
 H    4.729189   -1.405572    0.021764
 H    5.090037    0.282472    0.039989
 H    3.356857    1.961461    0.029398
