27 
6fne_ligand_dft.xyz
 C   -1.472715   -1.346336    0.347277
 C   -3.538750    0.052937   -0.094437
 C    4.233931    1.391329   -0.065010
 C    2.731940    1.289738   -0.008650
 C    2.083823    0.064108   -0.018766
 C    0.693271   -0.083593    0.037246
 C   -0.075790    1.088847    0.084149
 C    0.534889    2.340670    0.105681
 C    1.915175    2.426112    0.063646
 C   -2.045245   -0.118885   -0.342164
 C    0.029320   -1.408991    0.139505
 F   -4.007653    1.143609   -0.704711
 F   -4.193820   -1.013414   -0.579338
 F   -3.815906    0.152436    1.210070
 N    2.944526   -1.131698   -0.092567
 O   -1.431381    1.068784    0.125166
 O    0.632738   -2.458101    0.107048
 O    3.193331   -1.555624   -1.205597
 O    3.397439   -1.547139    0.957574
 H   -1.666003   -1.281864    1.425345
 H   -1.924627   -2.265769   -0.028792
 H    4.548663    2.436865   -0.098060
 H    4.628765    0.887400   -0.953140
 H    4.690696    0.921815    0.811973
 H   -0.088264    3.226887    0.145433
 H    2.385023    3.405207    0.076384
 H   -1.905628   -0.191308   -1.429756
