57 
6fng_ligand_xtb.xyz
 F   -7.407882    2.753443   -0.437748
 C   -7.638469    1.976101    0.633027
 F   -7.127003    2.633219    1.690868
 F   -8.968634    1.963528    0.809657
 C   -7.048408    0.601771    0.482237
 C   -5.715807    0.508336    0.108561
 C   -7.816137   -0.527030    0.727098
 C   -7.230345   -1.774332    0.588079
 C   -5.906443   -1.887184    0.214432
 C   -5.134724   -0.749092   -0.029024
 N   -3.809878   -0.927898   -0.413235
 C   -2.850610    0.023379   -0.653542
 O   -3.019920    1.213127   -0.506180
 C   -1.544652   -0.537743   -1.105257
 C   -0.402184    0.194367   -0.809883
 C   -1.420386   -1.711750   -1.844270
 C   -0.175002   -2.112101   -2.289450
 C    0.978053   -1.391365   -2.000837
 C    2.289161   -1.824157   -2.577524
 C    0.855842   -0.235608   -1.215210
 N    1.972509    0.535692   -0.879494
 C    3.110605    0.098533   -0.276609
 N    4.126857    0.935848   -0.261029
 C    3.225685   -1.154812    0.371600
 C    2.461296   -2.268530    0.693597
 N    3.256948   -3.078582    1.408634
 C    2.901109   -4.350401    1.969898
 N    4.481714   -2.603100    1.595999
 C    4.502823   -1.421164    0.983613
 N    5.528332   -0.563049    0.942997
 C    5.282476    0.573351    0.332240
 C    6.368634    1.555348    0.280969
 C    7.604739    1.282499    0.865674
 C    8.601594    2.237740    0.792612
 C    8.326113    3.430480    0.138062
 N    7.157362    3.701233   -0.420493
 C    6.206868    2.789115   -0.350190
 H   -5.134248    1.396900   -0.074887
 H   -8.850111   -0.432066    1.017152
 H   -7.813141   -2.663248    0.772915
 H   -5.459994   -2.866095    0.107861
 H   -3.522107   -1.892934   -0.496299
 H   -0.504872    1.111900   -0.249908
 H   -2.288399   -2.288201   -2.130112
 H   -0.092278   -2.998509   -2.901822
 H    2.791208   -2.537373   -1.923350
 H    2.131533   -2.306047   -3.539857
 H    2.953391   -0.973572   -2.713057
 H    1.928890    1.532964   -1.035826
 H    1.442398   -2.521879    0.478009
 H    2.102558   -4.235351    2.704941
 H    2.569474   -5.035518    1.187898
 H    3.786959   -4.752191    2.456641
 H    7.752318    0.334699    1.360082
 H    9.571900    2.064603    1.232782
 H    9.073301    4.209474    0.054178
 H    5.264360    3.040207   -0.815977
