63 
6fo5_ligand_dft.xyz
 C    8.158411    2.098222   -0.105355
 C   -1.775835    0.728936    1.919331
 C    6.290475    0.556402    0.511670
 C    5.451410    0.697546   -0.608385
 C    1.179838   -0.787390    0.062395
 C    6.153878   -0.537451    1.369751
 C    5.199475   -1.512294    1.119337
 C    4.393996   -1.393304   -0.009064
 C    4.519082   -0.302876   -0.865226
 C   -0.183331   -0.616515    0.690660
 C   -0.512258    0.559989    1.361303
 N    7.259419    1.538102    0.789637
 N    1.766926   -2.065281    0.464669
 C    8.085464    1.575819   -1.528521
 N   -5.018910    0.569053    1.460593
 C    5.546385    1.934997   -1.464802
 C    6.832099    2.018008   -2.303436
 O    8.966546    2.921869    0.274580
 S    3.128093   -2.610785   -0.318562
 O    2.832908   -2.572054   -1.740164
 O    3.509940   -3.830149    0.371553
 C   -2.728104   -0.284882    1.820770
 C   -2.398323   -1.466206    1.152143
 C   -1.138111   -1.630955    0.592044
 C   -4.110944   -0.093183    2.401407
 C   -5.082753    1.951092    1.440422
 C   -5.707376   -0.156136    0.513502
 C   -6.497929    0.441418   -0.442262
 C   -6.667449    1.863718   -0.535426
 N   -5.916494    2.496763    0.463459
 N   -5.721616   -1.505945    0.403654
 C   -6.526883   -1.725247   -0.627267
 N   -7.030918   -0.601260   -1.174512
 O   -7.339778    2.495341   -1.333740
 O   -4.470957    2.660947    2.217352
 C   -7.894347   -0.491629   -2.346736
 C   -7.135958   -0.000476   -3.573095
 H   -2.032124    1.653550    2.428072
 H    1.825424    0.063206    0.328178
 H    1.094490   -0.811918   -1.028590
 H    6.817726   -0.630157    2.224346
 H    5.103308   -2.376837    1.767635
 H    3.878067   -0.234187   -1.739224
 H    0.224784    1.354498    1.450785
 H    7.451902    1.765541    1.756401
 H    1.839402   -2.205362    1.467733
 H    8.116938    0.480205   -1.490515
 H    8.988442    1.920112   -2.035356
 H    5.504908    2.807433   -0.799654
 H    4.673789    1.997409   -2.122141
 H    6.741024    1.384913   -3.192600
 H    6.956057    3.047884   -2.653847
 H   -3.144430   -2.250395    1.059302
 H   -0.882477   -2.553721    0.079219
 H   -4.563253   -1.054028    2.654222
 H   -4.077520    0.531644    3.294620
 H   -5.956284    3.507848    0.474067
 H   -6.776407   -2.704973   -1.012099
 H   -8.705785    0.195721   -2.098260
 H   -8.323647   -1.483512   -2.513570
 H   -6.763690    1.012523   -3.401837
 H   -6.295412   -0.661858   -3.804169
 H   -7.808297    0.023762   -4.435820
