79 
6fo8_ligand_dft.xyz
 C   -8.762613    0.292065   -0.778688
 C   -7.778096    0.875956   -1.792448
 C   -6.368085    0.282852   -1.706950
 C   -5.648119    0.561549   -0.386181
 C   -4.195694    0.087738   -0.396288
 C   -3.462179    0.367187    0.923867
 C   -2.044754   -0.150566    0.880972
 O    4.946483    0.182238   -1.184794
 C    5.499830   -0.910013   -0.456524
 C    6.321812   -1.705343   -1.467888
 C    6.406812   -0.369632    0.654496
 C    4.372615   -1.758699    0.164505
 C    3.412221   -2.396286   -0.837585
 C    2.234579   -3.097767   -0.162171
 C    1.259087   -3.710587   -1.167735
 C    0.099981   -4.485392   -0.528678
 C   -0.774701   -3.697895    0.426747
 C   -1.037116   -2.342717    0.229975
 C   -1.367522   -4.331120    1.520751
 C   -2.204645   -3.627636    2.380863
 C   -2.450699   -2.275933    2.173228
 C   -1.851725   -1.609169    1.098931
 C   -0.971708    0.606037    0.573342
 C   -0.978070    2.032358    0.292100
 C    0.069988    2.765669   -0.136203
 C    1.421085    2.214018   -0.423466
 C    1.633301    1.219233   -1.288248
 C    2.548193    2.906394    0.332321
 O    3.842817    2.499943   -0.077307
 C    2.419073    4.433390    0.265964
 C    1.017368    4.921963    0.648119
 O    0.733015    4.663644    2.011229
 C   -0.027051    4.268298   -0.267952
 H   -9.766081    0.705646   -0.923302
 H   -8.462712    0.510217    0.251714
 H   -8.830949   -0.797333   -0.882889
 H   -8.169178    0.713211   -2.804403
 H   -7.717588    1.964409   -1.657492
 H   -5.763516    0.687487   -2.529861
 H   -6.419447   -0.803210   -1.868778
 H   -6.178472    0.073972    0.442578
 H   -5.678288    1.641465   -0.179072
 H   -3.650712    0.579866   -1.212968
 H   -4.158476   -0.989806   -0.604110
 H   -3.488402    1.441611    1.133492
 H   -4.011622   -0.115712    1.740852
 H    4.563851    0.804628   -0.542585
 H    7.162967   -1.101769   -1.822671
 H    6.714474   -2.623368   -1.017473
 H    5.711612   -1.973237   -2.334949
 H    7.171067    0.287573    0.227651
 H    6.905654   -1.182925    1.192854
 H    5.824135    0.210714    1.380481
 H    3.799540   -1.106967    0.841129
 H    4.818878   -2.540371    0.795171
 H    3.041207   -1.620715   -1.519355
 H    3.949973   -3.124174   -1.459244
 H    1.702492   -2.382926    0.478676
 H    2.608021   -3.886152    0.507311
 H    0.870517   -2.920874   -1.824555
 H    1.804533   -4.399087   -1.826066
 H   -0.532276   -4.894869   -1.328515
 H    0.506101   -5.352923    0.006842
 H   -0.602596   -1.829131   -0.623015
 H   -1.175084   -5.386693    1.697472
 H   -2.657038   -4.133640    3.228933
 H   -3.080533   -1.731966    2.871153
 H    0.000546    0.119972    0.544049
 H   -1.912929    2.566502    0.453748
 H    0.800935    0.767839   -1.820760
 H    2.625134    0.822850   -1.486374
 H    2.484382    2.604121    1.384353
 H    3.976818    2.811986   -0.983555
 H    3.165180    4.880512    0.929081
 H    2.639103    4.762362   -0.760481
 H    0.976481    6.010175    0.534875
 H    0.351864    3.775766    2.065696
 H   -1.027622    4.622069    0.001265
 H    0.170515    4.570560   -1.304981
