82 
6fob_ligand_xtb.xyz
 C   -6.732925    0.454762   -1.780934
 C   -5.249330    0.737743   -1.986143
 C   -4.394025   -0.528440   -2.030756
 C   -4.329387   -1.257166   -0.690542
 C   -3.340369   -2.419156   -0.730878
 C   -3.224966   -3.172719    0.594526
 C   -2.620628   -2.332054    1.730201
 C   -1.275325   -1.793222    1.337344
 O    3.547020    2.650034    0.461725
 C    4.505294    1.825563   -0.205786
 C    5.836321    1.898022    0.546786
 C    4.684131    2.326377   -1.642293
 C    3.892195    0.416761   -0.161756
 C    4.793686   -0.706032   -0.668239
 C    4.099613   -2.068740   -0.616307
 C    3.067375   -2.256734   -1.724683
 C    2.325414   -3.590672   -1.587441
 C    1.546391   -3.668768   -0.303464
 C    0.526200   -2.762551   -0.056134
 C    1.829083   -4.630614    0.657032
 C    1.097223   -4.681504    1.831297
 C    0.080984   -3.774628    2.064666
 C   -0.213274   -2.792108    1.122311
 C   -1.007168   -0.500459    1.086460
 C   -1.906736    0.617173    1.203348
 C   -1.707815    1.816263    0.633652
 C   -0.553117    2.127783   -0.217112
 C   -0.174667    1.389839   -1.252303
 C    0.156329    3.408415    0.177381
 O    1.228521    3.748984   -0.664851
 C   -0.864943    4.551522    0.164006
 C   -1.994309    4.263950    1.153269
 O   -1.523962    4.164836    2.482198
 C   -2.688182    2.943514    0.807051
 H   -7.304466    1.379312   -1.827717
 H   -7.102654   -0.215719   -2.553968
 H   -6.911527   -0.004326   -0.812334
 H   -5.120993    1.279469   -2.926651
 H   -4.887485    1.382091   -1.181453
 H   -4.782624   -1.202106   -2.798551
 H   -3.378120   -0.247716   -2.320292
 H   -4.019781   -0.541796    0.070923
 H   -5.316968   -1.637922   -0.423648
 H   -3.653116   -3.124349   -1.505756
 H   -2.354913   -2.040375   -1.008651
 H   -2.591972   -4.050293    0.439195
 H   -4.213577   -3.522869    0.901339
 H   -3.300654   -1.523901    1.991226
 H   -2.517120   -2.975005    2.607987
 H    3.918578    3.535189    0.557851
 H    6.603985    1.332219    0.028488
 H    6.168327    2.933488    0.618501
 H    5.719696    1.502488    1.553009
 H    5.392162    1.704098   -2.180676
 H    5.058588    3.348982   -1.640695
 H    3.731425    2.312694   -2.166228
 H    2.967615    0.444628   -0.739846
 H    3.616888    0.214771    0.875688
 H    5.690019   -0.753125   -0.048056
 H    5.105031   -0.505068   -1.695150
 H    3.611648   -2.187907    0.353451
 H    4.853984   -2.854590   -0.705216
 H    2.343650   -1.442185   -1.694184
 H    3.567289   -2.222810   -2.695928
 H    3.044299   -4.411631   -1.631659
 H    1.637990   -3.699728   -2.431145
 H    0.282938   -2.022212   -0.804453
 H    2.622284   -5.344501    0.485328
 H    1.325177   -5.434042    2.572819
 H   -0.468593   -3.814760    2.993652
 H   -0.004808   -0.246798    0.763748
 H   -2.791864    0.486461    1.812104
 H   -0.715823    0.505597   -1.542639
 H    0.665191    1.675510   -1.863210
 H    0.515215    3.281745    1.212813
 H    1.988329    3.194664   -0.416169
 H   -1.268127    4.656052   -0.843913
 H   -0.356041    5.484015    0.421909
 H   -2.737515    5.079660    1.093530
 H   -0.983385    4.937652    2.678041
 H   -3.236737    3.086418   -0.129463
 H   -3.402523    2.704957    1.596116
