58 
6fqo_ligand_dft.xyz
 C    1.141807   -4.091646    3.378375
 C    5.536396   -0.148762   -2.178635
 C    2.634371    3.718628   -0.574534
 C   -0.670541    6.814536    0.752826
 C   -7.058102   -1.329496   -1.270762
 C   -6.841224   -2.573785   -0.767364
 C   -5.788736   -0.680673   -1.249628
 C    4.154083   -3.031089   -0.022322
 C    3.008224   -3.400560    0.663885
 C   -0.522286   -0.834077   -0.238964
 C   -1.333950    1.441758   -0.073453
 C    1.012402    0.981037    0.189035
 C    3.097482   -0.983450   -0.683398
 C    0.548771   -4.082376    1.978009
 C    5.474548   -1.467487   -1.429675
 C   -3.443921   -1.575094   -0.474017
 C   -1.576780    0.077864   -0.247014
 C    4.219199   -1.817133   -0.705944
 C    0.778657   -0.379783   -0.009864
 C   -0.035678    1.905831    0.133567
 C    1.312384    4.065213    0.013064
 C    1.891749   -2.556070    0.680849
 C   -4.905486   -1.585148   -0.732294
 C    1.931155   -1.320609   -0.004539
 C    0.204404    3.343754    0.307320
 C   -0.785623    4.311060    0.794573
 N   -2.916818   -0.307225   -0.443390
 N   -0.084605    5.507620    0.903888
 O    6.432274   -2.218971   -1.421989
 O   -2.811870   -2.604759   -0.323525
 O   -1.969054    4.196557    1.074635
 O    0.742923   -2.833941    1.325157
 O   -5.545900   -2.741960   -0.441712
 O    1.170265    5.378255    0.314444
 H    2.227977   -3.962258    3.361609
 H    0.710837   -3.280451    3.971676
 H    0.915938   -5.041909    3.873023
 H    6.520709   -0.053542   -2.638594
 H    4.765692   -0.105435   -2.956267
 H    5.369157    0.694848   -1.499405
 H    3.353258    3.443316    0.204886
 H    2.528008    2.873209   -1.258399
 H    3.035512    4.576341   -1.120610
 H   -0.733032    7.108528   -0.301198
 H   -1.675303    6.737190    1.171395
 H   -0.093267    7.552619    1.313369
 H   -7.997574   -0.926286   -1.618685
 H   -7.484322   -3.420384   -0.583974
 H   -5.567455    0.316370   -1.604785
 H    5.021839   -3.682356   -0.037831
 H    2.992572   -4.345833    1.193057
 H   -0.722218   -1.884833   -0.378757
 H   -2.154403    2.152685   -0.066940
 H    2.015744    1.311221    0.437708
 H    3.108279   -0.043168   -1.227052
 H   -0.536966   -4.192793    2.018844
 H    0.941638   -4.898171    1.359456
 H   -3.581603    0.452242   -0.426655
