57 
6frf_ligand_dft.xyz
 C   -4.310040   -0.151198    3.300741
 C   -1.061279   -4.919501   -2.146643
 C    1.543075    4.383816   -2.273680
 C   -2.462285    3.975789    0.892260
 C    7.046917   -0.882349    1.261834
 C    6.883052   -2.108083    0.696350
 C    5.762741   -0.264913    1.217609
 C   -3.818595   -3.127020   -0.135042
 C   -4.064207   -1.926772    0.512792
 C    0.538385   -0.509753    0.109411
 C    1.289180    1.770340   -0.163884
 C   -1.047446    1.240459   -0.385127
 C   -1.641609   -2.344583   -0.760865
 C   -4.405276    0.524484    1.941712
 C   -2.387145   -4.670476   -1.456567
 C    3.475548   -1.181732    0.313569
 C    1.575176    0.424040    0.067860
 C   -2.603711   -3.356128   -0.779683
 C    0.334749    4.573527   -1.413893
 C   -0.777464   -0.102043   -0.120366
 C   -0.023179    2.188337   -0.385280
 C   -1.370720    4.320901   -0.058469
 C    4.925041   -1.167511    0.626127
 C   -3.092770   -0.919838    0.526312
 C   -1.855857   -1.125754   -0.121888
 C   -0.337923    3.609304   -0.596620
 N   -0.256569    5.739784   -1.362740
 N    2.919940    0.076250    0.294508
 O   -3.257487   -5.521326   -1.450095
 O    2.868724   -2.217040    0.111527
 O   -3.260605    0.279496    1.134543
 O    5.606612   -2.293805    0.311702
 O   -1.328955    5.583871   -0.503491
 H   -4.276128   -1.240457    3.210403
 H   -3.404598    0.176833    3.818884
 H   -5.177931    0.116405    3.911928
 H   -1.070989   -5.923490   -2.572475
 H   -0.894298   -4.187954   -2.945125
 H   -0.228102   -4.830105   -1.440776
 H    2.458494    4.368795   -1.672226
 H    1.484870    3.435757   -2.816555
 H    1.622005    5.204563   -2.989782
 H   -3.425158    3.907370    0.373883
 H   -2.256240    3.010597    1.361194
 H   -2.549710    4.744465    1.665673
 H    7.960747   -0.472632    1.665840
 H    7.555052   -2.929546    0.502635
 H    5.499656    0.707587    1.610524
 H   -4.569471   -3.910158   -0.148700
 H   -5.015288   -1.785449    1.011961
 H    0.763741   -1.545341    0.321880
 H    2.091156    2.504644   -0.150482
 H   -2.062028    1.551384   -0.602624
 H   -0.690153   -2.488545   -1.264004
 H   -4.419634    1.611037    2.058819
 H   -5.319569    0.242386    1.405838
 H    3.567538    0.850007    0.316013
