44 
6ft4_ligand_xtb.xyz
 C   -3.850309   -0.097948    2.498801
 C    3.231002   -0.175043    1.427439
 C   -3.085257   -1.984461   -2.195040
 C   -2.120164    0.455474   -0.199479
 C   -2.401787    1.752956    0.204412
 C   -0.903041    0.190882   -0.831040
 C    0.009636    1.212283   -1.050056
 C   -0.278117    2.508980   -0.644528
 C   -1.495487    2.785637   -0.024529
 C    1.330066    0.885891   -1.697871
 C    2.545628    0.755136    0.437037
 N   -4.542281   -1.950328    1.082172
 N    2.143492    0.021377   -0.788674
 C   -3.830344   -0.869962    1.233624
 O   -4.320837   -2.427741   -0.162255
 C   -3.435436   -1.649888   -0.792930
 C   -3.069592   -0.619296    0.044613
 O   -1.838226    4.018138    0.383422
 C    4.442024   -0.833099    0.762000
 C    4.051524   -1.536546   -0.539933
 C    3.330304   -0.560362   -1.460126
 F    5.028398   -1.704131    1.607557
 F    5.373623    0.123746    0.488540
 H   -4.582290    0.705877    2.433349
 H   -4.145129   -0.752563    3.313742
 H   -2.874406    0.337043    2.703222
 H    2.559758   -0.957736    1.784715
 H    3.572763    0.396083    2.292388
 H   -2.334470   -2.774227   -2.226844
 H   -3.971441   -2.353748   -2.705694
 H   -2.708417   -1.104980   -2.710574
 H   -3.340058    1.995228    0.673776
 H   -0.687827   -0.817524   -1.155112
 H    0.427857    3.307397   -0.826953
 H    1.899198    1.790101   -1.918026
 H    1.168732    0.336869   -2.628672
 H    3.231648    1.554061    0.144165
 H    1.654114    1.199703    0.884250
 H    1.524677   -0.746847   -0.494806
 H   -1.176822    4.678256    0.141320
 H    3.431147   -2.400359   -0.294547
 H    4.957629   -1.900363   -1.027819
 H    4.001603    0.257999   -1.733496
 H    3.013670   -1.071126   -2.371440
