43 
6ft4_ligand_dft.xyz
 C   32.292677   29.529768   12.316331
 C   33.061677   25.931936    6.213497
 C   35.509406   31.321731    8.756252
 C   34.898387   28.616552   10.540016
 C   35.209319   27.985835   11.750338
 C   35.258483   28.003043    9.339464
 C   35.923895   26.775433    9.339012
 C   36.218567   26.150143   10.543819
 C   35.863701   26.757672   11.749041
 C   36.344095   26.142119    8.028918
 C   34.138301   25.577226    7.235914
 N   32.693015   31.537099   11.007907
 N   35.361625   26.330419    6.973856
 C   33.060634   30.316445   11.302979
 O   33.582882   31.978597   10.046289
 C   34.466443   31.010238    9.769944
 C   34.199566   29.911579   10.534112
 O   36.185401   26.098841   12.893584
 C   33.579699   25.702557    4.809215
 C   34.910900   26.382516    4.563787
 C   35.906541   26.008931    5.660504
 F   32.660604   26.126374    3.891293
 F   33.731360   24.350525    4.608738
 H   31.320963   29.997022   12.489850
 H   32.143095   28.501545   11.973882
 H   32.825594   29.488639   13.272387
 H   32.792230   26.987876    6.311978
 H   32.162999   25.326970    6.364794
 H   35.912461   32.324840    8.921834
 H   36.320697   30.593238    8.821565
 H   35.096014   31.287455    7.742439
 H   34.953518   28.465017   12.692614
 H   34.989951   28.452653    8.388830
 H   36.719971   25.187230   10.571312
 H   36.573642   25.071795    8.193101
 H   37.279009   26.612917    7.698752
 H   33.783919   25.825515    8.239855
 H   34.328144   24.487609    7.211036
 H   35.888877   26.615762   13.652141
 H   35.284126   26.088819    3.578354
 H   34.746780   27.464268    4.567919
 H   36.160420   24.935566    5.575530
 H   36.832413   26.575684    5.518020
