17 
6fu4_ligand_dft.xyz
 N   -2.312078   -0.975929    0.089041
 C   -2.129831    0.380709   -0.447814
 C   -1.021242    1.116051    0.313157
 C    0.332935    0.506381    0.133263
 N    0.530025   -0.854852    0.145334
 C    1.583437    1.038496   -0.050315
 C    1.857804   -1.073783   -0.038645
 N    2.530292    0.047878   -0.154607
 H   -2.977375   -1.489656   -0.481630
 H   -0.247564   -1.506787    0.194770
 H   -2.715387   -0.920490    1.021466
 H   -3.051870    0.981643   -0.412094
 H   -1.841319    0.286364   -1.499980
 H   -1.293191    1.149258    1.379248
 H   -0.984585    2.156923   -0.024630
 H    1.854610    2.084295   -0.112298
 H    2.280385   -2.068358   -0.081102
