51 
6fuh_ligand_dft.xyz
 N   -0.271366    2.318863    0.257163
 C    1.638939    3.638526   -0.629022
 C    0.815691    4.691585   -1.379411
 C    1.822546    1.166108   -0.183365
 C   -3.313600    0.520538    0.341685
 C   -2.896390   -0.779664   -0.044428
 C    1.148469   -2.228314    0.489194
 O    2.144946    0.935775    0.975419
 O    2.328173    0.518596   -1.220813
 C    0.886912    2.282960   -0.608602
 C    2.042570    4.133822    0.762226
 C   -1.190887    1.295546    0.182269
 N   -0.663138    0.095384   -0.176138
 C   -1.495720   -0.912451   -0.301849
 C   -3.837402   -1.833710   -0.113612
 C   -5.159932   -1.594596    0.162706
 C   -5.582184   -0.295345    0.525707
 C   -4.684158    0.737834    0.620623
 N   -2.445848    1.566129    0.445487
 N   -0.960101   -2.132390   -0.676054
 C    0.428272   -2.363290   -0.698866
 C    1.090253   -2.750851   -1.862697
 C    2.463719   -2.972080   -1.838790
 C    3.190185   -2.789590   -0.664794
 C    2.525628   -2.423366    0.510094
 C    3.305712   -2.282609    1.794832
 N    2.882725   -1.049024    2.546233
 H   -0.709404    3.221563    0.377732
 H    2.551352    3.460251   -1.213151
 H    0.539362    4.347638   -2.381159
 H   -0.104733    4.953808   -0.844811
 H    1.395581    5.612823   -1.486261
 H    0.593901   -1.958852    1.383384
 H    2.884201   -0.217176   -0.912565
 H    0.601273    2.046476   -1.642458
 H    1.165359    4.340123    1.383953
 H    2.609358    5.065137    0.670223
 H    2.662126    3.407020    1.293275
 H   -3.518279   -2.842624   -0.359574
 H   -5.882976   -2.401639    0.112195
 H   -6.631682   -0.118088    0.739072
 H   -4.990348    1.738317    0.905972
 H   -1.540750   -2.738894   -1.235344
 H    0.536184   -2.853573   -2.790409
 H    2.976211   -3.265792   -2.748652
 H    4.264315   -2.954139   -0.660548
 H    3.168776   -3.135970    2.464396
 H    4.373045   -2.175934    1.593172
 H    3.570780   -0.775589    3.251195
 H    1.993973   -1.188646    3.031763
 H    2.719798   -0.240255    1.871505
