55 
6fui_ligand_xtb.xyz
 N    0.017006    2.060546   -0.421067
 C   -2.300196    2.232690    0.417368
 C   -2.614562    3.405479   -0.534800
 C   -1.801193    4.656023   -0.172395
 C   -1.396181    4.639729    1.297452
 C    3.173769   -0.491333    0.001817
 O   -1.944312    0.531501   -1.233142
 C   -2.674836    0.929160   -0.223437
 O   -3.619270    0.252029    0.167177
 C   -0.449072    3.472122    1.592660
 C   -0.803382    2.208469    0.789104
 C    1.120963    1.207074   -0.309167
 N    0.820182   -0.042753    0.076421
 C    1.815961   -0.893708    0.220809
 C    4.307482   -1.302500    0.175934
 C    5.555150   -0.819985   -0.122689
 C    5.718013    0.483722   -0.608034
 C    4.634082    1.300118   -0.788604
 C    3.344052    0.833961   -0.482319
 N    2.290729    1.672352   -0.633458
 N    1.523782   -2.172964    0.584464
 C    0.298881   -2.820723    0.523823
 C    0.104862   -3.965543    1.297685
 C   -1.079534   -4.670887    1.215410
 C   -2.078041   -4.263961    0.346899
 C   -1.885858   -3.136386   -0.444098
 C   -0.711144   -2.410622   -0.344440
 C   -2.946785   -2.726128   -1.430774
 N   -4.113068   -2.129938   -0.723196
 H    0.317785    2.954092   -0.799656
 H   -2.881449    2.335893    1.335761
 H   -2.406257    3.118613   -1.567335
 H   -3.681347    3.620611   -0.464681
 H   -2.396618    5.544727   -0.380104
 H   -0.903819    4.720809   -0.790403
 H   -2.292362    4.563132    1.914648
 H   -0.902973    5.576168    1.556582
 H   -1.097406    1.084194   -1.248619
 H    0.577618    3.754012    1.349581
 H   -0.476805    3.245517    2.658657
 H   -0.611078    1.314339    1.393368
 H    4.208631   -2.313511    0.545206
 H    6.421785   -1.448006    0.014317
 H    6.709822    0.841816   -0.837507
 H    4.734484    2.309142   -1.154122
 H    2.289415   -2.719927    0.950922
 H    0.887893   -4.303561    1.959855
 H   -1.219628   -5.552416    1.820622
 H   -2.986689   -4.842707    0.266634
 H   -0.559250   -1.538924   -0.957040
 H   -3.280802   -3.599509   -1.996361
 H   -2.553581   -1.980421   -2.122340
 H   -4.921622   -2.041969   -1.341737
 H   -4.365730   -2.707342    0.082712
 H   -3.866348   -1.114333   -0.352612
