32 
6fyi_ligand_dft.xyz
 C   13.479977   92.188447   36.148035
 C   12.325651   91.611726   35.333725
 C   13.118044   86.732871   37.082192
 C   11.653143   89.111253   36.873156
 C   10.850327   90.253241   36.826998
 C   10.290800   93.697412   35.790662
 C    9.243132   94.660642   36.029372
 C    9.426809   96.044779   35.434061
 N   11.121559   91.427675   36.127726
 C   10.200577   92.433972   36.308998
 S    8.861864   91.889048   37.314209
 C    9.643297   90.320455   37.516446
 C    9.202047   89.228334   38.256231
 C    9.977832   88.081568   38.305110
 C   11.199509   88.023617   37.619860
 O   11.882486   86.857734   37.746617
 O    8.238835   94.389350   36.688422
 H   14.364843   92.318849   35.517332
 H   13.205108   93.160691   36.567442
 H   13.738409   91.521175   36.976147
 H   12.074808   92.258233   34.488964
 H   12.592109   90.641425   34.905907
 H   13.483425   85.731355   37.311538
 H   13.003549   86.835032   35.994947
 H   13.845734   87.472796   37.441001
 H   12.603008   89.079486   36.355267
 H   11.158259   93.993625   35.212780
 H    8.566202   96.666435   35.685767
 H   10.339374   96.511605   35.822166
 H    9.527074   95.984416   34.344336
 H    8.260188   89.271708   38.794152
 H    9.664022   87.214043   38.874433
