37 
6fyv_ligand_dft.xyz
 C   -1.326574   -0.256197   -0.032026
 C   -2.350486    0.714499   -0.039707
 C   -3.690668    0.288326   -0.072951
 C   -4.006235   -1.053277   -0.073996
 C   -2.984657   -2.021965   -0.051298
 C   -1.663238   -1.620888   -0.047720
 C   -0.566434    2.418500    0.007810
 C   -1.938030    2.106378   -0.013914
 N    0.013192    0.058617   -0.020603
 C    0.388057    1.300502   -0.011778
 C   -1.190953    4.739733    0.065799
 N   -2.504451    4.457618    0.037558
 C   -2.848377    3.184607    0.001942
 C   -0.205496    3.775914    0.054296
 N    1.722665    1.616431   -0.017807
 C    2.863827    0.798306   -0.017564
 C    2.830604   -0.597823    0.038743
 C    4.035320   -1.292172    0.042099
 C    5.267817   -0.656080   -0.009091
 C    5.282963    0.734700   -0.065357
 C    4.100626    1.457131   -0.069490
Cl    3.982330   -3.038709    0.113585
 C   -3.270993   -3.495370   -0.062568
 O   -4.461592   -3.876888    0.452045
 O   -2.505730   -4.315324   -0.495168
 H   -4.496953    1.012553   -0.108000
 H   -5.050801   -1.346319   -0.141636
 H   -0.869344   -2.359678   -0.056597
 H   -0.930307    5.794078    0.101245
 H   -3.917926    2.993564   -0.013252
 H    0.826956    4.107088    0.091850
 H    1.938738    2.597503   -0.065676
 H    1.886830   -1.119645    0.074556
 H    6.186398   -1.230977   -0.005610
 H    6.231447    1.260757   -0.106527
 H    4.135031    2.543336   -0.113281
 H   -4.883388   -3.134130    0.903551
