37 
6fyv_ligand_xtb.xyz
 C   -1.278100   -0.253247   -0.024373
 C   -2.325242    0.699356   -0.016184
 C   -3.648819    0.242426   -0.021887
 C   -3.933799   -1.101290   -0.017154
 C   -2.897074   -2.047887   -0.021558
 C   -1.585379   -1.620984   -0.039326
 C   -0.574280    2.430494   -0.021793
 C   -1.946663    2.088978   -0.017643
 N    0.032033    0.091742   -0.016168
 C    0.394114    1.340508   -0.009541
 C   -1.249110    4.730879   -0.044254
 N   -2.541177    4.415535   -0.030968
 C   -2.871441    3.149254   -0.019353
 C   -0.241863    3.792396   -0.039271
 N    1.716589    1.658743    0.015305
 C    2.839463    0.841213    0.033929
 C    2.775594   -0.548386   -0.017768
 C    3.950438   -1.279344    0.004926
 C    5.190934   -0.665938    0.076683
 C    5.244796    0.716747    0.126042
 C    4.086302    1.467234    0.104875
Cl    3.857353   -3.002711   -0.058347
 C   -3.156007   -3.518112   -0.033645
 O   -4.320303   -3.921741    0.511184
 O   -2.383842   -4.315423   -0.486693
 H   -4.464000    0.948830   -0.033246
 H   -4.969281   -1.413968   -0.052953
 H   -0.784793   -2.343191   -0.058207
 H   -1.029337    5.789705   -0.058957
 H   -3.934905    2.957146   -0.011571
 H    0.782811    4.133475   -0.052991
 H    1.933162    2.644621    0.040148
 H    1.817342   -1.034261   -0.073619
 H    6.091764   -1.257253    0.093285
 H    6.201950    1.212364    0.181970
 H    4.144771    2.546122    0.144408
 H   -4.826636   -3.188113    0.884324
