26 
6fzu_ligand_dft.xyz
 C   -1.221761   -0.621487    0.114461
 C   -0.731793    0.684155    0.018357
 C   -0.318467   -1.670194    0.277260
 C    3.851688   -0.814565    0.366511
 C    4.090158   -1.446601   -0.997094
 N   -2.594610   -0.937147    0.053730
 C    0.634894    0.906533    0.085932
 C    1.049104   -1.434804    0.344765
 C   -3.660820   -0.089454   -0.113585
 C    1.556053   -0.137959    0.251630
Cl    1.224566    2.541404   -0.036413
 C   -5.015770   -0.774718   -0.133739
 O   -3.559628    1.117670   -0.238221
 O    2.861966    0.202046    0.328145
 H   -1.414218    1.512447   -0.109170
 H   -0.678482   -2.693571    0.351761
 H    4.751695   -0.297433    0.706458
 H    3.599988   -1.565969    1.126325
 H    3.198011   -1.957522   -1.370557
 H    4.369475   -0.676330   -1.721195
 H    4.903346   -2.176982   -0.933423
 H   -2.808992   -1.918190    0.145103
 H    1.716348   -2.279263    0.470086
 H   -5.629484   -0.350628    0.665264
 H   -5.506426   -0.542668   -1.082615
 H   -4.975030   -1.860903   -0.011508
