62 
6g1w_ligand_xtb.xyz
 C   -1.645490    3.174956   -0.339901
 C   -3.177470   -0.124755   -1.284479
 C   -4.283517    1.150025    2.145021
 C   -0.225780   -2.956750    0.730393
 C    1.646204   -1.828383   -0.364262
 C   -4.391756   -2.100497   -1.970403
 C   -3.180052   -2.790971   -2.164891
 C   -1.990725   -2.146001   -2.015072
 C   -1.951785   -0.788577   -1.609086
 C   -0.710831    1.094633   -1.205404
 C    0.561429    1.719897   -1.228944
 C    0.698131    3.006438   -0.807930
 C   -0.409354    3.747887   -0.354098
 C   -1.852593    1.842020   -0.768000
 C   -3.101805    1.180364   -0.751554
 C   -4.391843   -0.804972   -1.544072
 C   -5.025426    1.202380    0.794408
 C   -3.185146   -1.103932    1.972169
 C   -1.853832   -1.465854    1.954765
 C   -1.239303   -2.814125    1.878417
 C    2.826216   -1.003899    0.070236
 C    4.115301   -1.414881   -0.257605
 C    5.224784   -0.654676    0.076533
 C    5.035951    0.557508    0.766554
 C    3.754575    0.956735    1.098639
 C    2.654136    0.188245    0.753758
 C    6.764658   -2.181233   -0.894061
 N   -0.769636   -0.183011   -1.556164
 N   -3.171560    0.245242    2.087512
 N   -1.921615    0.681108    2.129197
 N   -1.132477   -0.323724    2.054923
 N    0.664873   -1.960829    0.692100
 N   -4.236695    1.807429   -0.255387
 O   -0.228648   -3.921248   -0.008048
 O    6.135983    1.295771    1.083980
 O    6.515936   -0.981390   -0.208323
Cl    2.250060    3.761617   -0.817653
 H   -2.476707    3.777658   -0.000147
 H   -4.975777    0.828674    2.928961
 H   -3.874480    2.130465    2.402480
 H    1.953541   -2.836265   -0.654611
 H    1.165541   -1.349539   -1.230861
 H   -5.326519   -2.601246   -2.176471
 H   -3.202891   -3.826349   -2.468540
 H   -1.052468   -2.641204   -2.202610
 H    1.402268    1.146087   -1.581974
 H   -0.265977    4.764411   -0.024104
 H   -5.323426   -0.264112   -1.465923
 H   -5.938372    1.791223    0.912220
 H   -5.297905    0.184983    0.515437
 H   -4.085693   -1.677108    1.919587
 H   -0.696978   -3.019130    2.805996
 H   -2.013278   -3.571018    1.750317
 H    4.238706   -2.346192   -0.787472
 H    3.613676    1.889364    1.628592
 H    1.668003    0.539547    1.016173
 H    6.420124   -3.051165   -0.324600
 H    6.294623   -2.186638   -1.883426
 H    7.846147   -2.233534   -1.010243
 H    0.485398   -1.143047    1.262989
 H   -4.069024    2.785645   -0.056915
 H    5.856000    2.102940    1.532309
