62 
6g1w_ligand_dft.xyz
 C   -0.508320    3.310588   -0.122771
 C   -2.577780    0.496806   -1.516554
 C   -3.944553    2.101455    1.628708
 C   -1.248637   -3.272161    0.820880
 C    1.056825   -2.967236    0.103094
 C   -4.145551   -1.146638   -2.375179
 C   -3.126342   -2.139994   -2.330567
 C   -1.853310   -1.805279   -1.978093
 C   -1.525140   -0.470215   -1.582935
 C    0.044105    1.038203   -0.871247
 C    1.415668    1.317918   -0.573023
 C    1.766351    2.538905   -0.089922
 C    0.802502    3.554160    0.154699
 C   -0.936842    2.064583   -0.671639
 C   -2.280243    1.762416   -0.976628
 C   -3.875893    0.133662   -1.989468
 C   -4.380371    2.401466    0.188307
 C   -3.666653   -0.414621    1.470861
 C   -2.573749   -1.213306    1.701731
 C   -2.445125   -2.700466    1.594505
 C    2.243926   -2.076511    0.378676
 C    3.225490   -1.927473   -0.604004
 C    4.343654   -1.129444   -0.404613
 C    4.497373   -0.446643    0.812801
 C    3.515733   -0.576931    1.788714
 C    2.403480   -1.388876    1.578696
 C    5.358373    0.217883   -2.030935
 N   -0.249183   -0.199399   -1.283294
 N   -3.239378    0.838955    1.752988
 N   -1.956966    0.829143    2.134893
 N   -1.554945   -0.403601    2.112016
 N   -0.118663   -2.533952    0.827214
 N   -3.309144    2.690464   -0.759427
 O   -1.329986   -4.375564    0.298052
 O    5.613215    0.315626    0.976386
 O    5.287147   -1.047448   -1.389730
Cl    3.439362    2.903312    0.266159
 H   -1.226453    4.094422    0.097707
 H   -4.826768    2.080716    2.277860
 H   -3.256372    2.862347    2.004280
 H    1.269026   -4.003769    0.390071
 H    0.860099   -2.974115   -0.976206
 H   -5.133269   -1.408297   -2.742679
 H   -3.358365   -3.163000   -2.609349
 H   -1.058370   -2.541936   -1.978876
 H    2.141099    0.529212   -0.736523
 H    1.119477    4.504144    0.569705
 H   -4.633587    0.903976   -2.084762
 H   -5.036285    3.277296    0.208092
 H   -4.985706    1.568406   -0.175922
 H   -4.662065   -0.632305    1.117117
 H   -2.390766   -3.134958    2.601021
 H   -3.336148   -3.116101    1.119687
 H    3.131238   -2.428102   -1.563521
 H    3.621432   -0.039533    2.728712
 H    1.657923   -1.472186    2.363456
 H    4.389663    0.481376   -2.476358
 H    5.663433    1.004052   -1.333709
 H    6.104579    0.117763   -2.821361
 H   -0.171537   -1.567392    1.127678
 H   -2.955171    3.626872   -0.624706
 H    5.528858    0.809124    1.800909
