26 
6g24_ligand_xtb.xyz
 C   -2.391667    0.321027    0.062361
 C    1.070957   -1.014465    0.154087
 C   -1.363725   -0.630532   -0.085575
 C    4.570392    0.606691   -0.205703
 C   -3.722779   -0.088572    0.094107
 C   -4.058167   -1.424018   -0.022275
 C   -2.082027    1.766078    0.261380
 C    4.753544   -0.657415    0.262631
 C   -1.732832   -1.972496   -0.226144
 C   -3.054516   -2.365829   -0.190643
 C    0.025067   -0.224462   -0.142129
 C    2.438011   -0.602760    0.094354
 C    3.541468   -1.348123    0.433073
 O   -1.173760    2.182199    0.925241
 O   -2.923070    2.623693   -0.356078
 S    2.913938    0.982886   -0.445472
 H    0.921021   -2.031864    0.492071
 H    5.313821    1.347154   -0.425352
 H   -4.508050    0.639486    0.254329
 H   -5.093138   -1.727808    0.015825
 H    5.719222   -1.078659    0.478494
 H   -0.964122   -2.713579   -0.381625
 H   -3.308041   -3.410262   -0.295785
 H    0.220990    0.804783   -0.408152
 H    3.475706   -2.359091    0.794572
 H   -3.588127    2.165783   -0.887278
