26 
6g24_ligand_dft.xyz
 C   -2.442662    0.303494    0.068452
 C    1.069830   -0.926356    0.163290
 C   -1.376821   -0.603088   -0.112596
 C    4.673334    0.567434   -0.197576
 C   -3.760508   -0.161648    0.128855
 C   -4.050256   -1.513327    0.003084
 C   -2.188278    1.771101    0.257116
 C    4.793714   -0.688171    0.320583
 C   -1.699693   -1.957291   -0.281601
 C   -3.009517   -2.411084   -0.214018
 C    0.022967   -0.155671   -0.168962
 C    2.470624   -0.547365    0.106846
 C    3.533897   -1.324963    0.493275
 O   -1.263262    2.233376    0.871889
 O   -3.101727    2.595020   -0.308790
 S    3.027754    0.992483   -0.480549
 H    0.901967   -1.934177    0.540258
 H    5.460666    1.272131   -0.427504
 H   -4.569788    0.538127    0.323244
 H   -5.076403   -1.860132    0.068306
 H    5.744221   -1.143626    0.571538
 H   -0.904170   -2.664723   -0.493075
 H   -3.218632   -3.468999   -0.340650
 H    0.195725    0.874779   -0.464413
 H    3.409154   -2.325700    0.892540
 H   -3.686683    2.087043   -0.886733
