41 
6g29_ligand_xtb.xyz
 C   -0.994982    2.359478    0.141485
 C    1.266883    0.720884    0.326924
 C    3.580597   -0.232480    0.235129
 N    3.936105   -2.561075   -0.145986
 C    2.627250   -2.727651   -0.204006
 C   -2.242420    0.296600    0.261899
 C   -3.735667   -1.610209    0.881416
 C   -2.076185   -0.326418   -1.133731
 C    2.485898    2.495730   -0.995957
 C    1.420287    1.986666   -0.087681
 C    0.367190    2.973408    0.353285
 O   -1.930411    2.886747   -0.416212
 N   -1.076920    1.080713    0.621911
 N    0.059430    0.351200    1.005021
 C    2.198236   -0.397392    0.151791
 C    4.395486   -1.342615    0.074375
 C    1.721918   -1.692154   -0.058626
 C   -2.515859   -0.800066    1.291755
 N   -3.510698   -2.201667   -0.465777
 C   -3.298467   -1.149716   -1.499340
 H    4.010454    0.731762    0.449608
 H    2.293532   -3.743196   -0.374740
 H   -3.070772    1.013989    0.235139
 H   -4.617971   -0.969406    0.828925
 H   -3.925486   -2.412081    1.597042
 H   -1.172651   -0.939403   -1.154905
 H   -1.952284    0.474328   -1.862692
 H    3.181138    3.130215   -0.446195
 H    3.040095    1.685027   -1.460131
 H    2.036901    3.108179   -1.777163
 H    0.487179    3.188165    1.420936
 H    0.425831    3.911018   -0.196155
 H    0.182213    0.372940    2.017803
 H    5.471590   -1.252638    0.131019
 H    0.659499   -1.877384   -0.109001
 H   -2.697065   -0.354609    2.269274
 H   -1.637960   -1.443770    1.377288
 H   -4.302954   -2.798484   -0.726393
 H   -2.666457   -2.787081   -0.424825
 H   -3.171853   -1.624985   -2.473475
 H   -4.186094   -0.515159   -1.530159
