38 
6g29_ligand_dft.xyz
 C   -4.748052    5.735303  -20.599024
 C   -3.481849    8.154857  -20.007318
 C   -1.551339    9.644508  -19.336589
 N   -1.692454   12.038662  -19.527377
 C   -2.933129   11.881997  -19.995918
 C   -5.355724    6.811122  -22.753893
 C   -5.033208    6.940496  -25.239259
 C   -6.441422    7.880842  -22.877408
 C   -2.826952    7.301598  -17.657899
 C   -3.464756    7.109915  -19.008166
 C   -4.092329    5.949990  -19.324598
 O   -5.303576    4.700771  -20.940887
 N   -4.708316    6.861620  -21.434313
 N   -4.100454    8.008233  -21.146257
 C   -2.852236    9.489181  -19.816895
 C   -1.026326   10.926891  -19.212989
 C   -3.551052   10.648122  -20.158858
 C   -4.325160    6.942765  -23.876319
 N   -6.086336    7.942312  -25.363666
 C   -7.059791    7.836036  -24.282842
 H   -0.938524    8.786061  -19.083784
 H   -3.464532   12.795859  -20.252489
 H   -5.812910    5.819696  -22.794179
 H   -5.491172    5.956616  -25.409578
 H   -4.306527    7.094545  -26.043267
 H   -5.993277    8.867076  -22.701733
 H   -7.211277    7.723531  -22.112743
 H   -3.232393    6.581442  -16.942928
 H   -1.743598    7.147371  -17.703903
 H   -2.996698    8.311031  -17.273093
 H   -4.145623    5.121086  -18.626276
 H   -0.011926   11.065468  -18.845160
 H   -4.562240   10.581181  -20.545476
 H   -3.602038    6.120873  -23.817255
 H   -3.773307    7.882227  -23.744397
 H   -5.666856    8.869090  -25.342940
 H   -7.798598    8.635798  -24.396600
 H   -7.597045    6.886831  -24.413722
