33 
6g2c_ligand_dft.xyz
 N   -3.318407   -2.220475    0.666417
 C   -3.585087   -1.293080   -0.254774
 C   -2.754753   -0.213215   -0.534325
 C   -1.567651   -0.064175    0.188300
 C   -0.620560    1.028360   -0.056313
 C    0.756625    1.015832   -0.169656
 C    0.172342    3.064127   -0.286413
 C    1.664245   -0.129088   -0.174729
 C    1.558780   -1.387472   -0.848387
 C   -1.285848   -1.030200    1.159338
 C   -2.179491   -2.076921    1.349894
 N    1.234106    2.297593   -0.310428
 N   -0.981389    2.361448   -0.147075
 C   -2.309915    2.931881   -0.043588
 C    2.886352   -0.193421    0.429283
 O    3.455760   -1.374308    0.164382
 N    2.621956   -2.125435   -0.644024
 C    3.651237    0.767994    1.268686
 C    0.458369   -1.893187   -1.724778
 H   -4.511126   -1.424985   -0.810429
 H   -3.018931    0.481434   -1.325153
 H    0.172590    4.143738   -0.362792
 H   -0.376642   -0.967043    1.747699
 H   -1.971993   -2.840311    2.096330
 H   -2.845295    2.871937   -0.995631
 H   -2.883546    2.404481    0.721288
 H   -2.218354    3.980835    0.244470
 H    3.829308    1.691874    0.712493
 H    3.082539    1.031655    2.165983
 H    4.605373    0.329427    1.568364
 H   -0.362620   -2.308119   -1.131829
 H    0.050973   -1.079873   -2.332767
 H    0.839904   -2.677109   -2.382549
