33 
6g35_ligand_dft.xyz
 O    2.059571   -1.790684    1.692218
 C    1.775976    0.189881   -0.839219
 C   -0.443465   -1.024610   -0.558470
 C   -1.726911   -0.666805   -0.263512
 N   -3.982654    1.508756    0.490200
 C   -1.749531    0.746589   -0.056186
 C   -2.675260    1.759572    0.276218
 N   -2.261222    3.029883    0.392966
 C   -0.967243    3.294849    0.195121
 C   -0.430861    1.181266   -0.242692
 N    0.007359    2.449758   -0.120470
Br   -3.186198   -1.839984   -0.148628
 N    0.344583    0.104884   -0.549919
 C    2.562531    0.804425    0.340101
 O    2.834952    2.168109    0.174561
 C    3.866113    0.004140    0.292002
 O    4.741508    0.572818   -0.650769
 O    2.274043   -1.091271   -1.072614
 C    3.403728   -1.357966   -0.230158
 C    3.025889   -2.367688    0.838311
 H    1.732780   -2.467233    2.294359
 H    1.901552    0.811654   -1.734119
 H   -0.012552   -1.988187   -0.773535
 H   -4.357288    0.577935    0.403420
 H   -4.588705    2.281644    0.712675
 H   -0.679099    4.336612    0.311235
 H    2.029186    0.596213    1.273588
 H    1.963319    2.600893    0.058656
 H    4.337243   -0.075170    1.281094
 H    4.551107    1.524610   -0.637897
 H    4.187735   -1.788371   -0.860760
 H    2.633013   -3.264643    0.338506
 H    3.935777   -2.653189    1.389066
