33 
6g38_ligand_xtb.xyz
 O    2.513683   -1.775526    1.660884
 C    3.540464   -1.604289    0.720045
 C    3.177981   -0.536083   -0.319999
 O    1.948238   -0.928074   -0.939701
 C    0.991956    0.088440   -0.837224
 N   -0.308082   -0.495738   -0.612853
 C   -0.655076   -1.813641   -0.784509
 C   -1.977646   -1.991701   -0.517680
 C   -2.497974   -0.716938   -0.166867
 C   -3.734122   -0.154691    0.207257
 N   -3.814325    1.154546    0.454170
 C   -2.724289    1.892594    0.350540
 N   -1.508755    1.501660    0.017350
 C   -1.418839    0.190290   -0.241657
 N   -4.858734   -0.882317    0.354263
 C    1.431252    0.999577    0.334085
 O    1.059177    2.330495    0.178112
 C    2.962778    0.860829    0.283119
 O    3.532254    1.831337   -0.547916
 H    1.707983   -1.981082    1.168688
 H    4.430669   -1.302401    1.272970
 H    3.744953   -2.548104    0.196211
 H    3.956974   -0.477342   -1.088354
 H    0.963208    0.688674   -1.766254
 H    0.089209   -2.518903   -1.095361
 H   -2.513889   -2.918488   -0.564998
 H   -2.842974    2.946221    0.564628
 H   -4.879703   -1.848728    0.088037
 H   -5.713691   -0.396800    0.558551
 H    1.049964    0.575750    1.275704
 H    0.074810    2.345954    0.127710
 H    3.395458    0.923452    1.290916
 H    2.960576    2.612559   -0.492647
