49 
6g3o_ligand_xtb.xyz
 C    2.081465    1.664300   -0.828186
 C    1.508692   -1.406578   -0.350002
 C    2.518152   -1.409121    0.807736
 O    1.595245    4.153688   -0.659505
 C    3.538305   -2.548883    0.781322
 O    3.183371    1.309463   -1.186191
 C    4.342936   -2.696074   -0.512227
 C    5.028051   -1.406376   -0.973806
 C    5.849016   -0.785959    0.132508
 C    1.348497    2.973717   -0.621546
 C    0.168132    2.179761   -0.255623
 C    0.857630    0.968127   -0.386243
 N    0.558773   -0.315779   -0.173886
 N    5.570625    0.507209    0.358446
 O    6.683135   -1.365712    0.811805
 O    6.324774    1.179157    1.328348
 C    0.711116   -2.700389   -0.445567
 N   -1.059458    2.599592    0.130966
 C   -2.237096    1.876444    0.217037
 C   -3.276010    2.363267    1.016005
 C   -4.460355    1.668834    1.120248
 C   -4.627515    0.478121    0.423516
 C   -3.621146   -0.006833   -0.393262
 C   -2.433851    0.697265   -0.499037
 O   -5.872695   -0.148643    0.610914
 C   -6.143105   -1.286795    0.008924
 F   -7.360582   -1.681640    0.357610
 F   -5.302891   -2.291363    0.326864
 F   -6.125272   -1.222262   -1.334965
 H    2.037248   -1.224645   -1.290024
 H    1.964842   -1.469179    1.749417
 H    3.047285   -0.455640    0.797437
 H    3.033687   -3.496280    0.981596
 H    4.238317   -2.377860    1.601065
 H    3.703208   -3.057578   -1.319837
 H    5.111294   -3.450232   -0.332823
 H    4.304093   -0.679681   -1.335859
 H    5.709573   -1.648618   -1.792412
 H   -0.275133   -0.534907    0.353147
 H    4.985838    1.113324   -0.198950
 H    6.922537    0.473011    1.654199
 H    0.225624   -2.919218    0.503769
 H   -0.050096   -2.619781   -1.218630
 H    1.362937   -3.530242   -0.697074
 H   -1.113864    3.587338    0.346859
 H   -3.146079    3.289092    1.555300
 H   -5.268090    2.029383    1.734873
 H   -3.739885   -0.912834   -0.965281
 H   -1.672344    0.344184   -1.174782
