35 
6g3v_ligand_xtb.xyz
 C    2.828647    2.009735    1.152690
 C    2.418263    2.682853   -0.160717
 N   -5.532745   -0.923282    1.066211
 O    2.087756   -1.633617   -0.865099
 S    3.465246   -1.512893   -0.525655
 O    4.469286   -1.620451   -1.532357
 N    3.771508   -2.568634    0.718564
 N    3.738237   -0.048749    0.203403
 C    2.799017    0.511680    1.063240
 N    1.980213   -0.155344    1.739185
 S    0.611792    2.795289   -0.395086
 C    0.180263    1.148577   -1.094585
 C   -1.012861    0.586975   -0.411960
 N   -2.202800    0.536084   -1.074176
 C   -3.141238    0.033063   -0.346419
 S   -2.620672   -0.436750    1.270160
 C   -1.038814    0.118712    0.862104
 N   -4.402473   -0.120883   -0.835502
 C   -5.564364   -0.655613   -0.272146
 N   -6.604368   -0.928216   -0.941585
 H    2.148968    2.317320    1.946852
 H    3.843043    2.324223    1.412015
 H    2.840393    2.179592   -1.030781
 H    2.746417    3.721870   -0.157948
 H   -6.428183   -1.213338    1.425213
 H   -5.001549   -0.312006    1.664067
 H    3.123286   -3.339187    0.715156
 H    4.725893   -2.887874    0.709730
 H    4.397767    0.541764   -0.274337
 H    2.024986   -1.159356    1.603899
 H    1.038391    0.493740   -0.962818
 H   -0.037238    1.290522   -2.152131
 H   -0.231353    0.064011    1.564135
 H   -4.466946    0.113297   -1.818539
 H   -6.528549   -0.785082   -1.941526
