51 
6g4n_ligand_dft.xyz
 C    2.418250   -2.664137   -0.696130
 C   -2.704829   -0.373446    1.367853
 C   -2.079575    1.688290   -2.220186
 C   -3.422184    1.481695   -2.345561
 C   -3.976230    0.186730   -2.133798
 C   -3.171296   -0.865219   -1.813550
 C    0.592112    3.009056   -0.804567
 C    1.776238    2.915477    0.162352
 C    1.577188    3.605348    1.513505
 C    0.361067    3.088702    2.308233
 C    0.162988    1.590264    2.253568
 C    3.070488   -1.416188   -0.897177
 C    1.192256    0.680651    2.543480
 C    0.955479   -0.669915    2.411106
 C   -0.315447   -1.124927    2.032290
 C   -1.304541   -0.152909    1.792838
 C    2.384914   -0.296901   -1.254844
 C    0.967418   -0.348590   -1.429736
 C    0.294655   -1.599903   -1.234574
 C    1.071167   -2.744073   -0.865452
 C    0.185320    0.784220   -1.735994
 C   -1.207875    0.615242   -1.863476
 C   -1.760036   -0.689385   -1.666127
 N   -1.026233   -1.764054   -1.345809
 N    0.730559    2.064651   -1.927203
 N   -1.032662    1.164614    1.872751
 N   -3.548460   -1.315634    1.541806
 O   -3.038934   -2.376899    2.308251
 O   -0.460897   -2.448055    1.885889
Cl    4.801764   -1.336954   -0.654094
 H    3.002023   -3.530941   -0.406832
 H   -3.123804    0.467623    0.821562
 H   -1.646306    2.662419   -2.418743
 H   -4.074685    2.302987   -2.625716
 H   -5.047407    0.041205   -2.236357
 H   -3.565486   -1.860589   -1.641672
 H    0.497350    4.027283   -1.200969
 H   -0.343219    2.769790   -0.291070
 H    2.671773    3.323920   -0.325922
 H    1.977339    1.854761    0.345517
 H    1.470310    4.688892    1.380250
 H    2.491911    3.461715    2.101873
 H   -0.562684    3.538739    1.933440
 H    0.461200    3.412412    3.352112
 H    2.173789    1.038587    2.841365
 H    1.730354   -1.408024    2.589115
 H    2.926057    0.633301   -1.382553
 H    0.534506   -3.672199   -0.707732
 H    1.696039    2.019649   -2.230886
 H   -3.755130   -3.023107    2.285118
 H   -1.412847   -2.668117    1.849435
