51 
6g4n_ligand_xtb.xyz
 C    2.550376   -2.526849   -0.707260
 C   -1.641064   -0.675976    2.041091
 C   -2.945051    0.655181   -1.710545
 C   -4.208844    0.197139   -1.480015
 C   -4.418449   -1.083885   -0.936140
 C   -3.359953   -1.897773   -0.671984
 C   -0.620468    2.748296   -1.469721
 C    0.615885    3.465034   -0.913816
 C    0.313405    4.435110    0.227530
 C   -0.351795    3.765713    1.442117
 C    0.151276    2.373639    1.706033
 C    2.886933   -1.232885   -1.145498
 C    1.509671    2.085838    1.879479
 C    1.883295    0.773447    2.038926
 C    0.917936   -0.243082    2.067331
 C   -0.431896    0.142518    1.953685
 C    1.931804   -0.317084   -1.476604
 C    0.559638   -0.638557   -1.362436
 C    0.206340   -1.939505   -0.879931
 C    1.239611   -2.865599   -0.581827
 C   -0.483668    0.280651   -1.628736
 C   -1.814585   -0.138889   -1.405721
 C   -2.032683   -1.462356   -0.909595
 N   -1.046027   -2.322017   -0.665191
 N   -0.221940    1.526658   -2.151296
 N   -0.758221    1.426694    1.748707
 N   -1.928871   -1.891561    2.240554
 O   -0.905501   -2.828304    2.431204
 O    1.373216   -1.492761    2.206473
Cl    4.560901   -0.801479   -1.253201
 H    3.336131   -3.224558   -0.464745
 H   -2.533898   -0.072707    1.919288
 H   -2.799086    1.621898   -2.164743
 H   -5.061119    0.813662   -1.725520
 H   -5.427786   -1.421016   -0.750884
 H   -3.491275   -2.893231   -0.279656
 H   -1.148286    3.405828   -2.170346
 H   -1.293860    2.481964   -0.655230
 H    1.115293    4.007689   -1.720925
 H    1.311543    2.708300   -0.542011
 H   -0.335338    5.236573   -0.130197
 H    1.257576    4.890127    0.534509
 H   -1.430540    3.698833    1.298371
 H   -0.174718    4.385782    2.324399
 H    2.246359    2.874673    1.880968
 H    2.917140    0.484150    2.149200
 H    2.246142    0.663839   -1.802817
 H    0.942850   -3.844005   -0.239282
 H    0.708994    1.607653   -2.538324
 H   -1.356405   -3.681137    2.366420
 H    0.632382   -2.129832    2.246932
