63 
6g4y_ligand_xtb.xyz
 C   -7.576690   -0.521810    0.752003
 C    1.296272    3.945085   -0.224658
 C   -6.593716   -0.653836   -0.420012
 C   -2.303360    3.914774    0.125942
 C   -5.449795    0.239865   -0.270778
 C   -4.476156    0.944631   -0.207370
 C   -3.328965    1.766782   -0.113765
 C   -3.440829    3.149359    0.065979
 C   -1.023465    3.355243    0.020693
 N   -6.307345   -2.478609    1.006018
 C   -7.025999   -1.500335    1.792626
 C   -5.870484   -3.726604    1.567498
 O   -7.232650   -0.497694   -1.663524
 O   -0.034497    4.287748    0.071085
 C    1.866179    2.884079    0.717641
 N    1.571969    1.576286    0.201505
 C    0.333195    1.192464   -0.205828
 N    0.356179   -0.043353   -0.659792
 C    1.638083   -0.479528   -0.559528
 C    1.909037   -1.857209   -1.012275
 N    0.824782   -2.445283   -1.537227
 O    2.990424   -2.430007   -0.927348
 C    2.433953    0.530963   -0.019537
 C    3.887136    0.633259    0.265730
 O    4.408025    1.680564    0.639756
 N    4.572829   -0.497995    0.077882
 C    6.000454   -0.584733    0.275583
 C    6.331578   -1.589863    1.382870
 C    7.850092   -1.732317    1.499510
 O    8.436681   -2.136895    0.285319
 C    8.190710   -1.212885   -0.748051
 C    6.695020   -1.032337   -1.013300
 C   -0.895855    1.964704   -0.124927
 C   -2.068214    1.202150   -0.202309
 C   -6.042233   -2.087076   -0.248048
 O   -5.479926   -2.719450   -1.115647
 H   -7.639994    0.497706    1.125195
 H   -8.559627   -0.833041    0.397963
 H    1.384410    3.599953   -1.263868
 H    1.846223    4.882036   -0.113971
 H   -2.359317    4.985332    0.246877
 H   -4.415398    3.606141    0.143984
 H   -6.342087   -0.998277    2.489434
 H   -7.816139   -1.987814    2.370113
 H   -5.191129   -3.554368    2.405961
 H   -5.350164   -4.277427    0.785728
 H   -6.726203   -4.309517    1.915680
 H   -6.712154   -0.986833   -2.315646
 H    1.410138    3.003352    1.706866
 H    2.951072    2.974568    0.805786
 H   -0.037834   -1.925223   -1.560790
 H    0.876361   -3.393890   -1.866619
 H    4.096519   -1.338580   -0.267481
 H    6.346864    0.415226    0.563253
 H    5.916955   -1.257661    2.335063
 H    5.893907   -2.556120    1.125153
 H    8.114078   -2.501981    2.227731
 H    8.283956   -0.771842    1.821891
 H    8.696243   -1.612221   -1.629715
 H    8.637235   -0.238577   -0.490947
 H    6.546584   -0.295109   -1.802926
 H    6.264324   -1.982776   -1.334027
 H   -1.963867    0.136560   -0.330665
