46 
6g5j_ligand_xtb.xyz
 C    3.754629   -3.318317   -1.620292
 C    3.585134   -1.868785   -1.174335
 C    4.844346   -1.376351   -0.423644
 O    4.534464    0.999988   -0.648119
 C    2.378581   -1.646522   -0.291836
 C    2.033451   -2.515650    0.735289
 C    0.962839   -2.235881    1.566634
 C    0.230343   -1.073227    1.410062
 C    0.573355   -0.193220    0.393240
 C    1.626856   -0.491737   -0.460828
 C   -1.466127    1.163306   -0.003680
 C   -2.474242    0.201025   -0.014333
 C   -3.747771    0.653802   -0.270284
 C   -1.723515    2.529826   -0.280388
 C   -0.471050    3.194767   -0.232421
 C    0.472406    2.247627    0.068521
 C    1.913655    2.416025    0.367172
 C    4.554694    0.024346    0.065622
 O    4.256817    0.049939    1.350690
 N   -0.127984    1.016731    0.214645
 C   -4.034533    2.002636   -0.521869
 C   -3.033211    2.941622   -0.535260
 O    2.422499    1.942003    1.371370
 N    2.602243    3.161696   -0.515514
 O   -4.883025   -0.185516   -0.307544
 C   -4.771018   -1.466411   -0.048653
 F   -5.974475   -2.028762   -0.113729
 F   -4.281534   -1.751040    1.173906
 F   -3.986643   -2.145903   -0.909241
 H    2.839648   -3.675199   -2.087202
 H    4.563942   -3.392751   -2.342731
 H    3.991028   -3.965790   -0.780469
 H    3.471108   -1.241281   -2.064978
 H    5.696952   -1.372174   -1.102244
 H    5.046041   -2.016983    0.433703
 H    2.604663   -3.415879    0.897270
 H    0.707742   -2.922099    2.359951
 H   -0.580675   -0.834783    2.080620
 H    1.873633    0.197412   -1.256830
 H   -2.239151   -0.834809    0.167651
 H   -0.298664    4.244385   -0.364282
 H    3.804621    0.896099    1.593475
 H   -5.060833    2.270874   -0.709038
 H   -3.251930    3.977695   -0.739632
 H    2.186428    3.442329   -1.386394
 H    3.610504    3.140745   -0.454688
