33 
6g5u_ligand_xtb.xyz
 C   -0.680871   -0.778905    0.133649
 C    0.499573   -0.038434    0.177204
 C   -1.905117   -0.161462    0.022138
 C   -0.824023    1.983171   -0.058385
 O    1.885714   -1.895112   -0.304082
 C    1.774639   -0.835583    0.280085
 N    2.708402   -0.333686    1.106713
 C    4.005281   -0.949145    1.274312
 C    5.125190   -0.110926    0.653334
 C    4.954371    0.121025   -0.848540
 C    4.967562   -1.168123   -1.661590
 C    0.404798    1.349344    0.062017
Cl    1.807056    2.353741    0.010604
 C   -1.983549    1.220761   -0.064873
Cl   -3.522178    1.940388   -0.190031
 S   -3.454136   -1.071828   -0.025635
 O   -4.189978   -0.783988    1.166813
 O   -4.064986   -0.870683   -1.303498
 N   -2.914750   -2.652704    0.069295
 H   -0.623453   -1.854809    0.183306
 H   -0.882200    3.055845   -0.149553
 H    2.576371    0.575846    1.520661
 H    3.952631   -1.930539    0.801908
 H    4.197162   -1.080472    2.344236
 H    6.070924   -0.624086    0.836394
 H    5.165946    0.857227    1.159794
 H    5.767424    0.768650   -1.185139
 H    4.017074    0.650565   -1.030619
 H    5.851421   -1.758523   -1.429162
 H    4.082474   -1.765014   -1.458981
 H    4.979934   -0.937606   -2.724236
 H   -3.303511   -3.138729    0.860452
 H   -3.057618   -3.156633   -0.790660
