43 
6g7a_ligand_xtb.xyz
 C    1.556194   -1.939974    0.065698
 C    0.181747   -1.892320    0.049664
 C   -0.488205   -0.651850    0.016691
 C    0.287928    0.545302    0.059675
 C    1.674013    0.450627    0.037614
 C   -0.392347    1.864446    0.097022
 C    2.308280   -0.771800    0.036729
 N    4.567212    0.688487   -0.053218
 C   -0.124905    4.247167    0.566078
 C    0.974344    5.151192    0.010060
 O   -1.549918    2.033423   -0.274763
 N    0.320292    2.877888    0.633240
 O    1.365614    4.657472   -1.250219
 S    4.081407   -0.934001    0.001054
 O    4.548155   -1.463120    1.247847
 O    4.491562   -1.557322   -1.222445
Cl    2.404558   -3.424274    0.095827
 N   -1.825005   -0.583609   -0.035923
 C   -2.721315   -1.712774   -0.070099
 C   -4.153122   -1.248480   -0.034067
 C   -4.553457   -0.286365    0.885726
 C   -5.869086    0.137935    0.927509
 C   -6.801669   -0.399394    0.056221
 C   -6.411533   -1.362047   -0.858211
 C   -5.093276   -1.781527   -0.904661
 H   -0.375578   -2.812636    0.044388
 H    2.300899    1.326213   -0.015788
 H    5.238692    0.869080    0.676403
 H    4.955417    0.907390   -0.957587
 H   -0.996162    4.261304   -0.093091
 H   -0.417574    4.607684    1.559146
 H    1.832778    5.157198    0.700789
 H    0.584473    6.174618   -0.065889
 H    1.268882    2.718626    0.929506
 H    1.953964    5.288320   -1.675909
 H   -2.211445    0.348133   -0.179700
 H   -2.531651   -2.354618    0.802352
 H   -2.550192   -2.314489   -0.972824
 H   -3.830864    0.130901    1.571367
 H   -6.168237    0.888817    1.643654
 H   -7.829026   -0.068613    0.089844
 H   -7.133804   -1.785049   -1.540635
 H   -4.792925   -2.530014   -1.623889
