28 
6g92_ligand_xtb.xyz
 C   -3.106965    1.939396   -0.033489
 C   -2.550413    0.561776   -0.007989
 C   -1.243661    0.091628    0.016293
 N   -0.101345    0.878567    0.024618
 C    1.187688    0.474240    0.017026
 C    3.357744    1.121038    0.018018
 C    3.784924   -0.204993   -0.005584
 C    2.760144   -1.145682   -0.010602
 C   -1.363559   -1.309736    0.032550
 C   -4.773061   -0.582173   -0.022581
 N    2.088210    1.469602    0.029134
 C    5.230395   -0.583575   -0.039805
 N    1.480707   -0.826878    0.000955
 N   -2.633706   -1.664217    0.019779
 N   -3.341701   -0.540797   -0.004096
 H   -2.304514    2.672083   -0.059949
 H   -3.735391    2.086627   -0.912574
 H   -3.716402    2.128402    0.851134
 H   -0.225446    1.880642    0.033657
 H    4.067832    1.940033    0.030920
 H    2.972809   -2.208383   -0.022040
 H   -0.580168   -2.035881    0.051881
 H   -5.188085   -0.080328    0.854371
 H   -5.164792   -0.102764   -0.922483
 H   -5.068072   -1.628975   -0.013557
 H    5.597582   -0.575991   -1.066961
 H    5.825967    0.122317    0.535610
 H    5.374105   -1.583242    0.364234
