41 
6g93_ligand_xtb.xyz
 C   -0.509957    2.559045   -0.087679
 C    0.587560    3.396849    0.077466
 N    1.821921    2.944769    0.105765
 C    1.983709    1.623103   -0.059357
 C    3.591296   -0.230288   -0.075915
 C    4.930430   -0.462841   -0.774396
 C    4.106887   -2.254417    1.292910
 C    3.672574   -0.788750    1.351098
 C   -0.254678    1.189432   -0.223129
 C   -1.306152    0.172997   -0.388000
 C   -1.126541   -0.822219   -1.350015
 C   -4.390431   -2.723872   -0.751382
 C   -4.664908   -1.067882    0.915377
 C   -3.381443   -0.823281    0.211569
 C   -2.444181    0.171346    0.414052
Cl   -2.101890    3.228203   -0.176651
 N    3.250109    1.172496   -0.088362
 C    5.285789   -1.950470   -0.697330
 O    5.340740   -2.409337    0.631468
 N    0.993740    0.742805   -0.221583
 C   -2.075451   -1.810027   -1.555564
 C   -3.209694   -1.800490   -0.768102
 N   -5.190968   -2.170346    0.312078
 O   -5.169124   -0.454151    1.826706
 H    0.463445    4.465042    0.193461
 H    2.788723   -0.746956   -0.612901
 H    5.707361    0.114489   -0.268916
 H    4.881101   -0.146959   -1.816413
 H    3.330544   -2.845001    0.781280
 H    4.254981   -2.657651    2.296466
 H    2.701408   -0.707366    1.838769
 H    4.405819   -0.217546    1.924071
 H   -0.225518   -0.802241   -1.943515
 H   -4.096478   -3.758880   -0.536943
 H   -4.928699   -2.713470   -1.707388
 H   -2.594654    0.903273    1.191310
 H    3.960174    1.845016    0.157546
 H    6.276572   -2.135435   -1.116949
 H    4.542633   -2.533445   -1.264467
 H   -1.926780   -2.566813   -2.311342
 H   -6.073892   -2.565079    0.588687
