46 
6g9b_ligand_xtb.xyz
 C   -0.522991    1.173263   -0.376711
 C    0.334584    1.842401   -1.258575
 C    0.378026    3.219282   -1.343324
 C   -0.448941    3.980175   -0.539379
 C   -1.305030    3.333230    0.328922
 C   -3.128295   -2.600915   -1.354774
 C   -2.361779    1.423758    1.441604
 C   -2.153828   -0.017514    1.907438
 N   -0.477819   -0.231091   -0.314668
 C   -3.969736   -2.547632   -0.257183
 N    4.393926   -0.579143    0.320679
 C   -3.659457   -1.720686    0.808137
 C   -1.981998   -1.827684   -1.387648
 C   -1.364999    1.946901    0.438209
 C   -2.507841   -0.949873    0.794238
 C   -1.671559   -0.995035   -0.318294
 C    0.710101   -0.923239   -0.748332
 C    1.894128   -0.523662    0.154795
 C    3.186291   -1.173714   -0.319618
 C    4.483836   -0.913923    1.752943
 C    5.626363   -0.975757   -0.383971
 H    0.961241    1.279065   -1.933403
 H    1.048987    3.690712   -2.046140
 H   -0.432140    5.056958   -0.591439
 H   -1.958467    3.921162    0.957025
 H   -3.367001   -3.238973   -2.191963
 H   -2.335858    2.085515    2.311380
 H   -3.364376    1.504147    1.008936
 H   -2.788992   -0.209044    2.772767
 H   -1.111591   -0.158794    2.205117
 H   -4.865964   -3.147587   -0.232178
 H    4.295472    0.440942    0.245294
 H   -4.311813   -1.680464    1.668033
 H   -1.337305   -1.859943   -2.253898
 H    0.972320   -0.741833   -1.801156
 H    0.521341   -1.993394   -0.637093
 H    1.645991   -0.818149    1.174310
 H    1.985468    0.565196    0.123733
 H    3.182124   -2.245866   -0.114330
 H    3.278557   -1.032273   -1.399304
 H    3.599068   -0.567385    2.281347
 H    4.568295   -1.992869    1.871367
 H    5.359666   -0.443205    2.195609
 H    5.739717   -2.057882   -0.342928
 H    5.586198   -0.666030   -1.426642
 H    6.495059   -0.514629    0.082611
