60 
6g9d_ligand_xtb.xyz
 C   -6.353242    2.029390    0.259755
 C   -6.534418    0.648367   -0.366464
 C   -7.998583    0.210974   -0.283851
 C   -5.577371   -1.590197    0.158939
 C   -4.526860   -2.246530    1.079457
 C   -2.377021   -2.528333   -0.218551
 C   -1.158927   -1.665178   -0.313176
 C    0.016787   -1.837307   -1.016117
 C    0.994842   -0.862820   -0.905352
 C    0.807731    0.276249   -0.119272
 C   -0.373849    0.442068    0.597995
 C   -1.341853   -0.538476    0.489828
 C    1.901307    1.257000   -0.038221
 C    4.157479    1.590337    0.142780
 C    5.695575   -0.330519    0.146129
 C    6.254219   -0.679232   -1.239394
 C    6.618750   -2.165012   -1.275779
 C    7.050391   -2.236551    1.015668
 C    6.713288   -0.755126    1.206510
 C    1.719470    2.644746   -0.063371
 C   -6.063321    0.656957   -1.823880
 N   -5.708148   -0.281152    0.405149
 O   -6.171685   -2.228165   -0.687112
 N   -3.200248   -1.808343    0.724907
 C   -2.674902   -0.619819    1.118571
 O   -3.240941    0.189202    1.835162
 N    3.124440    0.751275    0.044908
 N    5.391680    1.075121    0.258674
 O    7.549013   -2.499865   -0.273897
 N    4.064270    2.929479    0.156709
 C    2.857475    3.437538    0.042278
Cl    0.175473    3.389415   -0.289755
 H   -5.307818    2.328758    0.225949
 H   -6.941974    2.765715   -0.280706
 H   -6.677755    2.021337    1.297849
 H   -8.626462    0.896111   -0.846771
 H   -8.107782   -0.788087   -0.695698
 H   -8.330264    0.200289    0.751988
 H   -4.587725   -3.331063    0.976231
 H   -4.720938   -1.958889    2.116837
 H   -2.145236   -3.534048    0.151919
 H   -2.889396   -2.631592   -1.183041
 H    0.174558   -2.707973   -1.634692
 H    1.929061   -0.967940   -1.435081
 H   -0.534794    1.289546    1.244544
 H    4.749203   -0.858872    0.301255
 H    7.150644   -0.085225   -1.428506
 H    5.517208   -0.457244   -2.011234
 H    7.094918   -2.426453   -2.222836
 H    5.705089   -2.768773   -1.155636
 H    6.149482   -2.842947    1.200223
 H    7.835582   -2.548706    1.706884
 H    6.313229   -0.592225    2.207077
 H    7.624532   -0.164596    1.091733
 H   -5.018711    0.957476   -1.880759
 H   -6.166876   -0.337734   -2.248794
 H   -6.659920    1.351879   -2.408341
 H   -5.087368    0.130079    1.095314
 H    6.150486    1.738914    0.265533
 H    2.789135    4.516998    0.032037
