45 
6g9i_ligand_dft.xyz
 C   40.994153   38.028245    8.425506
 C   41.248797   36.792163    9.004957
 C   41.979005   36.689531   10.181690
 C   42.453041   37.853351   10.778416
 C   42.663925   40.378032   10.881983
 C   41.457598   41.165675   11.403400
 C   38.800514   43.467080    9.993988
 C   38.760923   43.135164    8.642120
 C   39.578718   42.123219    8.169068
 C   40.472545   41.436966    9.005605
 C   42.225946   39.105883   10.211405
 C   41.489056   39.186658    9.023839
 C   41.313893   39.796932    5.331454
 C   41.411306   42.027210    4.386101
 C   39.673593   42.788731   10.829317
 C   40.533810   41.782621   10.367673
 C   42.316035   40.882405    7.458736
 C   42.526520   39.955244    6.258791
 C   40.287369   40.272823    3.227898
 N   41.262179   40.433153    8.373301
 N   41.385350   40.602772    4.116979
Cl   40.631497   35.343743    8.240126
 H   40.410923   38.107225    7.514991
 H   42.168579   35.718483   10.625518
 H   43.016029   37.781762   11.705475
 H   43.322159   40.143339   11.725148
 H   40.871674   40.501402   12.053336
 H   38.160349   44.248351   10.392150
 H   38.082250   43.645902    7.965558
 H   39.533010   41.825566    7.125610
 H   40.387359   40.010590    5.902633
 H   41.242640   38.751334    5.011219
 H   42.310730   42.297205    4.946580
 H   41.439158   42.575977    3.439409
 H   40.528381   42.377464    4.958016
 H   39.713979   43.054508   11.883675
 H   43.278350   40.988353    7.988938
 H   42.030521   41.882545    7.123285
 H   42.826634   38.971068    6.633662
 H   43.377022   40.323775    5.673267
 H   40.382989   40.838341    2.295295
 H   40.315959   39.206165    2.982498
 H   39.294206   40.497265    3.665324
 H   43.242030   41.004155   10.192341
 H   41.821298   41.975627   12.046722
