64 
6g9j_ligand_dft.xyz
 C   -3.655074    3.436079   -0.574928
 C   -3.893770    2.100004    0.120322
 C   -4.787516   -1.231711   -1.338261
 C   -3.219967   -2.547116    0.166442
 C   -0.855060   -3.148104    1.143316
 C    0.512408   -2.935091    0.992010
 C    1.017857   -2.147064   -0.052056
 C    0.143981   -1.581766   -0.980063
 C   -1.210357   -1.819024   -0.830379
 C   -2.340592   -1.246598   -1.597750
 N    2.699126   -0.475349   -0.271103
 C    3.974805   -0.071771   -0.337972
 C    3.202152    2.283177   -0.433008
 C    2.880436    2.676879    1.014931
 C    1.884117    3.834792    1.032680
 C    2.581732    4.623326   -1.054221
 C    3.631331    3.523111   -1.216926
 C    4.809893   -2.159640   -0.112751
 C   -2.682451    1.556156    0.867803
 C   -0.342865    0.927942    0.927805
 C   -1.417542    1.523696    0.275681
 N   -4.337717    1.102160   -0.856998
 C   -4.982247   -0.018475   -0.424810
 O   -5.567477   -0.109572    0.643925
 N   -3.478024   -1.786158   -1.050055
 C   -1.716435   -2.570395    0.222167
 O   -2.310453   -0.422336   -2.503253
 C    2.456983   -1.782233   -0.120948
 N    4.216457    1.248811   -0.523976
 O    2.364691    4.944485    0.300413
 N    5.059783   -0.869433   -0.250838
 C    3.519530   -2.684844   -0.043529
Cl    3.312527   -4.410883    0.076246
 C   -2.848685    0.975877    2.127466
 C   -1.773296    0.381653    2.783796
 C   -0.517791    0.355898    2.184792
 H   -4.581300    3.790155   -1.036094
 H   -2.897061    3.355005   -1.361825
 H   -3.310629    4.181838    0.147086
 H   -4.715351    2.210316    0.831817
 H   -5.557128   -1.974258   -1.121669
 H   -4.816111   -0.965490   -2.397847
 H   -3.663360   -3.547816    0.100329
 H   -3.649617   -2.034390    1.036863
 H   -1.228277   -3.730360    1.980255
 H    1.198021   -3.354158    1.721433
 H    0.509897   -0.939134   -1.773912
 H    2.295354    1.875471   -0.893827
 H    2.472564    1.818251    1.558977
 H    3.805764    2.987415    1.516246
 H    1.711948    4.189348    2.051518
 H    0.915893    3.501343    0.622949
 H    1.635295    4.302114   -1.523918
 H    2.905384    5.545349   -1.543389
 H    3.767200    3.279494   -2.276395
 H    4.590076    3.893567   -0.828980
 H    5.668955   -2.824920   -0.057040
 H    0.625050    0.864319    0.439525
 H   -1.269831    1.933450   -0.720265
 H   -3.718619    0.964645   -1.652701
 H    5.187647    1.515163   -0.448167
 H   -3.834708    0.971763    2.582631
 H   -1.921241   -0.068050    3.761583
 H    0.320293   -0.124785    2.681091
