67 
6g9m_ligand_xtb.xyz
 C    5.425365    2.079180   -0.937514
 C    5.348704    0.857327   -0.016792
 C    4.580502    1.214274    1.260549
 N    4.596152   -0.175090   -0.730348
 C    4.451993   -1.429507   -0.278877
 C    3.435338   -2.229811   -1.119816
 C    0.091070   -1.652283    0.327728
 C   -1.056133   -1.807085    1.079940
 C   -2.053675   -0.853910    0.956929
 C   -1.911015    0.248479    0.112134
 C   -0.761779    0.392976   -0.659780
 C    0.223899   -0.568766   -0.541993
 C    1.533873   -0.663553   -1.215395
 O    2.054423    0.112045   -2.000869
 C   -6.811286   -0.353829   -0.079207
 C   -7.303211   -0.755318    1.317312
 C   -7.670760   -2.240869    1.311882
 C   -8.215545   -2.220562   -0.955911
 C   -7.881817   -0.733542   -1.103959
 C    9.370957   -0.564586    0.593849
 C    8.712532   -0.782186   -0.604083
 C    7.420547   -0.324781   -0.777709
 O    5.011965   -1.910633    0.683524
 N    2.096540   -1.818249   -0.775173
 C    1.323873   -2.494589    0.240841
 C   -3.010142    1.224406    0.042759
 N   -4.235558    0.720840   -0.005109
 C   -5.268274    1.564085   -0.073260
 N   -6.506943    1.054023   -0.155004
 O   -8.651303   -2.533421    0.345193
 N   -5.171512    2.902983   -0.083654
 C   -3.960386    3.408187   -0.009054
 C   -2.822431    2.611417    0.056551
Cl   -1.266511    3.346078    0.226234
 C    6.756641    0.348732    0.242519
 C    7.426846    0.565830    1.437491
 C    8.723463    0.112110    1.610765
 H    5.987114    2.873565   -0.452839
 H    5.925302    1.822886   -1.868313
 H    4.424830    2.442500   -1.163437
 H    4.588974    0.370082    1.945515
 H    5.013790    2.082292    1.748835
 H    3.548236    1.446999    1.002489
 H    3.946982    0.148906   -1.441956
 H    3.548830   -3.294117   -0.909926
 H    3.597928   -2.037611   -2.183932
 H   -1.176240   -2.646929    1.747572
 H   -2.966049   -0.945460    1.525911
 H   -0.639194    1.211184   -1.351206
 H   -5.876112   -0.879342   -0.299067
 H   -8.186977   -0.167672    1.573709
 H   -6.528167   -0.565784    2.059857
 H   -8.099547   -2.540236    2.270226
 H   -6.766407   -2.840355    1.121082
 H   -7.327268   -2.821179   -1.208203
 H   -9.034830   -2.503112   -1.619779
 H   -7.531671   -0.531403   -2.116056
 H   -8.783853   -0.146237   -0.920092
 H   10.380553   -0.922361    0.733338
 H    9.206999   -1.310749   -1.406312
 H    6.914151   -0.504024   -1.715453
 H    1.103521   -3.526241   -0.058091
 H    1.873110   -2.525325    1.190016
 H   -7.263743    1.719669   -0.136750
 H   -3.888889    4.487416    0.001685
 H    6.945126    1.085670    2.249878
 H    9.227850    0.287197    2.550182
