61 
6g9u_ligand_xtb.xyz
 F    4.188401   -0.213217   -1.508498
 C    2.855091   -0.250253   -1.316030
 C    2.060954    0.894718   -1.451863
 S    2.740493    2.497796   -1.744901
 C    4.070485    2.579215   -0.484988
 C    3.541207    2.956973    0.896654
 C    2.476249    2.030379    1.417538
 C    1.197424    2.515681    1.664226
 C    0.218239    1.685942    2.168685
 C    0.474751    0.335265    2.400930
 C   -0.652492   -0.466478    2.973620
 O   -0.534290   -1.788587    3.054275
 O   -1.653407    0.076664    3.374333
 C    1.754158   -0.156980    2.155981
 C    2.741913    0.690460    1.683380
 C    2.257042   -1.438376   -0.958068
 F    3.025400   -2.526386   -0.751063
 C    0.886836   -1.561051   -0.824783
 S    0.351633   -3.084477   -0.050385
 O    0.986335   -3.119098    1.236882
 N    0.930639   -4.353945   -0.915579
 O   -1.077391   -3.167069   -0.104063
 C    0.027441   -0.468165   -1.080787
 C    0.684683    0.751529   -1.378435
 F   -0.047768    1.870718   -1.554476
 N   -1.299006   -0.648801   -1.053557
 C   -2.382382    0.312525   -1.211208
 C   -2.557297    1.088722    0.102177
 C   -3.552595    2.252272    0.035077
 C   -4.916446    1.962013    0.668235
 C   -5.544914    0.609179    0.344638
 C   -5.938683    0.379454   -1.112675
 C   -4.796631    0.323202   -2.132804
 C   -3.585783   -0.508489   -1.691169
 H    4.739519    3.355364   -0.855343
 H    4.606674    1.637139   -0.469824
 H    3.140104    3.971225    0.856124
 H    4.392237    2.955177    1.584631
 H    0.973364    3.554894    1.473509
 H   -0.761521    2.067475    2.412336
 H    0.183301   -2.202399    2.533582
 H    1.998330   -1.191167    2.349989
 H    3.739807    0.303979    1.530013
 H    1.921376   -4.514682   -0.859397
 H    0.540234   -4.465405   -1.834082
 H   -1.589944   -1.555180   -0.694910
 H   -2.113021    1.020267   -2.001862
 H   -1.573376    1.491773    0.344649
 H   -2.824931    0.404856    0.907599
 H   -3.669852    2.572633   -0.999207
 H   -3.127731    3.103338    0.571849
 H   -5.607792    2.757875    0.380387
 H   -4.798782    2.006407    1.753631
 H   -6.456576    0.524358    0.942440
 H   -4.881305   -0.187458    0.678023
 H   -6.636697    1.160967   -1.422042
 H   -6.477234   -0.571305   -1.154969
 H   -4.471326    1.329278   -2.391767
 H   -5.207381   -0.112614   -3.046810
 H   -3.876983   -1.214286   -0.912859
 H   -3.235719   -1.098106   -2.542277
