16 
6g9x_ligand_xtb.xyz
 S    0.709196    2.121623   -0.168431
 C    1.509189   -0.985338   -0.016965
 C    0.070508   -0.572762    0.013660
 C   -1.771707    0.982864    0.006053
 O    1.856142   -2.020937   -0.515085
 C   -2.211371   -1.373228    0.090733
 O    2.403811   -0.182189    0.575396
 C   -0.402026    0.743806   -0.023598
 C   -0.853438   -1.616402    0.053948
 C   -2.668883   -0.065136    0.072118
 H   -0.240206    3.056306   -0.190543
 H   -2.136558    1.999925   -0.025744
 H   -2.909432   -2.194586    0.129097
 H    2.020307    0.614037    0.968237
 H   -0.467209   -2.624187    0.056373
 H   -3.727302    0.144736    0.099294
