22 
6gcl_ligand_dft.xyz
 C    3.363813   -0.209858   -1.581758
 S    2.902649   -0.210694    0.151076
 O    3.000933   -1.586738    0.630704
 O    3.640007    0.868682    0.800701
 C    1.177809    0.236684    0.113267
 C    0.228464   -0.779106    0.101424
 C   -1.103639   -0.398715    0.041332
 S   -2.532965   -1.411134    0.013100
 C   -3.502457    0.072684   -0.042018
 N   -4.857537   -0.013859   -0.132920
 N   -2.853728    1.192815   -0.045909
 C   -1.493580    0.957622   -0.002186
 C   -0.512327    1.953944    0.020817
 C    0.822618    1.589808    0.080595
 H    4.422286   -0.476429   -1.624298
 H    2.763267   -0.950971   -2.111699
 H    3.207016    0.788519   -1.993455
 H    0.538316   -1.817390    0.156059
 H   -5.318429   -0.839016    0.217427
 H   -5.347121    0.857520    0.013589
 H   -0.813611    2.995368    0.002190
 H    1.600479    2.345022    0.125099
