70 
6gcr_ligand_dft.xyz
 C   -2.775531   -1.428191   -0.132286
 C   -3.305737   -2.724934    0.056460
 C   -2.633897   -3.775479   -0.533888
 N   -1.520891   -3.620706   -1.250138
 N   -1.659578   -1.266819   -0.848674
 C   -1.092801   -2.357194   -1.362192
 C    0.932805   -1.129150   -2.185888
 C    0.495892    0.201743   -2.187387
 C    1.430138    1.232600   -2.227431
 C    2.801681    0.980419   -2.294018
 C    3.221558   -0.350028   -2.364047
 C    2.303654   -1.389488   -2.304673
 C    3.816933    2.094369   -2.154715
 C    4.721705    1.409390   -0.019741
 C    4.624792    0.888654    1.264031
 C    5.693257   -0.112316    1.013038
 C    5.780006    0.455454   -0.411864
 C    2.689699    1.884300    2.428106
 C    1.549564    1.436281    1.474120
 C    1.602488   -0.952704    2.033826
 C    1.722404   -2.352226    1.461608
 C    3.166825   -2.639178    1.029667
 C   -3.082376    1.007545    0.245498
 C   -4.125617    1.959172    0.201853
 C   -3.807947    3.317908    0.115303
 C   -2.492256    3.748546    0.032724
 C   -1.472230    2.802682    0.061187
 C   -1.755903    1.449615    0.182637
 C   -5.557989    1.524525    0.280217
 C   -7.863112    1.952731   -0.390268
 N    0.067080   -2.226366   -2.092413
 N    4.107311    2.391950   -0.741070
 N    3.898245    1.090575    2.369667
 N    1.577005    0.042947    1.106550
 N   -3.411642   -0.345733    0.393274
 N   -6.457866    2.309099   -0.366104
 O    6.376515    0.212533   -1.437920
 O    6.187800   -0.989043    1.677330
 O    1.593669   -0.710970    3.234875
 O   -5.914778    0.523712    0.900945
Cl   -4.755697   -2.995094    0.976568
 H   -3.008350   -4.790045   -0.421647
 H   -0.561105    0.421007   -2.132592
 H    1.070066    2.260045   -2.206258
 H    4.282018   -0.575397   -2.435507
 H    2.656252   -2.417733   -2.322033
 H    3.461426    3.020010   -2.615957
 H    4.762043    1.818072   -2.627852
 H    2.334421    1.822718    3.455431
 H    2.934572    2.934797    2.224617
 H    1.592825    1.991791    0.532973
 H    0.596667    1.689154    1.954450
 H    1.043564   -2.470460    0.608250
 H    1.409612   -3.047389    2.243591
 H    3.475704   -1.973135    0.217156
 H    3.864862   -2.498198    1.859857
 H    3.264500   -3.669663    0.675657
 H   -4.608399    4.051630    0.142972
 H   -2.265932    4.807550   -0.033585
 H   -0.435173    3.121717    0.013671
 H   -0.955513    0.723893    0.234050
 H   -8.052827    1.092059   -1.041644
 H   -8.185852    1.693168    0.619246
 H   -8.439552    2.809596   -0.744155
 H    0.454708   -3.125793   -2.340971
 H    3.345719    2.855222   -0.262910
 H    3.975338    0.360268    3.066118
 H    1.623897   -0.190927    0.124926
 H   -4.342088   -0.494272    0.783867
 H   -6.117878    2.972143   -1.044140
