38 
6gdg_ligand_dft.xyz
 C   -2.797534    1.208459    0.243046
 O   -3.581896    1.394663    1.160334
 N   -1.808331    2.054925   -0.120098
 C   -1.415685    3.214674    0.655191
 C   -0.023966    3.029310    1.255874
 C   -2.867933   -0.085012   -0.585650
 O   -1.764853   -0.205819   -1.499830
 C   -2.771111   -1.301666    0.327297
 O   -3.280037   -2.426626   -0.345958
 C   -1.255654   -1.424712    0.472596
 O   -0.899676   -2.705380    0.888336
 C   -0.801556   -1.079240   -0.963363
 N    0.498492   -0.409949   -0.987074
 C    0.901466    0.601151   -1.831800
 N    2.123542    1.014545   -1.621220
 C    2.565238    0.212103   -0.590419
 C    3.792118    0.135627    0.097912
 N    4.820560    0.955955   -0.181619
 N    3.936459   -0.781384    1.066981
 C    2.905111   -1.584030    1.341344
 N    1.699716   -1.612137    0.774897
 C    1.581100   -0.682741   -0.188996
 H   -1.219650    1.760506   -0.883929
 H   -1.443547    4.105079    0.016519
 H   -2.170914    3.339369    1.434154
 H   -0.013765    2.176894    1.942827
 H    0.722273    2.846850    0.473193
 H    0.279655    3.922841    1.810602
 H   -3.791781   -0.096463   -1.167711
 H   -3.276239   -1.124509    1.282180
 H   -2.830029   -3.193131    0.039586
 H   -0.887978   -0.649454    1.160528
 H    0.068788   -2.672834    1.030211
 H   -0.747859   -1.988470   -1.570549
 H    0.232511    0.984735   -2.589923
 H    4.754735    1.607550   -0.946456
 H    5.697801    0.821361    0.294479
 H    3.075061   -2.312247    2.129978
