38 
6gdg_ligand_xtb.xyz
 C   -2.789972    0.761605    0.538327
 O   -3.013889    0.649708    1.724562
 N   -2.536364    1.923015   -0.084113
 C   -2.391430    3.184011    0.608042
 C   -0.977991    3.738246    0.472505
 C   -2.774433   -0.438932   -0.426522
 O   -1.733977   -0.285927   -1.397155
 C   -2.478321   -1.740285    0.316841
 O   -2.964611   -2.839678   -0.397062
 C   -0.942418   -1.715502    0.339996
 O   -0.411826   -2.993967    0.459967
 C   -0.615273   -1.034978   -1.015326
 N    0.552396   -0.192546   -0.891689
 C    0.767695    1.061822   -1.391076
 N    1.935922    1.549587   -1.109287
 C    2.563268    0.568339   -0.383460
 C    3.833258    0.448723    0.210553
 N    4.755875    1.420291    0.163408
 N    4.127041   -0.686767    0.852529
 C    3.227448   -1.650472    0.910859
 N    2.007301   -1.665499    0.401508
 C    1.703991   -0.533270   -0.242715
 H   -2.314175    1.890573   -1.067978
 H   -3.116538    3.899001    0.205227
 H   -2.630990    2.988965    1.655507
 H   -0.251288    3.028622    0.860346
 H   -0.739238    3.938787   -0.569770
 H   -0.890011    4.665600    1.031288
 H   -3.723289   -0.499718   -0.967160
 H   -2.897979   -1.708663    1.330833
 H   -2.381936   -3.584716   -0.192300
 H   -0.608394   -1.056277    1.155084
 H    0.560280   -2.890031    0.526271
 H   -0.414389   -1.805680   -1.778870
 H    0.021500    1.568005   -1.968753
 H    4.553916    2.268541   -0.333335
 H    5.650481    1.266203    0.592412
 H    3.526340   -2.542700    1.444066
