61 
6gf3_ligand_xtb.xyz
 C   -2.163496   -0.544841   -0.132627
 C   -3.272925    0.204180    0.233126
 C   -3.187393    1.605280    0.425331
 C   -1.969312    2.256670    0.238979
 C   -0.879736    1.500965   -0.149069
 C   -0.972810    0.116145   -0.329761
 C    1.132506    0.960603   -0.733621
 C    0.358346   -0.355810   -0.843871
 C    2.607108    0.944579   -0.927138
 C    3.256371   -0.240864   -0.175215
 C    2.298939   -1.048676    0.721594
 C    1.053829   -1.484610   -0.068896
 C    3.011094   -2.320007    1.189362
 C    2.748485   -3.642127    0.595209
 C    1.741631   -3.799170   -0.535981
 C   -4.335628    3.600839    1.005029
 C   -4.953998   -1.449277   -0.179098
 C   -6.353502   -1.763841    0.252810
 C    0.398612   -2.388950   -2.149456
 C    0.238977   -0.882173   -2.296569
 C    1.829599   -0.276039    1.977256
 C    2.943707    0.261038    2.868811
 C    3.179918    2.292468   -0.453363
 C    3.238849    4.577304   -0.963188
 N    0.424024    1.955098   -0.376091
 N    1.448335   -2.479301   -1.115036
 O   -4.335649    2.207189    0.777874
 O   -4.516181   -0.342255    0.456361
 O   -4.302453   -2.081515   -0.968104
 O    2.232296   -3.280571    1.839825
 O    3.837336    2.420712    0.542121
 O    2.860786    3.244227   -1.304979
 H   -2.256361   -1.609237   -0.266386
 H   -1.862835    3.318953    0.372772
 H    2.820963    0.884921   -2.000332
 H    3.754364   -0.906957   -0.887933
 H    4.041219    0.175479    0.459514
 H    0.346352   -1.976491    0.606821
 H    3.990583   -2.151784    1.628108
 H    3.527294   -4.398040    0.625001
 H    0.814938   -4.228908   -0.144988
 H    2.138235   -4.460076   -1.308602
 H   -4.055728    4.152133    0.103042
 H   -3.665071    3.870377    1.825556
 H   -5.359054    3.850028    1.277763
 H   -6.938043   -0.850412    0.314030
 H   -6.803923   -2.464466   -0.443425
 H   -6.324881   -2.213036    1.244122
 H    0.700585   -2.892134   -3.067475
 H   -0.516789   -2.845759   -1.769616
 H   -0.720188   -0.613548   -2.733294
 H    1.027399   -0.468829   -2.928273
 H    1.201835    0.559176    1.669815
 H    1.212967   -0.962411    2.562611
 H    3.614519   -0.528451    3.194305
 H    2.493696    0.698318    3.755565
 H    3.512501    1.040561    2.371784
 H    4.241217    4.588436   -0.532754
 H    3.206331    5.151198   -1.885355
 H    2.530331    4.981646   -0.239551
 H    2.316926   -2.115676   -1.527622
