47 
6gfs_ligand_dft.xyz
 C    7.283379   -0.256323    0.372667
 O    8.524737   -0.603195   -0.040940
 O    7.131763    0.716185    1.061486
 C    6.167818   -1.191584   -0.072787
 C    4.771777   -0.659634    0.243075
 C    3.022023    1.145135   -0.265621
 C    1.826119    0.203030   -0.417211
 C    4.371318    0.525291   -0.638797
 C    0.486723    0.894383   -0.162287
 C   -0.712331   -0.044558   -0.291623
 C   -2.052469    0.647817   -0.044770
 C   -3.250729   -0.292818   -0.170013
 C   -4.591529    0.399567    0.073237
 C   -5.789264   -0.542128   -0.049428
 C   -7.130531    0.150081    0.191426
 C   -8.328905   -0.791689    0.069933
 C   -9.664215   -0.089818    0.310865
 H    8.483111   -1.402421   -0.582537
 H    6.335750   -2.155357    0.427793
 H    6.269003   -1.381287   -1.150973
 H    4.740337   -0.358494    1.296332
 H    4.056347   -1.480308    0.118967
 H    3.068182    1.510651    0.769591
 H    2.857472    2.029917   -0.894791
 H    1.924423   -0.644071    0.274995
 H    1.827006   -0.225662   -1.430254
 H    4.343303    0.200031   -1.689366
 H    5.145927    1.296295   -0.563545
 H    0.370690    1.731668   -0.865071
 H    0.493727    1.338625    0.843221
 H   -0.598785   -0.878230    0.416081
 H   -0.715325   -0.493982   -1.295032
 H   -2.167676    1.479507   -0.754375
 H   -2.048595    1.099804    0.957321
 H   -3.136430   -1.123112    0.541483
 H   -3.252988   -0.746901   -1.171273
 H   -4.706723    1.228580   -0.639530
 H   -4.588772    0.855287    1.073670
 H   -5.674525   -1.370225    0.664571
 H   -5.790907   -0.999198   -1.049342
 H   -7.246173    0.977796   -0.522997
 H   -7.129324    0.607946    1.191042
 H   -8.213170   -1.617252    0.784962
 H   -8.328848   -1.249049   -0.928598
 H   -9.701204    0.349935    1.314290
 H   -9.817905    0.720196   -0.411554
 H  -10.505043   -0.785112    0.218565
