24 
6gg4_ligand_xtb.xyz
 N   -0.931826    1.202110   -0.893302
 C   -1.323830   -0.167209   -0.470715
 C   -2.800572   -0.050720   -0.054973
 O   -3.284312    1.046409    0.064585
 C   -0.479261   -0.583055    0.752317
 C    0.978379   -0.349625    0.453210
 C    1.745970   -1.328800   -0.163732
 C    1.547810    0.895873    0.724599
 C    3.066167   -1.074720   -0.493095
 C    2.870741    1.147036    0.389657
 C    3.626868    0.164443   -0.225502
 O   -3.373350   -1.199155    0.161525
 H   -1.698040    1.813473   -0.507769
 H   -0.897121    1.325481   -1.908530
 H    0.003545    1.425362   -0.474332
 H   -1.199257   -0.888027   -1.279911
 H   -0.784326    0.004220    1.620865
 H   -0.671611   -1.633481    0.965918
 H    1.314678   -2.296878   -0.368660
 H    0.995762    1.642358    1.284534
 H    3.659817   -1.846809   -0.956027
 H    3.308547    2.105616    0.620274
 H    4.656138    0.358038   -0.481427
 H   -4.297677   -1.121486    0.458704
