37 
6gga_ligand_dft.xyz
 C   90.702954   95.543233  -45.571491
 C   90.631915   94.435392  -46.397938
 C   90.871073   93.155673  -45.873994
 C   91.180250   92.942346  -44.540284
 C   91.242178   94.069381  -43.721684
 C   91.012259   95.366203  -44.221300
 N   91.518314   94.137626  -42.362377
 C   91.177693   96.263563  -43.102401
 C   91.504103   95.454173  -41.980941
 C   91.091590   97.641253  -42.952683
 C   91.764764   96.016452  -40.727756
 C   91.675469   97.392553  -40.603891
 C   91.338089   98.208932  -41.700680
 C   91.909538   93.010319  -41.530144
 C   93.405713   92.720969  -41.602048
 C   91.178158   99.680171  -41.505808
 N   89.738869   99.983636  -41.088655
 C   89.429799  101.424828  -40.856406
Br   90.772115   91.667933  -47.033264
 H   90.524686   96.534049  -45.978316
 H   90.397139   94.545228  -47.450014
 H   91.367351   91.941312  -44.169744
 H   90.858295   98.269904  -43.810154
 H   92.047075   95.405644  -39.877232
 H   91.897669   97.849360  -39.641667
 H   91.598190   93.227372  -40.504359
 H   91.325153   92.143150  -41.850567
 H   93.655637   91.864541  -40.969403
 H   93.707840   92.490466  -42.627880
 H   93.985958   93.583724  -41.260776
 H   91.806826  100.082715  -40.707482
 H   91.348545  100.257353  -42.417999
 H   89.122545   99.596020  -41.810171
 H   89.540965   99.434242  -40.246248
 H   88.384090  101.527202  -40.565722
 H   90.079456  101.795097  -40.063180
 H   89.619738  101.972987  -41.779339
