44 
6ggb_ligand_xtb.xyz
 N    0.323186    1.592319   -0.253811
 C    1.607167    1.189010   -0.058744
 C    1.627329   -0.209600    0.218112
 C    2.830420   -0.853986    0.448487
 C    4.006301   -0.115093    0.415492
 C    3.975437    1.257869    0.138103
 C    2.789387    1.920961   -0.095218
 C    5.325187   -0.794203    0.626689
 C   -0.511427    0.506747   -0.082246
 C    0.264241   -0.641523    0.200598
 C   -0.367956   -1.864985    0.402967
 C   -1.738922   -1.925823    0.327156
 C   -2.518031   -0.784505    0.052643
 C   -1.890306    0.443189   -0.154239
 C   -0.117323    2.944266   -0.491410
 C   -3.959701   -0.876010   -0.011408
 C   -4.771890   -1.958989    0.209511
 C   -6.141299   -1.673320    0.058946
 C   -6.373089   -0.377218   -0.276429
 S   -4.923157    0.522297   -0.413893
 C   -0.428838    3.670281    0.815063
 N    5.886726   -1.206101   -0.710678
 C    7.192093   -1.886643   -0.640939
 H    2.847220   -1.910515    0.673338
 H    4.900855    1.816174    0.131299
 H    2.790349    2.981509   -0.288685
 H    5.217338   -1.693723    1.234099
 H    6.048658   -0.127095    1.097655
 H    0.208428   -2.751662    0.619771
 H   -2.231051   -2.871515    0.483124
 H   -2.485236    1.319421   -0.359280
 H   -1.008731    2.907584   -1.122319
 H    0.665407    3.472569   -1.041150
 H   -4.411311   -2.935232    0.477014
 H   -6.920852   -2.400978    0.194731
 H   -7.311326    0.110182   -0.452115
 H   -1.211759    3.148475    1.359773
 H    0.456684    3.718471    1.444760
 H   -0.764736    4.681831    0.606711
 H    5.958093   -0.357590   -1.286633
 H    5.192012   -1.814735   -1.161770
 H    7.924715   -1.231221   -0.173801
 H    7.103523   -2.792691   -0.044527
 H    7.540157   -2.152086   -1.637102
