65 
6ggn_ligand_xtb.xyz
 C   -2.410759   -0.889982   -0.196763
 C    1.147425   -0.433440    0.505450
 C    1.615238    0.985794    0.247865
 C    3.125354   -1.503029   -0.571660
 C    2.531456    1.638060    1.076582
 C    2.932279    2.925841    0.740207
 C    2.443258    3.550429   -0.393267
 C    1.538580    2.905560   -1.220336
 C    1.135300    1.627387   -0.889384
 C    3.846754   -1.195045   -1.730002
 C    5.222697   -1.386518   -1.712441
 C    5.887149   -1.844857   -0.590042
 C    5.154002   -2.140511    0.545877
 C    3.781118   -1.982908    0.557994
 C    3.167187   -0.671492   -2.952264
 C    3.096366    1.004213    2.312537
 C   -4.664242   -1.901498   -0.146498
 N   -1.809784   -1.650854   -1.081148
 N   -1.525858   -0.243470    0.647372
 C   -1.854121    0.544591    1.817578
 C   -1.338001    1.974067    1.673907
 C   -1.300256   -0.127972    3.073199
 C   -3.857938   -0.773488   -0.127959
 C   -0.298050   -0.643345    0.230919
 C   -0.484696   -1.497725   -0.833086
 C    0.811949   -1.965424   -1.329255
 N    1.728737   -1.325874   -0.508046
 O    1.103309   -2.736722   -2.212156
Cl    5.954344   -2.716317    1.969747
Cl    2.967587    5.150950   -0.776588
 N   -5.986645   -1.850190   -0.122053
 C   -6.537487   -0.645816   -0.093158
 N   -5.874273    0.507902   -0.121055
 C   -4.557365    0.454278   -0.157273
 O   -3.870371    1.595433   -0.243753
 C   -4.640773    2.783433   -0.330664
 O   -7.855562   -0.529577   -0.041031
 C   -8.592264   -1.741053   -0.042020
 H    1.440549   -0.763825    1.506849
 H    3.638639    3.446550    1.368069
 H    1.160185    3.393152   -2.104233
 H    0.427102    1.113215   -1.523048
 H    5.792585   -1.158086   -2.600668
 H    6.957647   -1.973627   -0.595777
 H    3.216823   -2.257233    1.436322
 H    2.556103   -1.457267   -3.396319
 H    2.508432    0.157637   -2.697688
 H    3.896506   -0.334616   -3.683730
 H    2.307276    0.710847    3.004464
 H    3.677741    0.119998    2.056146
 H    3.750583    1.702569    2.826913
 H   -4.224898   -2.888018   -0.180496
 H   -2.946484    0.560672    1.882056
 H   -0.251109    1.995419    1.676683
 H   -1.701643    2.579282    2.499752
 H   -1.691783    2.404100    0.741330
 H   -1.623299   -1.165570    3.125107
 H   -1.659774    0.392148    3.956907
 H   -0.213747   -0.098713    3.076352
 H   -5.301537    2.747938   -1.197886
 H   -3.925352    3.597192   -0.426993
 H   -5.250050    2.910683    0.565847
 H   -8.388639   -2.314190   -0.948331
 H   -8.330486   -2.352282    0.823840
 H   -9.639403   -1.449720   -0.001384
