62 
6gh9_ligand_dft.xyz
 O   -5.046382   -1.000026    2.003947
 C   -4.048209   -0.063244    1.621022
 C   -2.711885   -0.768115    1.734085
 N   -2.666674   -1.895832    0.806843
 C   -1.472158   -2.728774    0.964841
 C   -1.278510   -3.701819   -0.206899
 N   -1.007264   -3.100680   -1.511030
 C    0.112380   -2.220558   -1.525488
 C    1.346751   -2.800522   -1.599982
 C    2.535173   -2.044458   -1.539433
 C    0.018109   -0.778961   -1.368496
 C   -1.214486   -0.092077   -1.365007
 O   -2.363755   -0.771034   -1.662299
 C   -1.309319    1.277404   -1.046984
 C   -2.558072    2.002437   -1.041666
 O   -3.702675    1.389612   -1.485102
 C   -2.598897    3.290599   -0.588750
 C   -1.439278    3.962932   -0.145724
 C   -0.222335    3.344238   -0.167014
 O    0.848638    4.056788    0.250245
 C   -0.118438    1.976401   -0.636576
 C    1.106195    1.292228   -0.682308
 O    2.221861    1.952064   -0.206621
 C    1.230194   -0.032946   -1.135407
 C    2.513188   -0.694987   -1.301744
 N    3.735637    0.004953   -1.282067
 C    4.788608   -0.421599   -0.378779
 C    4.865462    0.373073    0.934759
 N    3.572061    0.494056    1.615101
 C    2.990638   -0.769710    2.073407
 C    1.757707   -0.528626    2.925294
 O    0.795233    0.134755    2.136709
 H   -5.896693   -0.683726    1.681715
 H   -4.055874    0.817945    2.279311
 H   -4.189611    0.274238    0.586026
 H   -2.557007   -1.090022    2.778679
 H   -1.910863   -0.071116    1.463259
 H   -2.684781   -1.155898   -0.798784
 H   -3.504573   -2.452877    0.962773
 H   -1.503466   -3.298878    1.909639
 H   -0.607750   -2.056721    1.023124
 H   -2.169869   -4.333177   -0.313850
 H   -0.449412   -4.371933    0.050228
 H   -1.822703   -2.611713   -1.855679
 H    1.396141   -3.875378   -1.746690
 H    3.486186   -2.534295   -1.726524
 H   -4.382660    2.073504   -1.530754
 H   -3.549098    3.822414   -0.577788
 H   -1.494353    4.987668    0.204672
 H    1.624825    3.468126    0.180416
 H    3.605037    1.006619   -1.280835
 H    5.768189   -0.335183   -0.866171
 H    4.646667   -1.483369   -0.160256
 H    5.203853    1.393388    0.719340
 H    5.627406   -0.096524    1.579321
 H    2.619266    1.391304    0.535029
 H    3.689233    1.108878    2.417965
 H    3.714369   -1.361511    2.658540
 H    2.702498   -1.359400    1.197869
 H    2.029696    0.071009    3.810401
 H    1.388756   -1.500498    3.285615
 H    0.059993    0.404881    2.697551
