31 
6gih_ligand_xtb.xyz
 N    4.251194    0.906339    0.781880
 C   -3.039965    0.289003   -0.146666
 C   -0.768699    1.071758   -0.453699
 C   -0.262330   -0.245758   -0.397375
 C   -1.205711   -1.278025   -0.261478
 C    1.624425   -1.701575   -1.029320
 C    2.972641   -2.000458   -1.088299
 C    3.923749   -1.164659   -0.511790
 C    3.503672   -0.011642    0.117658
 C    3.380198    1.796685    1.242785
 C    2.049404    1.517954    0.905514
Cl   -2.709573    2.940142   -0.441566
 C   -2.114801    1.314861   -0.349493
 C   -2.557783   -1.013516   -0.123229
 C   -3.444982   -2.170142    0.238309
 N   -2.919786   -2.670404    1.563342
 C    1.146275   -0.525106   -0.432553
 C    2.093094    0.343770    0.156962
 H   -4.088688    0.505929   -0.031378
 H   -0.077913    1.882794   -0.610834
 H   -0.849845   -2.302423   -0.253066
 H    0.923844   -2.360786   -1.529823
 H    3.290845   -2.900865   -1.598373
 H    4.974567   -1.412774   -0.552310
 H    3.726993    2.640760    1.819532
 H    1.194637    2.098846    1.205854
 H   -3.363786   -2.988025   -0.479375
 H   -4.488479   -1.876679    0.343729
 H   -3.308219   -3.573218    1.856690
 H   -1.891099   -2.725863    1.431214
 H   -3.095101   -1.960562    2.284252
