55 
6gin_ligand_dft.xyz
 C  -66.997555  197.961684  140.656869
 C  -67.031396  198.315089  139.174771
 C  -69.374553  198.465309  139.526298
 C  -68.992278  199.415476  140.654953
 C  -67.664516  199.145915  142.723838
 C  -68.316243  200.226679  143.346705
 C  -68.119692  200.492309  144.694140
 C  -67.251707  199.713437  145.450462
 C  -66.595049  198.643206  144.850602
 C  -66.802165  198.356741  143.512038
 C  -66.544674  201.280360  147.156055
 C  -66.637132  200.885786  149.392080
 C  -66.449056  201.339051  150.707190
 C  -66.733187  200.510409  151.773327
 C  -67.209583  199.198699  151.575499
 C  -67.397585  198.747949  150.276784
 C  -67.114658  199.580572  149.188992
 C  -67.331219  199.079712  147.825581
 C  -67.545323  198.348566  152.746692
 C  -68.411167  198.819664  153.705648
 C  -68.755432  198.002624  154.804990
 C  -67.425109  196.299485  154.067110
 C  -66.916053  194.992241  154.277194
 C  -66.010820  194.447263  153.405474
 C  -65.565288  195.189846  152.287805
 C  -66.044715  196.452903  152.054214
 C  -67.000295  197.038680  152.926470
 N  -67.864211  198.868014  141.388633
 N  -67.028035  200.031171  146.831327
 N  -66.341303  201.738772  148.337961
 N  -68.301468  196.787595  154.991316
 O  -68.324488  198.237020  138.608565
 O  -67.729721  197.965770  147.545027
 H  -67.281105  196.907550  140.803413
 H  -65.965586  198.078105  141.006264
 H  -66.394210  197.623921  138.615135
 H  -66.626422  199.330253  139.046155
 H  -70.209300  198.883927  138.956745
 H  -69.707348  197.512373  139.964868
 H  -68.774140  200.416036  140.250217
 H  -69.855660  199.508788  141.323381
 H  -68.969096  200.877151  142.776068
 H  -68.646666  201.319981  145.160779
 H  -65.937906  198.015654  145.441983
 H  -66.308800  197.491683  143.084253
 H  -66.321179  201.905705  146.295117
 H  -66.074390  202.346171  150.855576
 H  -66.576719  200.864466  152.788452
 H  -67.780022  197.751747  150.077244
 H  -68.857052  199.804836  153.607922
 H  -69.450915  198.380018  155.553149
 H  -67.267879  194.455394  155.151941
 H  -65.624362  193.446672  153.574553
 H  -64.833546  194.757423  151.612230
 H  -65.685019  197.019150  151.201948
