40 
6gip_ligand_dft.xyz
 C    0.047656   -1.078183    1.580446
 C   -0.536778   -0.121118    0.570097
 C    1.749607    0.929796    0.240947
 C    2.262051    2.002469    0.929367
 C    3.653453    2.084266    1.168061
 C    4.046563    0.117571    0.076012
 C    4.982182   -0.853455   -0.364229
 C    4.567193   -1.946967   -1.078111
 C    2.668199   -0.059637   -0.226051
 C    3.198091   -2.117470   -1.390457
 C    2.270848   -1.196134   -0.977059
 C   -6.091621    0.104963   -0.484456
 C   -4.679468    0.264107    0.051706
 C   -2.817614   -1.221960    0.735993
 C   -1.906977   -0.148243    0.233808
 C   -2.440496    0.799093   -0.664841
 C   -1.602709    1.745763   -1.258368
 C   -0.257346    1.751755   -0.946688
 C    0.288152    0.837566   -0.040004
 N   -4.146450   -1.014305    0.464435
 N    4.524946    1.189105    0.772632
 N   -3.793822    0.761038   -0.984374
 O   -2.450964   -2.246099    1.292485
 H   -0.602894   -1.179213    2.450043
 H    0.148045   -2.081529    1.157555
 H    1.031768   -0.738583    1.908392
 H    1.603169    2.779642    1.304422
 H    4.050627    2.934586    1.720791
 H    6.025687   -0.691523   -0.114818
 H    5.289414   -2.686258   -1.411459
 H    2.881855   -2.983529   -1.963944
 H    1.221585   -1.324721   -1.223781
 H   -6.089651   -0.579508   -1.336966
 H   -6.754645   -0.285876    0.293920
 H   -6.490692    1.073241   -0.803362
 H   -4.691753    0.961327    0.912269
 H   -2.010432    2.468813   -1.959719
 H    0.397421    2.483409   -1.411709
 H   -4.770233   -1.705353    0.856387
 H   -4.130190    1.607908   -1.423791
