30 
6giu_ligand_xtb.xyz
 O    0.830663    1.646082   -1.343436
 P    0.675463    1.392369    0.096651
 O   -0.696379    1.900562    0.723456
 O    1.723656    2.150854    1.022517
 C    0.892916   -0.401045    0.505510
 C    0.905762   -0.653871    1.999308
 P    2.564575   -0.652010   -0.254641
 O    3.549404    0.286978    0.301148
 O    2.962379   -2.166527   -0.045052
 O    2.334974   -0.572063   -1.818060
 O    0.035716   -1.240370   -0.231313
 C   -1.311751   -0.875910   -0.193538
 C   -2.133094   -1.344285    0.821192
 C   -1.837587   -0.081046   -1.204189
 C   -3.174591    0.257182   -1.188372
 C   -4.001318   -0.196582   -0.164219
 O   -5.310025    0.164360   -0.185669
 C   -3.473546   -1.004651    0.835761
 H   -0.546496    2.578868    1.384424
 H    2.622563    1.825127    0.830678
 H   -0.018768   -0.305446    2.458881
 H    1.026543   -1.719587    2.190149
 H    1.749349   -0.125772    2.439133
 H    2.415825   -2.756751   -0.568285
 H    1.916062    0.274579   -2.051142
 H   -1.728863   -1.984356    1.590524
 H   -1.195697    0.265328   -1.997346
 H   -3.599372    0.876203   -1.961588
 H   -5.772904   -0.220473    0.568563
 H   -4.112680   -1.370857    1.628401
