41 
6gjj_ligand_dft.xyz
 O   -1.022548    1.098362    1.695936
 C   -0.699486    1.571368    0.612623
 N   -1.669035    1.924211   -0.327401
 C   -2.957905    1.313037   -0.121941
 C   -2.929411   -0.187745   -0.383377
 O   -4.061011   -0.766705    0.024236
 C   -4.148075   -2.187530   -0.172657
 C   -5.480415   -2.641412    0.384006
 O   -2.015439   -0.773662   -0.915501
 N    0.600674    1.818795    0.258546
 C    1.011437    2.362054   -1.028109
 C    0.809569    3.872170   -1.134572
 C    1.651955    1.394418    1.171716
 C    2.411744    0.187643    0.662489
 C    1.729690   -0.913151    0.136391
 C    2.416898   -2.029095   -0.316204
 C    3.816346   -2.083503   -0.253339
 N    4.509892   -3.186406   -0.758364
 C    4.501914   -0.982166    0.268438
 C    3.802469    0.134681    0.712854
 H   -1.365911    1.900383   -1.290714
 H   -3.692715    1.773509   -0.790553
 H   -3.282507    1.486337    0.904357
 H   -3.306607   -2.663931    0.338676
 H   -4.055267   -2.402940   -1.241639
 H   -5.552740   -2.411383    1.450703
 H   -6.307665   -2.148160   -0.134496
 H   -5.586301   -3.722908    0.254592
 H    0.504968    1.836342   -1.848847
 H    2.069435    2.112273   -1.148299
 H   -0.245284    4.136305   -1.015138
 H    1.376864    4.385843   -0.351992
 H    1.153827    4.238836   -2.107375
 H    1.165037    1.176409    2.124061
 H    2.344294    2.230766    1.334577
 H    0.644465   -0.895363    0.070728
 H    1.865729   -2.870241   -0.730058
 H    3.979143   -4.046511   -0.763945
 H    5.425591   -3.326497   -0.354238
 H    5.588378   -0.995645    0.312713
 H    4.358163    0.981805    1.110138
