41 
6gjj_ligand_xtb.xyz
 O   -0.657190    1.063107    1.973301
 C   -0.530447    1.353123    0.795428
 N   -1.633209    1.583301   -0.009958
 C   -2.906365    1.094395    0.457699
 C   -3.353842   -0.107973   -0.353563
 O   -4.462358   -0.648493    0.137749
 C   -4.980985   -1.794322   -0.547136
 C   -6.106552   -2.378154    0.284713
 O   -2.775570   -0.504821   -1.334194
 N    0.683520    1.537210    0.212349
 C    0.889507    1.900419   -1.171966
 C    0.626333    3.384125   -1.430145
 C    1.873551    1.432199    1.041923
 C    2.729020    0.268402    0.619411
 C    2.210194   -1.021063    0.667270
 C    2.962197   -2.102756    0.262444
 C    4.265537   -1.924658   -0.205691
 N    4.995882   -2.997099   -0.679243
 C    4.786502   -0.632456   -0.252479
 C    4.022846    0.446053    0.150113
 H   -1.507455    1.453352   -1.004261
 H   -3.672256    1.874600    0.381052
 H   -2.796539    0.815794    1.511107
 H   -4.169549   -2.516368   -0.689032
 H   -5.335865   -1.481409   -1.535676
 H   -5.734474   -2.672899    1.261996
 H   -6.892411   -1.640388    0.421001
 H   -6.517868   -3.248860   -0.217628
 H    0.261585    1.283707   -1.824717
 H    1.928579    1.661359   -1.412950
 H   -0.398038    3.640478   -1.173484
 H    1.292886    3.993509   -0.824716
 H    0.798235    3.617451   -2.477714
 H    1.521947    1.294091    2.067841
 H    2.441926    2.367079    0.983279
 H    1.204805   -1.167911    1.033183
 H    2.548314   -3.100223    0.305739
 H    4.703297   -3.907595   -0.363385
 H    5.994320   -2.871981   -0.722691
 H    5.794801   -0.480307   -0.611185
 H    4.446384    1.440288    0.107231
