43 
6gjl_ligand_xtb.xyz
 N   -0.117090   19.034176   -7.117358
 C   -1.197470   19.995937   -6.986921
 C    0.115805   18.057006   -6.195243
 N    2.906753   19.452018   -6.666803
 C   -1.991131   15.831659   -4.700519
 C   -4.002851   17.787221   -8.257637
 C    2.068982   19.968294   -7.598831
 C    0.896495   19.230156   -8.138802
 C   -2.783982   18.418736   -8.143476
 O    1.144918   17.390559   -6.211455
 N   -0.833809   17.912510   -5.220079
 C   -0.801890   16.728556   -4.398897
 O   -2.912261   16.155312   -5.405817
 O   -1.891223   14.671035   -4.061326
 C   -2.941932   13.719365   -4.263094
 C   -2.736511   12.934328   -5.549968
 N    2.475168   21.186837   -7.867978
 N    3.544527   21.397624   -7.107562
 N    3.812368   20.389455   -6.390196
 C   -2.554142   19.347958   -7.134730
 C   -5.036801   18.071371   -7.363914
 N   -6.272737   17.482696   -7.510135
 C   -4.813307   19.019293   -6.365224
 C   -3.588006   19.642401   -6.252799
 H   -1.055880   20.750830   -7.764935
 H   -1.130054   20.504537   -6.017089
 H    2.835236   18.539332   -6.230052
 H   -4.164336   17.057953   -9.038120
 H    0.471406   19.785381   -8.974620
 H    1.231350   18.244146   -8.480239
 H   -1.989718   18.176940   -8.834646
 H   -1.771116   18.226783   -5.445678
 H    0.129901   16.190091   -4.597343
 H   -0.829399   16.995979   -3.336237
 H   -3.898870   14.250767   -4.289285
 H   -2.900726   13.065790   -3.389939
 H   -3.512518   12.180282   -5.644949
 H   -2.787076   13.603523   -6.405489
 H   -1.765170   12.446290   -5.540476
 H   -6.297082   16.622470   -8.033046
 H   -6.872044   17.497275   -6.700974
 H   -5.605133   19.252584   -5.668200
 H   -3.427640   20.364541   -5.463918
