46 
6gjr_ligand_xtb.xyz
 O    0.813200   -2.279488   -1.003384
 C    0.647561   -1.282548   -0.321167
 N   -0.228340   -1.265768    0.738744
 C   -1.249531   -2.282674    0.790408
 C   -2.626757   -1.650755    0.708943
 O   -2.849076   -0.497326    0.977691
 O   -3.553176   -2.528257    0.334596
 C   -4.891875   -2.037329    0.213319
 C   -5.078969   -1.249981   -1.075672
 N    1.345184   -0.128673   -0.538160
 C    2.436534   -0.166199   -1.479527
 C    3.761311   -0.055719   -0.816192
 N    3.990731   -0.244692    0.476315
 N    5.291962   -0.057304    0.566861
 C    6.020603   -0.160631    1.790657
 N    5.840853    0.233940   -0.583954
 N    4.902835    0.244334   -1.464423
 C    1.149382    1.084274    0.230305
 C   -0.264220    1.609905    0.123836
 C   -0.974092    1.493292   -1.065550
 C   -2.275689    1.937782   -1.158653
 C   -2.906012    2.522987   -0.060561
 N   -4.191243    3.015046   -0.164712
 C   -2.184899    2.664517    1.124222
 C   -0.886485    2.209065    1.212430
 H   -0.545747   -0.366217    1.077358
 H   -1.188704   -2.842397    1.732798
 H   -1.093534   -2.982030   -0.036272
 H   -5.115172   -1.404830    1.079108
 H   -5.521184   -2.928697    0.229748
 H   -4.433824   -0.374490   -1.067236
 H   -4.823221   -1.867844   -1.932765
 H   -6.114021   -0.931290   -1.161972
 H    2.345762    0.634285   -2.223134
 H    2.377513   -1.129935   -1.998736
 H    5.691452    0.611413    2.487510
 H    5.847488   -1.138863    2.239521
 H    7.075612   -0.031269    1.560500
 H    1.842936    1.830422   -0.170703
 H    1.416953    0.921307    1.282331
 H   -0.507622    1.026150   -1.920741
 H   -2.820153    1.826981   -2.086258
 H   -4.751523    2.633525   -0.910065
 H   -4.686511    3.134058    0.704359
 H   -2.659900    3.117199    1.982350
 H   -0.349246    2.308995    2.145601
