84 
6gjw_ligand_dft.xyz
 O    3.103660    1.650418    1.221434
 S    4.016920    0.606461    0.794312
 O    3.802868    0.325352   -0.760158
 O    3.966732   -0.651689    1.539905
 C    5.693013    1.232899    0.739595
 C    6.868115    0.566109    0.217727
 C    5.736542    2.510436    1.246897
 C    6.932665    3.239117    1.276118
 C    8.053505    2.694349    0.727405
 C    8.050523    1.387046    0.167265
 C    9.231263    0.891472   -0.462994
 S   10.725382    1.845563   -0.614605
 O   10.239131    3.131314   -1.484521
 O   11.654406    1.101634   -1.443028
 O   11.115998    2.377089    0.670477
 C    9.270141   -0.366642   -0.994942
 C    8.166586   -1.211301   -0.870744
 C    6.993751   -0.804138   -0.259950
 N    5.962900   -1.735823   -0.101213
 C    5.911042   -3.042859   -0.559767
 O    6.799739   -3.624423   -1.157229
 C    4.619345   -3.744203   -0.245559
 C    3.414146   -3.053179   -0.290291
 C    4.646385   -5.104848    0.054318
 C    3.454238   -5.753127    0.352831
 C    2.248625   -5.059269    0.344535
 C    2.223061   -3.700789    0.022861
 N    0.976256   -3.034332    0.074795
 C    0.701736   -1.731070   -0.246029
 O    1.486716   -0.972375   -0.805904
 N   -0.566500   -1.328306    0.107034
 C   -1.077520   -0.027088   -0.116461
 C   -2.397295    0.102100   -0.547859
 C   -0.309858    1.113366    0.130605
 C   -0.861457    2.368423   -0.100382
 C   -2.173302    2.505459   -0.540081
 C   -2.953654    1.369163   -0.741566
 C   -4.377965    1.564860   -1.171960
 O   -4.726230    2.499887   -1.864029
 N   -5.242440    0.602216   -0.684003
 C   -6.634493    0.630738   -0.783777
 C   -7.440632    0.198003    0.325213
 C   -6.989964    0.001227    1.682323
 S   -5.520024    0.727082    2.414518
 O   -5.234300    2.025005    1.840725
 O   -4.359857   -0.312770    1.870869
 O   -5.590421    0.564856    3.848646
 C   -7.805488   -0.566708    2.632316
 C   -9.114501   -0.964687    2.312100
 C   -9.621824   -0.685030    1.076960
 C   -8.824131   -0.070992    0.071251
 C   -9.374591    0.287542   -1.195929
 S  -11.116020    0.037385   -1.484088
 O  -11.870157    0.973174   -0.685830
 O  -11.409282   -1.385956   -1.442879
 O  -11.269034    0.493340   -3.031819
 C   -8.601880    0.867093   -2.167458
 C   -7.222429    1.002783   -1.972841
 H    2.898138   -0.072426   -0.879707
 H    4.822362    2.962614    1.610809
 H    6.951648    4.234957    1.704280
 H    8.972024    3.265469    0.728939
 H   10.409816    2.936022   -2.420013
 H   10.168573   -0.724593   -1.484074
 H    8.230441   -2.223924   -1.237219
 H    5.228041   -1.502154    0.560829
 H    3.403703   -2.018307   -0.573402
 H    5.592313   -5.634966    0.053915
 H    3.457184   -6.810002    0.599244
 H    1.325103   -5.580409    0.586432
 H    0.256417   -3.546399    0.563040
 H   -1.245295   -2.033402    0.353195
 H   -2.973156   -0.792879   -0.773013
 H    0.705641    1.027575    0.497704
 H   -0.256351    3.249797    0.084477
 H   -2.611825    3.481409   -0.715389
 H   -4.862586   -0.017542    0.017286
 H   -3.521156    0.186133    1.839399
 H   -7.444356   -0.666576    3.648594
 H   -9.732608   -1.437771    3.066720
 H  -10.651795   -0.941840    0.862958
 H  -11.376192   -0.317459   -3.555695
 H   -9.040896    1.173660   -3.108380
 H   -6.598749    1.376504   -2.773100
