96 
6gl8_ligand_dft.xyz
 C    0.339163    1.913458    3.545465
 C    1.618910    2.261867    4.312107
 C    3.093531    1.181473    2.590859
 C    2.778111    2.472085    3.337595
 C    0.598909    0.897584    2.472016
 N    1.866970    0.569711    2.086777
 C    1.822732   -0.420233    1.124991
 C    0.506399   -0.728502    0.898155
 C   -0.276221    0.105514    1.741870
 C   -1.740156    0.267516    1.733198
 O   -2.251048    1.380567    1.852785
 N   -2.512856   -0.844963    1.468984
 C    3.024498   -0.871053    0.392717
 C    3.899756   -1.840292    0.916692
 C    3.250616   -0.332959   -0.876881
 C    5.173185   -1.679545   -1.139604
 C    4.963474   -2.216366    0.129660
 O    5.940202   -3.114262    0.409954
 C    6.750900   -3.206239   -0.760460
 O    6.286513   -2.223936   -1.687812
 C    2.328644    0.753201   -1.341161
 N    1.349142    0.434194   -2.217077
 O    2.475937    1.911633   -0.918958
 C    0.526148    1.517567   -2.774884
 C   -0.255715    0.996421   -3.990779
 C    1.066451   -0.958177   -2.616262
 C   -0.405500   -1.174882   -2.855927
 C   -1.080578   -0.196771   -3.592396
 C   -2.429452   -0.356748   -3.891894
 C   -3.098068   -1.508961   -3.483591
 C   -2.423024   -2.485545   -2.758185
 C   -1.079552   -2.314684   -2.430550
 C   -0.457169    2.107367   -1.742212
 C    4.330366   -0.736641   -1.679870
 N    0.134062    3.193936   -0.896556
 C   -0.779151    3.571002    0.231554
 C   -0.127474    4.656707    1.071885
 O    0.194312    5.789502    0.300502
 C    1.103170    5.454883   -0.715001
 C    0.514884    4.420587   -1.667433
 C   -3.826466   -0.637175    0.935498
 C   -2.092380   -2.183055    1.725742
 C   -3.963775   -0.147369   -0.362109
 C   -5.219790    0.034527   -0.917020
 C   -6.357560   -0.288306   -0.173430
 C   -6.222417   -0.792716    1.121400
 C   -4.957982   -0.961406    1.673438
 C   -2.380711   -3.182899    0.796636
 C   -1.971505   -4.490364    1.032066
 C   -1.270935   -4.809917    2.192433
 C   -1.002414   -3.813773    3.127088
 C   -1.422435   -2.506987    2.905675
 O   -7.559405   -0.097518   -0.769791
 H   -0.084292    2.820773    3.099999
 H   -0.435778    1.538572    4.220861
 H    1.454905    3.159326    4.915081
 H    1.873335    1.451549    5.006517
 H    3.595247    0.470777    3.257698
 H    3.750580    1.367758    1.737061
 H    3.680005    2.802397    3.860756
 H    2.521293    3.258624    2.615600
 H    0.133299   -1.466509    0.201673
 H    3.730828   -2.281446    1.892133
 H    6.642047   -4.201933   -1.202524
 H    7.791005   -2.996861   -0.501515
 H    1.216433    2.292523   -3.117288
 H    0.463539    0.718595   -4.771754
 H   -0.871005    1.802242   -4.401240
 H    1.434043   -1.623234   -1.835604
 H    1.629548   -1.189963   -3.530791
 H   -2.954823    0.408287   -4.457825
 H   -4.148227   -1.640627   -3.722342
 H   -2.945752   -3.382843   -2.442650
 H   -0.561018   -3.073358   -1.849649
 H   -1.334061    2.535609   -2.236515
 H   -0.792471    1.327550   -1.053801
 H    4.505573   -0.318010   -2.664556
 H    1.028946    2.786980   -0.546507
 H   -1.702787    3.943060   -0.221353
 H   -1.017972    2.682356    0.825016
 H    0.777430    4.259370    1.559846
 H   -0.825778    4.975657    1.847381
 H    2.043738    5.067413   -0.289767
 H    1.326630    6.368849   -1.268235
 H   -0.392094    4.799213   -2.146846
 H    1.251081    4.146997   -2.422642
 H   -3.073765    0.075424   -0.944286
 H   -5.341481    0.415331   -1.925525
 H   -7.104746   -1.050113    1.702293
 H   -4.848103   -1.353260    2.679648
 H   -2.932170   -2.926789   -0.101142
 H   -2.204943   -5.263271    0.305732
 H   -0.952887   -5.831204    2.375356
 H   -0.478878   -4.056465    4.046621
 H   -1.228032   -1.736508    3.644476
 H   -8.268252   -0.342018   -0.162281
