37 
6gmd_ligand_dft.xyz
 C    2.909485  144.626412  352.021593
 C    5.411491  143.102701  349.536968
 C    4.518806  143.227776  350.605710
 C    4.353198  142.051646  351.506527
 C    5.355064  141.748640  352.434896
 C    5.261664  140.651445  353.280867
 C    4.141062  139.822365  353.213377
 C    4.047097  138.599906  354.071700
 C    3.596118  145.476117  353.100956
 C    3.838171  144.434026  350.832986
 C    4.086568  145.493541  349.956142
 C    4.966186  145.367688  348.888099
 C    5.633942  144.166239  348.673195
Cl    1.956880  141.498890  350.322314
 C    3.239470  141.200147  351.452251
 C    3.126960  140.100801  352.295905
 N    4.650375  137.413988  353.313794
 C    1.555136  145.222587  351.620730
 H    2.709045  143.643207  352.462738
 H    5.926167  142.158482  349.379786
 H    6.216841  142.405633  352.491917
 H    6.049486  140.460773  354.005986
 H    4.616936  138.682084  354.999152
 H    3.019636  138.312494  354.303297
 H    2.947333  145.585014  353.976518
 H    4.538098  145.020227  353.424863
 H    3.823483  146.478701  352.722365
 H    3.583329  146.442735  350.114911
 H    5.132617  146.210537  348.224676
 H    6.322916  144.058430  347.841860
 H    2.235564  139.481068  352.240068
 H    4.616629  136.539911  353.849440
 H    4.151038  137.270281  352.429513
 H    5.628303  137.609391  353.074725
 H    0.884422  145.246393  352.485743
 H    1.655835  146.251117  351.258579
 H    1.079650  144.630607  350.832856
