37 
6gmd_ligand_xtb.xyz
 C    1.927587   -1.702506    0.531229
 C    1.434557    1.708885   -1.100223
 C    1.157229    0.464194   -0.539808
 C   -0.260866    0.080842   -0.385530
 C   -0.830656   -0.902584   -1.188813
 C   -2.166563   -1.240394   -1.073955
 C   -2.962573   -0.603617   -0.130076
 C   -4.422729   -0.926403    0.005880
 C    2.582907   -2.853242   -0.234763
 C    2.197377   -0.376308   -0.139243
 C    3.503651    0.062483   -0.325828
 C    3.777434    1.291599   -0.894817
 C    2.739160    2.121387   -1.284047
Cl   -0.414058    1.937365    1.584387
 C   -1.075110    0.722767    0.552902
 C   -2.410826    0.380976    0.683714
 N   -5.228275    0.208542   -0.575110
 C    2.416491   -1.664894    1.981636
 H    0.845862   -1.876448    0.548068
 H    0.615092    2.345974   -1.401869
 H   -0.208917   -1.402564   -1.914983
 H   -2.582177   -2.010324   -1.706017
 H   -4.704637   -1.032887    1.054539
 H   -4.675428   -1.841893   -0.528851
 H    2.259214   -2.856617   -1.273506
 H    3.665567   -2.768975   -0.215405
 H    2.308916   -3.804039    0.215973
 H    4.323044   -0.567606   -0.016785
 H    4.800917    1.606305   -1.029355
 H    2.944056    3.084740   -1.724809
 H   -3.002086    0.870141    1.443629
 H   -6.238519    0.067279   -0.451560
 H   -4.944150    1.081797   -0.109556
 H   -5.019433    0.301099   -1.577659
 H    2.178393   -2.600797    2.481190
 H    3.491885   -1.517108    2.025309
 H    1.936885   -0.852167    2.523282
