12 
6gnp_ligand_xtb.xyz
 C    0.599694   -1.162297   -0.000641
 C    1.620052   -0.253157   -0.000323
 C    1.418138    1.196079   -0.001492
 O    2.258640    2.054191   -0.002407
 N    0.047067    1.482635   -0.001358
 C   -0.821547    0.602601   -0.001021
 C   -0.755277   -0.748896   -0.001039
Cl   -2.103115   -1.842362   -0.001158
Cl   -2.827235    1.302050    0.002272
Cl    3.255032   -0.777541    0.002183
 H    0.819851   -2.217480   -0.000333
 H   -3.104398    0.003027    0.000133
