26 
6gon_ligand_xtb.xyz
 C    0.487739    0.333846   -0.362120
 C    1.726763    0.571072    0.562930
 C    3.082787    0.571134   -0.222831
 C   -0.788589   -0.042356    0.459137
 C    3.848455   -0.788289   -0.118076
 F   -2.363031    1.495710   -0.387766
 C   -2.102127    0.171031   -0.362792
 F   -1.930747   -0.227927   -1.626678
 C   -3.331276   -0.555787    0.252983
 F   -3.354649   -0.338671    1.594445
 F   -3.216767   -1.880872    0.073571
 C   -4.678401   -0.030282   -0.402403
 O   -5.477300    0.580920    0.439703
 O   -4.886868   -0.205528   -1.554718
 F   -0.682612   -1.320131    0.848782
 F   -0.859891    0.709000    1.570924
 F    0.272426    1.449755   -1.072459
 F    0.741878   -0.657370   -1.229906
 F    1.765519   -0.364118    1.527731
 F    1.579709    1.755036    1.172724
 F    3.873225    1.532644    0.277304
 F    2.883453    0.862382   -1.517357
 F    4.840818   -0.815328   -0.994315
 F    3.047396   -1.818773   -0.364658
 F    4.360557   -0.937764    1.096197
 H   -5.174318    0.622507    1.362299
