26 
6goo_ligand_dft.xyz
 C    0.550796   -0.035921   -0.189861
 C    1.749335    0.919003    0.042313
 C    3.154751    0.398769   -0.390336
 C   -0.819882    0.526782    0.296529
 C    3.674145   -0.927185    0.223206
 F   -2.236159    0.125866   -1.544319
 C   -2.035227   -0.267026   -0.268319
 F   -1.766318   -1.579294   -0.243841
 C   -3.360237   -0.027161    0.498883
 F   -3.487332    1.314586    0.727443
 F   -3.327073   -0.661009    1.675767
 C   -4.580804   -0.531197   -0.320077
 O   -5.395496    0.424868   -0.758457
 O   -4.739682   -1.698351   -0.520368
 F   -0.843366    0.462591    1.639620
 F   -0.949449    1.808887   -0.083923
 F    0.473078   -0.309808   -1.504162
 F    0.780056   -1.172115    0.493797
 F    1.792077    1.231441    1.349531
 F    1.551237    2.040575   -0.673745
 F    4.019354    1.368136   -0.039509
 F    3.162793    0.264302   -1.727130
 F    4.990544   -0.995031    0.042366
 F    3.110103   -1.970000   -0.380459
 F    3.415435   -0.978107    1.528336
 H   -5.080658    1.292285   -0.461376
