26 
6goo_ligand_xtb.xyz
 C    0.547413    0.057611   -0.404123
 C    1.745792    0.947132    0.057045
 C    3.136647    0.394412   -0.393485
 C   -0.768853    0.393567    0.369061
 C    3.613557   -0.922362    0.318259
 F   -2.297103    0.678038   -1.404538
 C   -2.037450   -0.148019   -0.368931
 F   -1.797016   -1.362090   -0.873719
 C   -3.297394   -0.201665    0.540407
 F   -3.393883    0.956227    1.245174
 F   -3.173188   -1.194013    1.436156
 C   -4.607774   -0.415054   -0.331023
 O   -5.474607    0.564882   -0.238261
 O   -4.734030   -1.394321   -0.984492
 F   -0.684591   -0.127585    1.600611
 F   -0.893099    1.724134    0.505629
 F    0.372455    0.230605   -1.720996
 F    0.840497   -1.238678   -0.206375
 F    1.734876    1.105334    1.389266
 F    1.594344    2.167241   -0.482171
 F    4.047002    1.352967   -0.160627
 F    3.118202    0.178890   -1.718456
 F    4.909402   -0.843852    0.581445
 F    3.413606   -1.969596   -0.467622
 F    2.976430   -1.134385    1.465028
 H   -5.233913    1.292640    0.359539
