46 
6gop_ligand_xtb.xyz
 C    0.655512    1.114124   -0.664258
 C    0.611749    0.959047   -2.176308
 C   -0.752154    1.125382    0.045352
 C   -1.835800    0.265021   -0.677995
 C   -3.227534   -0.792242    1.136881
 C   -4.454334   -1.303081   -1.379259
 C    5.043694   -1.149770    0.643511
Cl    5.773967   -0.882937   -0.966696
 C    3.533112   -1.251356    0.548411
 C    2.895525    0.055079    0.080234
 C    1.371635   -0.056875    0.046375
 O    1.295333    2.348648   -0.412669
 C    0.748331   -0.059626    1.439707
 O    1.195535   -0.545281    2.451558
 N   -0.433967    0.590679    1.347956
 C   -1.233115    2.555559    0.142925
 O   -1.349519    3.158972    1.171888
 O   -1.370899   -1.035954   -0.911423
 C   -3.185493    0.290471    0.093757
 C   -4.373596    0.128808   -0.861403
 C   -4.725650   -2.256150   -0.218481
 C   -3.900437   -1.923244    0.982369
 H    0.142789    0.022264   -2.455846
 H    0.078147    1.794312   -2.621093
 H    1.632085    0.977055   -2.549320
 H   -1.990391    0.706064   -1.668117
 H   -2.667113   -0.619207    2.044607
 H   -5.246530   -1.388764   -2.124544
 H   -3.510262   -1.565459   -1.857628
 H    5.478775   -2.071127    1.029424
 H    5.348393   -0.308504    1.265642
 H    3.146952   -1.498018    1.539282
 H    3.265385   -2.057899   -0.137180
 H    3.194409    0.858225    0.757380
 H    3.259084    0.306183   -0.917527
 H    1.089263   -0.987815   -0.453620
 H    1.447123    2.452263    0.534313
 H   -0.966029    0.862404    2.160755
 H   -1.469900    3.008809   -0.835041
 H   -1.490794   -1.549271   -0.099041
 H   -3.265359    1.266967    0.584896
 H   -4.281969    0.831254   -1.691897
 H   -5.290664    0.368280   -0.318569
 H   -4.532824   -3.288396   -0.520235
 H   -5.780546   -2.201485    0.071971
 H   -3.901962   -2.660912    1.773810
