34 
6got_ligand_xtb.xyz
 C   -1.837736    1.054223   -0.676017
 C   -0.602514    1.588481   -0.357987
 C   -1.684573   -0.448706    1.199432
 C   -0.445645    0.072069    1.514777
 C    0.104354    1.087749    0.731985
 C    2.449010    2.226327   -0.363980
 C    4.330810   -2.372786    0.324347
 O   -4.122326   -1.908977    0.283878
 S   -3.965822   -0.610969   -0.305051
 O   -4.214484   -0.436185   -1.706711
 N   -4.960124    0.465352    0.530247
 C   -2.363687    0.041440    0.100122
 S    1.688629    1.692006    1.211111
 C    2.521362    1.108056   -1.401760
 C    3.160455   -0.126651   -0.828352
 C    2.384336   -1.221631   -0.473708
 C    2.965676   -2.338348    0.100431
 C    5.112932   -1.287163   -0.031911
 C    4.530413   -0.170725   -0.603266
 H   -2.400818    1.405108   -1.525907
 H   -0.201588    2.395399   -0.950902
 H   -2.128062   -1.246152    1.773478
 H    0.116249   -0.301123    2.356833
 H    3.449286    2.532863   -0.058387
 H    1.915321    3.098041   -0.742345
 H    4.785039   -3.243571    0.773298
 H   -5.476927    0.003113    1.260403
 H   -5.573161    0.964503   -0.093501
 H    3.105556    1.477232   -2.249246
 H    1.517827    0.867012   -1.757478
 H    1.316940   -1.201622   -0.646633
 H    2.349212   -3.182061    0.373269
 H    6.179545   -1.309985    0.137268
 H    5.144871    0.674449   -0.880845
