61 
6gqm_ligand_dft.xyz
 C    8.574943    2.234602    0.839629
 C    7.530956    3.325020    1.115911
 C    7.938153    1.063882    0.146267
 N   -1.579401    1.475747   -0.976223
 C    2.977971   -1.196105   -0.477637
 C    2.399199   -0.022687   -0.962311
 C    1.036412    0.215786   -0.851570
 C    0.216752   -0.736182   -0.238084
 C    0.801856   -1.911028    0.247219
 C    2.162574   -2.151008    0.134298
 C   -2.036683    0.381673   -0.388448
 C   -3.442972    0.242618   -0.089145
 C   -4.272544    1.331563   -0.461522
 C   -5.662778    1.299728   -0.215416
 C   -4.088407   -0.851904    0.531500
 C   -8.422520    1.106265    0.305318
 C   -9.824262    0.694055    0.687937
 C  -11.513883   -0.828465    0.175565
 F   -3.353567   -1.925499    0.911905
 C   -5.427585   -0.897899    0.775906
 C   -6.232236    0.201830    0.394104
 O   -7.539854    0.063016    0.681849
 O  -10.237834   -0.346161   -0.153953
 N   -3.763723    2.447043   -1.067307
 C   -2.473824    2.437822   -1.277112
 N   -1.175882   -0.619202   -0.063328
 N    4.371293   -1.347850   -0.637718
 C    5.161504   -2.363598   -0.206732
 O    4.796011   -3.368097    0.379098
 C    6.648555   -2.203839   -0.569703
 N    7.148248   -0.847844   -0.473913
 C    7.814917   -0.249742    0.538996
 N    6.859159    0.041685   -1.437159
 N    7.331570    1.192980   -1.065956
 C    9.289904    1.807124    2.122413
 H    9.320565    2.650661    0.149838
 H    6.771952    2.961632    1.818286
 H    8.006762    4.209246    1.553332
 H    7.027091    3.621246    0.191958
 H    3.024135    0.729139   -1.438623
 H    0.605572    1.129642   -1.232130
 H    0.179954   -2.663585    0.726963
 H    2.593505   -3.066246    0.515235
 H   -6.232887    2.165132   -0.526682
 H   -8.151868    2.035062    0.825463
 H   -8.369284    1.275898   -0.777109
 H  -10.488548    1.569922    0.589071
 H   -9.838899    0.380474    1.744461
 H  -11.541519   -1.235232    1.198405
 H  -12.279750   -0.040642    0.094713
 H  -11.749601   -1.626626   -0.531008
 H   -5.876131   -1.761333    1.251212
 H   -2.052241    3.318343   -1.758395
 H   -1.603403   -1.415516    0.383154
 H    4.839764   -0.603322   -1.144893
 H    6.806496   -2.550272   -1.594910
 H    7.216151   -2.841919    0.106976
 H    8.139533   -0.789283    1.414775
 H    8.578484    1.393740    2.847872
 H   10.057567    1.051035    1.924340
 H    9.777276    2.667234    2.591521
