12 
6grp_ligand_xtb.xyz
 C   -0.615816   -1.033961    0.732518
 C   -1.478513   -0.123115    0.269766
 C   -1.000212    1.081509   -0.479867
 O   -1.691778    1.728733   -1.212179
 N    0.342650    1.405531   -0.263856
 C    1.163428    0.576597    0.218538
 C    0.849314   -0.846054    0.565276
Cl    1.420034   -1.867761   -0.831555
Cl    2.761560    1.080519    0.490759
Cl   -3.172313   -0.298400    0.404515
 H   -0.951723   -1.949108    1.195621
 H    1.420425   -1.193419    1.428194
