57 
6gu6_ligand_dft.xyz
 C   -0.087860   -0.697240   -0.104719
 N    2.104344    0.387677   -0.247630
 C    2.900783   -0.813239   -0.170945
 C    4.640749    0.453542    1.167627
 C    6.974396    0.000459    0.787468
 C   -1.984525   -2.795320    0.673798
 C   -3.776160   -3.968742   -0.620859
 C   -3.788516   -1.424574   -0.307733
 C   -4.389453   -0.059055    1.773949
 C   -3.257338    4.313586    0.492059
 C   -2.738242    3.802722   -0.858635
 C   -1.414662    3.107320   -0.757681
 C   -0.117393    3.646485   -0.834181
 N    0.856654    2.754154   -0.657458
 N    0.171400    1.601618   -0.455371
 C   -1.197379    1.756544   -0.509259
 N   -2.039519    0.717551   -0.315723
 C   -1.506766   -0.484261   -0.115351
 C    0.752592    0.380253   -0.261857
 C    4.332859   -0.482717    0.179802
 C    5.980302    0.685087    1.456623
 N    6.670385   -0.918085   -0.177046
 C    5.355386   -1.143941   -0.474440
 O    7.584270   -1.543446   -0.790143
 N   -2.366985   -1.536146    0.052411
 C   -2.294506   -3.980623   -0.238583
 C   -4.163023   -2.611025   -1.213040
 C   -4.710013   -1.282685    0.913822
 O   -4.498863    1.144537    1.055275
 H    0.334150   -1.689119   -0.053004
 H    2.526363    1.250314   -0.571918
 H    2.482439   -1.453450    0.616536
 H    2.862478   -1.387557   -1.107853
 H    3.851158    0.985858    1.686450
 H    8.035492    0.124213    0.953128
 H   -2.541491   -2.908244    1.615923
 H   -0.931536   -2.771158    0.950022
 H   -3.993525   -4.765783   -1.339957
 H   -4.380634   -4.178050    0.271727
 H   -3.886421   -0.511036   -0.894595
 H   -5.103507   -0.005486    2.602572
 H   -3.385923   -0.171871    2.216545
 H   -2.537225    5.000310    0.950296
 H   -4.207044    4.844227    0.365795
 H   -3.430275    3.480548    1.179924
 H   -3.473376    3.110465   -1.286255
 H   -2.653929    4.639145   -1.562846
 H    0.148843    4.679498   -1.021671
 H    6.270900    1.405810    2.212990
 H    5.212031   -1.876535   -1.258174
 H   -2.030537   -4.914966    0.269731
 H   -1.675286   -3.906842   -1.142044
 H   -5.238720   -2.574420   -1.418495
 H   -3.647302   -2.482238   -2.173098
 H   -4.680904   -2.184226    1.540332
 H   -5.737082   -1.187147    0.541962
 H   -3.713717    1.176164    0.473470
