29 
6guc_ligand_xtb.xyz
 N    4.086155   30.191608    7.091733
 C    5.163285   29.490801    6.717178
 N    5.292160   28.366118    7.391721
 C    4.254945   28.334077    8.241046
 C    3.465196   29.473117    8.083421
 C    2.285326   29.839366    8.771615
 C    1.499975   30.940142    8.626774
 C    1.643444   32.084949    7.697416
 O    2.501712   32.315689    6.852401
 N    0.591397   32.917230    7.937863
 C   -0.230910   32.429587    8.942864
 C   -1.385125   32.961036    9.480687
 C   -2.010287   32.252763   10.491219
 C   -1.496695   31.038920   10.959089
 O   -2.214265   30.453379   11.960665
 C   -1.760492   29.230341   12.485707
 C   -0.333404   30.507814   10.409882
 C    0.297505   31.211978    9.395487
 H    3.719995   31.088925    6.757675
 H    5.842718   29.812624    5.952866
 H    4.113629   27.514954    8.918151
 H    1.979965   29.119243    9.521240
 H    0.446111   33.780114    7.439307
 H   -1.791370   33.896777    9.129811
 H   -2.914689   32.624479   10.944860
 H   -0.765244   29.327692   12.931999
 H   -2.475786   28.959594   13.260577
 H   -1.742353   28.445942   11.721814
 H    0.078100   29.573742   10.755932
