55 
6gva_ligand_dft.xyz
 C   -4.324112   -1.478886   -0.292120
 C    3.582936    0.916057   -1.269169
 C   -2.803824   -0.266469   -1.317748
 C   -3.447170   -0.415101   -0.063759
 C    0.139222    1.512854   -2.766575
 C   -2.201796    1.220153    0.853701
 C   -0.077546    1.831961    2.608793
 C    0.945026    1.738053    1.474794
 C   -1.796872    0.685204   -1.456105
 C    1.300873    0.813939   -2.077433
 C    2.519974    1.487182   -1.952081
 N   -4.172644   -1.894642   -1.572742
 N   -3.246071   -1.166573   -2.211905
 C   -4.568784   -2.782497    1.831038
 N   -3.134018    0.346906    1.030932
 C   -6.354285   -1.135506    1.133038
 C   -5.296404   -2.134608    0.644457
 S   -1.776006    2.351943    2.159383
 N    0.793463    2.817014    0.491599
 N   -1.524104    1.421843   -0.355160
 N   -1.138534    0.853656   -2.622385
 C    3.463275   -0.360914   -0.706868
 C    2.255425   -1.042326   -0.859416
 C    1.184923   -0.463188   -1.536952
 C    4.606552   -0.943091    0.045000
 N    5.454220   -0.066687    0.602731
 C    6.490046   -0.543120    1.291285
 C    6.742817   -1.899608    1.469251
 C    5.871382   -2.807152    0.878746
 C    4.790852   -2.325514    0.151835
 H    4.519168    1.451265   -1.152993
 H    0.333734    1.600982   -3.839814
 H    0.060805    2.539611   -2.387219
 H    0.226295    2.597675    3.331514
 H   -0.118170    0.877936    3.140649
 H    0.821612    0.790494    0.940408
 H    1.945493    1.713631    1.929746
 H    2.632449    2.479600   -2.386042
 H   -4.042286   -2.021428    2.418039
 H   -5.279732   -3.292176    2.491992
 H   -3.833952   -3.516869    1.484950
 H   -7.083307   -1.629677    1.786027
 H   -5.882730   -0.324925    1.699997
 H   -6.893033   -0.692754    0.289089
 H   -5.795024   -2.921280    0.066152
 H    1.625730    2.852087   -0.090033
 H   -0.737993    2.100296   -0.316636
 H    0.699548    3.716716    0.956245
 H   -1.418414    0.174344   -3.319612
 H    2.121574   -2.024500   -0.416023
 H    0.250694   -1.010759   -1.621167
 H    7.152865    0.201935    1.726329
 H    7.600746   -2.229204    2.045226
 H    6.034547   -3.876400    0.973613
 H    4.114253   -3.012847   -0.344343
