55 
6gva_ligand_xtb.xyz
 C   -4.391880   -1.195147   -0.423956
 C    3.250068    1.154413   -0.931209
 C   -2.893370    0.233123   -1.236355
 C   -3.286180   -0.432354   -0.018113
 C   -0.028578    2.273477   -2.461698
 C   -1.591247    0.545226    0.982436
 C    1.038123    1.138967    1.959267
 C    1.051474    2.606150    1.530942
 C   -1.761144    1.058945   -1.204830
 C    1.089826    1.383143   -1.971962
 C    2.246306    1.948521   -1.446367
 N   -4.596962   -0.984875   -1.725048
 N   -3.708141   -0.136599   -2.230226
 C   -4.395957   -3.223872    0.994629
 N   -2.584396   -0.268342    1.124466
 C   -5.940381   -1.308914    1.502127
 C   -5.247235   -2.103874    0.393904
 S   -0.651926    0.729628    2.537552
 N    0.352640    3.404222    2.529379
 N   -1.104859    1.229072   -0.048777
 N   -1.334916    1.681586   -2.331479
 C    3.126035   -0.233675   -0.935494
 C    1.982451   -0.801218   -1.491850
 C    0.980049   -0.001249   -2.006734
 C    4.188616   -1.053048   -0.337810
 N    4.830093   -0.514124    0.699083
 C    5.795807   -1.203305    1.275299
 C    6.190573   -2.466284    0.861182
 C    5.534548   -3.027921   -0.223632
 C    4.518123   -2.315620   -0.833704
 H    4.143135    1.591843   -0.512356
 H    0.128178    2.519282   -3.516055
 H   -0.000763    3.213132   -1.893551
 H    1.702971    0.948290    2.800604
 H    1.296331    0.486754    1.129074
 H    0.498226    2.674884    0.591975
 H    2.090603    2.911963    1.368650
 H    2.355054    3.024280   -1.439159
 H   -3.620894   -2.797259    1.628208
 H   -5.011764   -3.892529    1.593860
 H   -3.920401   -3.802922    0.205532
 H   -6.574183   -1.960735    2.101078
 H   -5.194237   -0.852938    2.150070
 H   -6.557113   -0.521391    1.073790
 H   -6.001696   -2.534489   -0.272435
 H    0.036948    4.290803    2.159488
 H   -0.775797    2.109897    2.776257
 H    0.919429    3.566841    3.354382
 H   -1.828026    1.382409   -3.158371
 H    1.857768   -1.873899   -1.495817
 H    0.095926   -0.461787   -2.421974
 H    6.276861   -0.714962    2.113826
 H    6.986852   -2.989614    1.366620
 H    5.814688   -4.004981   -0.590540
 H    4.002330   -2.716412   -1.692195
