41 
6gvg_ligand_dft.xyz
 C   -1.819508   -0.346171   -0.499155
 C   -3.715876    0.775306    0.464671
 C   -3.195697   -0.220066   -0.363107
 C   -5.296132   -0.360380   -0.446100
 C    0.463891    0.448654    0.098689
 C    2.615464   -0.163557   -0.070812
 C    1.324337   -0.700840    0.094786
 C   -2.944943    1.671577    1.175657
 C   -1.566089    1.528903    1.038149
 C   -1.003907    0.533839    0.219717
 N   -4.247429   -0.932027   -0.942868
 O   -5.087436    0.677618    0.409631
 N   -6.598392   -0.704891   -0.637171
 N    2.479274    1.178884   -0.134449
 N    1.174638    1.550892   -0.037083
 C    1.277152   -2.093460    0.305318
 N    2.394957   -2.803714    0.254042
 C    3.567290   -2.158280    0.013104
 N    3.761411   -0.849386   -0.124714
 C    3.525631    2.175378   -0.324352
 C    3.557672    3.137348    0.861395
 C    3.333623    2.895719   -1.657672
 C    0.016682   -2.848873    0.611975
 N    4.657375   -2.969235   -0.103350
 H   -1.393928   -1.091424   -1.161703
 H   -3.383278    2.435760    1.807351
 H   -0.898585    2.197631    1.570368
 H   -6.759180   -1.302253   -1.433930
 H   -7.281282    0.023597   -0.494082
 H    4.451730    1.593477   -0.351228
 H    2.611428    3.681908    0.932490
 H    3.717014    2.593558    1.797295
 H    4.369185    3.861248    0.736600
 H    3.337566    2.181738   -2.486583
 H    2.379208    3.430555   -1.664576
 H    4.141367    3.617409   -1.816001
 H   -0.682240   -2.247062    1.197575
 H   -0.490845   -3.133991   -0.316603
 H    0.268835   -3.764458    1.150379
 H    4.559194   -3.910299    0.241604
 H    5.562923   -2.532590   -0.040436
