38 
6gvh_ligand_xtb.xyz
 C    1.256893   -1.948639    0.205693
 C    1.297957   -0.565128    0.043343
 C    2.620274   -0.044339   -0.094566
 N    2.341107   -2.677573    0.144343
 C    0.473675    0.601543    0.072131
 C    3.575312    2.258307   -0.273339
 C    3.387554    3.021443   -1.582237
 C    3.578496    3.200374    0.927355
 N    3.736096   -0.765551   -0.152640
 C   -0.977556    0.695265    0.176906
 C    3.528542   -2.071784   -0.058525
 N    2.511317    1.292462   -0.122701
 N    1.226005    1.675506   -0.020332
 N    4.589105   -2.894588   -0.181005
Cl   -0.198558   -2.793797    0.554513
 C   -1.787021   -0.195156   -0.519989
 C   -2.896459    1.859528    1.115320
 C   -1.529452    1.710093    0.968360
 C   -3.690444    0.962407    0.434052
 C   -3.156294   -0.052655   -0.384304
 N   -4.205468   -0.763693   -0.930778
 C   -5.263562   -0.195141   -0.456832
 O   -5.054421    0.856935    0.383124
 N   -6.543609   -0.507294   -0.761823
 H    4.499788    1.672066   -0.303088
 H    2.428981    3.533883   -1.569025
 H    4.181518    3.752222   -1.707263
 H    3.405910    2.336190   -2.426391
 H    2.626311    3.721655    0.980794
 H    3.723727    2.641045    1.848624
 H    4.378793    3.928370    0.829843
 H    4.456680   -3.864384    0.041080
 H    5.508787   -2.493359   -0.175021
 H   -1.375011   -0.956535   -1.160082
 H   -3.322100    2.636065    1.730300
 H   -0.856731    2.384191    1.474260
 H   -6.681033   -1.405690   -1.190949
 H   -7.254141   -0.178221   -0.130457
