40 
6gvi_ligand_dft.xyz
 C    3.416344   -2.309135    0.335449
 N    2.378082   -1.299094    0.144732
 C   -1.108208   -0.644332   -0.179500
 C    1.220843    0.568651   -0.098730
 C    2.513205    0.045095    0.052209
 N    1.071956   -1.675372    0.071747
 C    4.135437   -2.100043    1.668063
 C    4.377395   -2.327695   -0.853267
 C    1.170320    1.968501   -0.320410
 N    3.661846    0.739303    0.079544
 C    0.361336   -0.572370   -0.071889
 C    3.456957    2.046379   -0.073502
 N    2.287397    2.689777   -0.295438
 N    0.014100    2.634874   -0.557238
 N    4.553584    2.856354    0.011346
 C   -1.908549    0.293233    0.485885
 C   -3.288087    0.185850    0.351838
 C   -3.826062   -0.847719   -0.415327
 C   -3.070994   -1.800286   -1.067777
 C   -1.689798   -1.675126   -0.938468
 O   -5.195795   -0.721158   -0.369508
 C   -5.385754    0.370410    0.420821
 N   -4.326471    0.951982    0.883630
 N   -6.680900    0.750522    0.588780
 H    2.858594   -3.248678    0.366711
 H    4.862750   -2.902597    1.828520
 H    4.663816   -1.142478    1.670074
 H    3.420110   -2.108857    2.495825
 H    4.916347   -1.378687   -0.922424
 H    5.105315   -3.136340   -0.730500
 H    3.831309   -2.491105   -1.787269
 H   -0.820275    2.128304   -0.807769
 H    0.097494    3.596282   -0.849200
 H    5.451512    2.408912   -0.079907
 H    4.453893    3.788452   -0.356733
 H   -1.470903    1.064084    1.112384
 H   -3.523270   -2.593695   -1.651911
 H   -1.034245   -2.386553   -1.428275
 H   -7.378201    0.028941    0.485502
 H   -6.831365    1.396377    1.348940
