75 
6gvz_ligand_dft.xyz
 C    5.326947   -1.127499    1.391560
 C    5.963813   -1.580258    0.079827
 C    6.730605   -0.429163   -0.551180
 O    7.275490   -0.894429   -1.774859
 C    5.811335    0.770286   -0.757057
 C    5.124886    1.227920    0.543261
 C    4.222272    2.448813    0.309149
 C    2.911763    2.137610   -0.407806
 O    3.210719    1.896313   -1.778879
 C    2.171067    0.959739    0.251365
 C    3.088862   -0.273427    0.432841
 C    4.363521    0.074753    1.259735
 C    2.311821   -1.488964    0.970619
 C    1.021691   -1.796667    0.195509
 C    0.098724   -0.573274    0.115471
 C    0.924187    0.562089   -0.533499
 C   -0.115047    1.638161   -0.853361
 C   -1.364776    0.827066   -1.265362
 C   -1.085597   -0.662183   -0.891828
 C   -0.423244   -0.194067    1.512678
 C    4.006410    0.501276    2.696533
 C   -2.364685   -1.399618   -0.454634
 C   -2.112609   -2.858714   -0.059144
 C   -3.432386   -1.332275   -1.565712
 C   -4.857543   -1.550057   -1.061241
 C   -5.343641   -0.396847   -0.194256
 O   -4.845872    0.716843   -0.211641
 N   -6.401553   -0.700099    0.623862
 C   -7.105807    0.346990    1.313128
 C   -8.205100    1.041639    0.523547
 O   -8.858765    1.956191    0.958236
 O   -8.386896    0.520403   -0.702460
 H    4.819002   -1.967243    1.877803
 H    6.131016   -0.829966    2.080709
 H    5.205108   -1.926706   -0.633117
 H    6.644092   -2.420898    0.254797
 H    7.545514   -0.141676    0.138484
 H    7.674726   -0.138120   -2.221209
 H    6.388148    1.616022   -1.159233
 H    5.071328    0.516648   -1.520497
 H    5.925590    1.546650    1.229230
 H    4.761728    3.208468   -0.268468
 H    3.972633    2.906502    1.274026
 H    2.265996    3.027591   -0.336922
 H    2.374157    1.815881   -2.251696
 H    1.848112    1.325996    1.234757
 H    3.418985   -0.543643   -0.579814
 H    2.951820   -2.377054    0.928921
 H    2.067934   -1.340741    2.029573
 H    1.279205   -2.109312   -0.826803
 H    0.524476   -2.650531    0.666787
 H    1.271974    0.144722   -1.493471
 H   -0.312654    2.252663    0.033007
 H    0.207089    2.328924   -1.641439
 H   -2.264705    1.187442   -0.756520
 H   -1.555622    0.927420   -2.338138
 H   -0.699362   -1.178965   -1.785183
 H    0.380644    0.099281    2.193273
 H   -1.139076    0.633549    1.473967
 H   -0.936402   -1.045517    1.972635
 H    3.606582   -0.341586    3.270313
 H    4.905287    0.851166    3.217513
 H    3.269090    1.307320    2.740738
 H   -2.767550   -0.866380    0.416276
 H   -3.053193   -3.405620    0.072502
 H   -1.563762   -2.941713    0.882370
 H   -1.533297   -3.377390   -0.832810
 H   -3.203297   -2.082771   -2.333610
 H   -3.410146   -0.356396   -2.055236
 H   -5.549885   -1.620123   -1.911135
 H   -4.953580   -2.492190   -0.507711
 H   -6.888366   -1.568844    0.461600
 H   -7.555905   -0.036539    2.233509
 H   -6.383571    1.116396    1.594919
 H   -9.091205    1.045428   -1.115763
