74 
6gwr_ligand_dft.xyz
 C   -4.976055    0.597315   -1.236354
 C   -6.889627   -3.361331    0.055333
 C   -7.992105   -1.528854    1.130805
 C   -7.550438   -0.501621    0.076987
 C   -5.236290    1.864360   -0.716364
 C   -4.535980    3.914411    0.530732
 C   -2.936326    2.061299    0.038159
 C    5.068466   -2.871942    1.345613
 C    4.462436   -2.782236   -0.065098
 C    4.229090   -4.180440   -0.642403
 C    3.219887   -1.909984   -0.043458
 C    1.938525   -2.449452    0.046322
 C    0.807249   -1.641957    0.088622
 C    0.931784   -0.253110    0.043284
 C   -0.234288    0.692029    0.095892
 C   -2.667631    0.796188   -0.489317
 C   -3.689265    0.080342   -1.120236
 C   -6.085702   -0.231979   -1.862885
 C   -5.962916   -2.237890   -0.443587
 C   -8.883114   -3.771570    1.331644
 C   -4.221709    2.576704   -0.086613
 C    2.203379    0.308305   -0.016074
 C    3.340606   -0.501872   -0.066525
 C    4.627852    0.115684   -0.137190
 C    5.720422    0.637218   -0.189361
 C    7.010995    1.196780   -0.241389
 C    7.488097    2.480646   -0.493361
 C    9.225933    1.306822   -0.156755
 C   10.515579    0.750216    0.025357
 C    9.610298   -1.314688    0.429407
 C    8.331446   -0.878094    0.273536
 F   -3.460796    4.713794    0.583948
 F   -4.988168    3.774341    1.790791
 F   -5.491008    4.566886   -0.155396
 N   -1.403808    0.184509   -0.418706
 N   -6.763332   -1.150130   -0.964595
 N   -8.167534   -2.824590    0.507523
 N    8.833047    2.545786   -0.441885
 N   10.710872   -0.512156    0.307465
 N    8.146900    0.446296   -0.024191
 O   -0.121080    1.817509    0.549284
 H   -6.370396   -3.909077    0.866020
 H   -7.088519   -4.077421   -0.750756
 H   -8.943333   -1.210209    1.568284
 H   -7.259857   -1.567599    1.961983
 H   -6.993594    0.301553    0.590049
 H   -8.427553   -0.047479   -0.400663
 H   -6.226855    2.297718   -0.813420
 H   -2.149516    2.626872    0.515920
 H    4.370406   -3.364073    2.031958
 H    5.994328   -3.458983    1.329433
 H    5.294205   -1.879499    1.748528
 H    5.192103   -2.276703   -0.710817
 H    5.187674   -4.694289   -0.766317
 H    3.616143   -4.798871    0.023158
 H    3.738306   -4.136309   -1.619924
 H    1.812327   -3.526227    0.088278
 H   -0.167196   -2.110936    0.198224
 H   -3.475018   -0.902778   -1.537142
 H   -5.680388   -0.818958   -2.696119
 H   -6.846087    0.438595   -2.281556
 H   -5.327138   -2.625393   -1.247587
 H   -5.283677   -1.912823    0.366396
 H   -8.360098   -4.005919    2.279893
 H   -9.875999   -3.379112    1.573768
 H   -9.014279   -4.708407    0.779397
 H    2.302572    1.388322   -0.020793
 H    6.882998    3.350683   -0.709814
 H   11.379552    1.401947   -0.073588
 H    9.799004   -2.356014    0.666192
 H    7.444904   -1.492275    0.369759
 H   -1.333898   -0.704742   -0.889970
 H   -9.474592   -2.247712   -2.586716
 H   -9.004735   -2.224951   -2.008041
