34 
6gxe_ligand_dft.xyz
 C   -2.755889    0.928920    0.368110
 C   -3.294606   -1.346392   -0.241974
 C   -0.983079   -0.649528   -0.043266
 C    1.483153   -0.218633   -0.058749
 C    3.965513   -0.420895   -0.069498
 C    4.285623    0.882147   -0.464089
 C    5.599912    1.321420   -0.407167
 C    6.617729    0.472912    0.026681
 C    4.984654   -1.265341    0.367179
 O    1.434415    0.993092    0.032805
 N    0.360010   -1.037392   -0.113962
 C   -1.944419   -1.637341   -0.309252
 C   -3.696503   -0.055942    0.092683
 S   -5.425977    0.323282    0.172933
 N   -5.848063    0.510437   -1.442934
 O   -5.563564    1.602350    0.854320
 O   -6.142839   -0.862356    0.617501
 C   -1.398214    0.641780    0.302163
 N    2.652933   -0.945167   -0.136956
 C    6.304007   -0.828343    0.410784
 O    7.885297    0.969150    0.050925
 H   -3.086508    1.922802    0.650075
 H   -4.034273   -2.115424   -0.436874
 H    3.504265    1.550932   -0.797274
 H    5.853672    2.333109   -0.705149
 H    4.754049   -2.280667    0.682208
 H    0.505162   -2.003878   -0.364874
 H   -1.628457   -2.645295   -0.567497
 H   -5.872713    1.493330   -1.698026
 H   -6.747059    0.064513   -1.601368
 H   -0.662873    1.405060    0.510646
 H    2.592832   -1.942754    0.001187
 H    7.083086   -1.505702    0.753031
 H    8.486530    0.289823    0.377900
