35 
6gxw_ligand_dft.xyz
 C    3.370420   -0.379251    0.273480
 C    2.186544    0.153430   -0.055904
 C    1.853565    1.579889   -0.039418
 C    2.823365    2.580463   -0.140836
 C    2.481425    3.927379   -0.144949
 C    1.142848    4.290466   -0.051783
 C    0.149659    3.319469    0.043896
 C    0.500746    1.970125    0.049831
 C   -1.773181    1.252628    0.005662
 O   -0.394605    0.958425    0.160793
 C   -2.494765   -0.063335   -0.097457
 C   -2.445669   -0.814259   -1.279543
 C   -3.078965   -2.043190   -1.408375
 C   -3.786050   -2.556206   -0.328334
 C   -3.855011   -1.850215    0.864724
 C   -3.208671   -0.623393    0.967502
 N    4.811120   -2.276220    0.587420
 C    3.573172   -1.835941    0.184342
 O    2.760501   -2.647054   -0.252188
 O    4.921669   -3.658492    0.711921
Cl   -1.560317   -0.206167   -2.657945
Cl   -3.313221    0.210810    2.503203
 H    4.202364    0.228351    0.623055
 H    1.397206   -0.531211   -0.355003
 H    3.864776    2.292429   -0.250539
 H    3.252406    4.685576   -0.233292
 H    0.859550    5.338681   -0.056526
 H   -0.887659    3.623182    0.123906
 H   -1.930928    1.839898   -0.906729
 H   -2.137588    1.829273    0.860453
 H   -3.011367   -2.588287   -2.342598
 H   -4.283653   -3.516329   -0.416367
 H   -4.398003   -2.244144    1.715899
 H    5.254327   -1.825738    1.377849
 H    4.053750   -3.948463    0.357319
