34 
6gy1_ligand_dft.xyz
 C   -0.823410   -0.730094    0.545864
 C   -1.235380    0.635548    0.536763
 C   -2.410076    0.991644   -0.186075
 C   -2.208874    3.203326    0.341145
 C   -0.560153    1.691195    1.204150
 C    2.829978    0.369992    0.878682
 C    3.982995    0.523531   -1.251139
 C    2.099841   -0.983259   -0.992125
 C   -3.157995   -0.024435   -0.856958
 C    1.965774   -0.570861    0.329650
 C    3.833341    0.909878    0.083909
 C    3.104869   -0.429603   -1.774596
 C    5.074748    1.125540   -2.097957
 C   -2.713356   -1.323980   -0.787274
 C   -1.553832   -1.693461   -0.106450
 C   -1.042226    2.967521    1.102354
 F   -3.443034   -2.264489   -1.428522
 N   -2.878332    2.261424   -0.277296
 O    0.728673   -2.734805    1.181989
 O    0.774168   -0.679684    2.669131
 O   -4.266363    0.313125   -1.530225
 S    0.680376   -1.284708    1.342295
 H   -2.603195    4.213696    0.250145
 H    0.312099    1.477198    1.808597
 H    2.718980    0.659663    1.918481
 H    1.428752   -1.730784   -1.403712
 H    4.514314    1.643007    0.508291
 H    3.211846   -0.746290   -2.808268
 H    4.962406    2.213078   -2.166252
 H    6.060683    0.925493   -1.664591
 H    5.064496    0.721123   -3.113631
 H   -1.239971   -2.731442   -0.091751
 H   -0.547457    3.791608    1.605108
 H   -4.642626   -0.494563   -1.908190
