34 
6gy1_ligand_xtb.xyz
 C   -0.844881   -0.813316    0.492265
 C   -1.179268    0.548022    0.619144
 C   -2.331141    1.048388   -0.055843
 C   -1.986327    3.159247    0.725120
 C   -0.439340    1.466632    1.393570
 C    2.899581    0.125185    0.885105
 C    3.857383    0.652269   -1.264271
 C    1.923485   -0.780060   -1.117351
 C   -3.129879    0.159047   -0.833870
 C    1.939668   -0.643723    0.256868
 C    3.856372    0.770243    0.122662
 C    2.882958   -0.131393   -1.874136
 C    4.884730    1.372538   -2.080603
 C   -2.744193   -1.165853   -0.898952
 C   -1.612467   -1.661670   -0.255705
 C   -0.842612    2.773681    1.447007
 F   -3.510789   -2.006540   -1.644213
 N   -2.700782    2.336956    0.011504
 O    0.704373   -2.881659    0.916785
 O    0.786369   -1.073828    2.590940
 O   -4.210593    0.630126   -1.470371
 S    0.668533   -1.475661    1.213775
 H   -2.330444    4.185038    0.743888
 H    0.412083    1.112712    1.951970
 H    2.887976    0.198015    1.961675
 H    1.169873   -1.398594   -1.579681
 H    4.613104    1.370579    0.605828
 H    2.877575   -0.235550   -2.949038
 H    4.627607    2.429540   -2.150758
 H    5.865618    1.299657   -1.616293
 H    4.938535    0.967311   -3.087378
 H   -1.342553   -2.702651   -0.337661
 H   -0.304631    3.500212    2.035406
 H   -4.654287   -0.088050   -1.945846
