51 
6gzm_ligand_dft.xyz
 F   -1.708013  -16.082291   -6.826756
 C   -2.653902  -16.175260   -7.772050
 C   -2.769420  -15.168424   -8.712663
 N   -3.679851  -15.201530   -9.681482
 C   -3.512751  -17.275652   -7.840595
 N   -4.429558  -17.305223   -8.823869
 C   -4.473523  -16.278443   -9.675726
 N   -5.450789  -16.307278  -10.644746
 C   -6.217910  -17.497510  -10.892853
 C   -7.552724  -17.171162  -11.562671
 C   -8.412494  -18.437036  -11.656326
 C   -5.458270  -18.554253  -11.710319
 C   -6.278073  -19.844012  -11.800454
 C   -7.659942  -19.552571  -12.378690
 N   -8.492187  -20.827723  -12.276878
 C   -3.456566  -18.391094   -6.904519
 C   -2.741327  -18.472683   -5.683413
 N   -2.923253  -19.633899   -5.087569
 N   -3.742165  -20.325100   -5.907287
 C   -4.153964  -21.648575   -5.486579
 C   -4.099315  -19.627761   -7.010192
 C   -5.008893  -20.181847   -8.066794
 C   -6.467447  -19.830640   -7.828985
 C   -7.564838  -20.660117   -8.456463
 C   -7.337123  -20.696362   -6.965870
 H   -2.098207  -14.314006   -8.677069
 H   -5.330248  -15.626090  -11.380684
 H   -6.426881  -17.932525   -9.909737
 H   -7.386477  -16.754635  -12.565553
 H   -8.087845  -16.414580  -10.982974
 H   -9.358552  -18.222130  -12.167392
 H   -8.650995  -18.768977  -10.636742
 H   -4.500293  -18.769871  -11.229789
 H   -5.239751  -18.164628  -12.713302
 H   -6.391831  -20.250743  -10.786685
 H   -5.759622  -20.593827  -12.410189
 H   -7.593729  -19.339390  -13.450465
 H   -8.052931  -21.607245  -12.776873
 H   -8.582364  -21.102665  -11.291494
 H   -9.436879  -20.700328  -12.653865
 H   -2.110135  -17.729008   -5.223095
 H   -3.406221  -22.007222   -4.780426
 H   -5.128272  -21.614565   -4.991352
 H   -4.197612  -22.328241   -6.340450
 H   -4.899785  -21.272380   -8.122066
 H   -4.692280  -19.769724   -9.028154
 H   -6.646554  -18.760329   -7.766434
 H   -8.463289  -20.158906   -8.812541
 H   -7.278946  -21.551520   -9.014786
 H   -8.069394  -20.218343   -6.324155
 H   -6.910609  -21.607679   -6.557977
