81 
6h14_ligand_xtb.xyz
 O    9.864259   -2.864483    0.795130
 C    8.939273   -2.085849    0.709168
 N    9.043032   -0.729087    0.728286
 C   10.277346    0.004221    0.679252
 C   10.378803    0.765735   -0.643824
 C    9.126392    1.615581   -0.848918
 C    7.879317    0.732329   -0.831339
 C    7.797636   -0.030309    0.501901
 C    6.802605   -1.157526    0.491931
 C    7.488071   -2.366256    0.587758
 C    6.827497   -3.580991    0.564156
 C    5.447508   -3.558793    0.443306
 C    4.750151   -2.364361    0.364600
 C    5.416724   -1.138828    0.390076
 N    4.751958    0.091756    0.353538
 C    3.439931    0.333740    0.017461
 O    2.662571   -0.510382   -0.362226
 N    3.125656    1.668129    0.155459
 C    1.902524    2.294390   -0.060124
 C    0.791073    1.657907   -0.601037
 N    1.911668    3.575654    0.297159
 C    0.799485    4.275864    0.139119
 C   -0.366163    3.749197   -0.379940
 C   -0.369598    2.406052   -0.764912
 C   -1.568606    1.816479   -1.328393
 C   -1.783197    0.558777   -1.874555
 N   -2.742177    2.489501   -1.403573
 N   -3.623751    1.745721   -1.945325
 N   -3.077228    0.568746   -2.249275
 C   -3.872877   -0.493673   -2.800561
 C   -4.795635   -1.072807   -1.723222
 N   -5.808689   -0.089470   -1.386831
 C   -6.632713   -0.365190   -0.286810
 C   -6.536037    0.343790    0.901579
 C   -5.512302    1.440106    1.062626
 C   -5.714322    2.271092    2.325413
 C   -5.961813    1.358560    3.518511
 C   -7.284851    0.634333    3.313044
 C   -7.360539   -0.053401    1.978855
 N   -8.213782   -1.043567    1.909554
 C   -8.381709   -1.694312    0.745169
 C   -7.623102   -1.377909   -0.411608
 C   -7.919222   -2.040410   -1.618425
 C   -8.882676   -3.010493   -1.661279
 C   -9.589358   -3.364770   -0.502394
 C   -9.352134   -2.715174    0.676164
 H   10.313611    0.708774    1.519966
 H   11.088691   -0.718595    0.785561
 H   11.269283    1.394757   -0.637412
 H   10.470316    0.049624   -1.462636
 H    9.057833    2.362080   -0.053072
 H    9.185729    2.144568   -1.801581
 H    7.936272    0.003358   -1.642548
 H    6.982721    1.335869   -0.982719
 H    7.623625    0.682044    1.324079
 H    7.381366   -4.502858    0.638192
 H    4.895795   -4.486272    0.418582
 H    3.677091   -2.370579    0.276012
 H    5.331140    0.886821    0.578268
 H    3.807015    2.309469    0.539465
 H    0.844004    0.618303   -0.871062
 H    0.860573    5.310780    0.448291
 H   -1.258209    4.341475   -0.495924
 H   -1.142754   -0.284515   -2.019629
 H   -4.483105   -0.082245   -3.608424
 H   -3.207191   -1.264717   -3.191454
 H   -5.270171   -1.981536   -2.100172
 H   -4.185300   -1.354779   -0.846489
 H   -5.376665    0.828928   -1.310276
 H   -4.515574    0.982666    1.095453
 H   -5.532235    2.108711    0.197249
 H   -4.832838    2.894270    2.488705
 H   -6.573830    2.932362    2.195923
 H   -5.994290    1.936875    4.443677
 H   -5.148724    0.633603    3.602109
 H   -7.462465   -0.108813    4.091653
 H   -8.106188    1.355990    3.363569
 H   -7.407080   -1.739663   -2.519786
 H   -9.112791   -3.504434   -2.594355
 H  -10.338419   -4.141545   -0.555881
 H   -9.903581   -2.946154    1.574002
