17 
6h1u_ligand_dft.xyz
 N    0.773850    1.731586    0.064308
 C    0.664317    0.444260    0.839249
 C    1.366381   -0.668520    0.048409
 O    1.021199   -1.812774    0.085541
 C   -0.795623    0.092722    1.113912
 C   -1.604292    0.029042   -0.167166
 O   -2.697832   -0.686473   -0.046332
 O   -1.273221    0.611643   -1.189092
 O    2.408569   -0.175026   -0.630904
 H    0.089754    1.639929   -0.724854
 H    1.720610    1.850334   -0.312233
 H    0.531656    2.549165    0.630299
 H    1.208664    0.577960    1.778745
 H   -0.830879   -0.875363    1.618097
 H   -1.259219    0.822527    1.788311
 H   -3.190567   -0.671026   -0.886469
 H    2.858618   -0.898616   -1.102185
