44 
6h2z_ligand_dft.xyz
 C   -3.736406   -0.251941    0.031393
 C   -3.000195   -0.562146    1.169599
 C   -1.783971    0.076304    1.379305
 C   -1.297817    0.989509    0.444696
 C   -2.053281    1.290296   -0.691721
 C   -3.278723    0.672783   -0.902429
 C   -0.006307    1.699088    0.755375
 C    2.125846    2.585018    0.039572
 C    3.251016    1.629072    0.435229
 C    3.486704    0.575225   -0.660439
 C    2.162093   -0.125469   -1.008634
 C    1.061625    0.884358   -1.346230
 C    4.572859   -0.413911   -0.291886
 C    4.452437   -1.227908    0.838812
 C    5.448618   -2.138709    1.172421
 C    6.587518   -2.252746    0.378792
 C    6.719914   -1.449035   -0.748624
 C    5.718981   -0.538654   -1.078085
 S   -5.305583   -1.051381   -0.239240
 O   -5.526866   -1.132834   -1.674283
 O   -5.349925   -2.224580    0.619647
 O    0.173870    2.154306    1.876151
 N    0.897644    1.854744   -0.265089
 N   -6.408931    0.070224    0.336749
 H   -3.375022   -1.297775    1.872761
 H   -1.202594   -0.125833    2.272661
 H   -1.682310    2.017160   -1.408185
 H   -3.869929    0.893365   -1.784630
 H    2.405659    3.149647   -0.859659
 H    1.909844    3.290228    0.841446
 H    2.975277    1.142728    1.378581
 H    4.173614    2.191021    0.617873
 H    3.816062    1.112032   -1.562916
 H    1.829259   -0.734181   -0.157741
 H    2.308988   -0.807098   -1.854038
 H    0.120435    0.367329   -1.531037
 H    1.320863    1.435682   -2.259673
 H    3.570161   -1.150221    1.469620
 H    5.335851   -2.761272    2.055265
 H    7.366092   -2.963605    0.638866
 H    7.603823   -1.528757   -1.374816
 H    5.830371    0.086314   -1.961294
 H   -7.124543    0.239074   -0.363289
 H   -6.805664   -0.230453    1.221420
