45 
6h33_ligand_xtb.xyz
 C   -1.732168   -0.059638    1.208413
 C   -2.899766   -0.752817    0.937970
 C   -3.764158   -0.264498   -0.019881
 S   -5.289764   -1.128702   -0.331249
 O   -5.774373   -0.791049   -1.637986
 O   -5.143424   -2.507745    0.032886
 C   -3.495592    0.897000   -0.715267
 C   -2.324868    1.586524   -0.450918
 C   -1.438237    1.105804    0.508683
 C   -0.210601    1.895030    0.871519
 O   -0.167803    2.533227    1.907432
 N    0.795024    1.877967   -0.027328
 C    0.892161    0.982267   -1.155384
 C    1.931952   -0.105189   -0.875732
 C    2.039374    2.552242    0.276142
 C    3.115563    1.525393    0.628977
 C    3.294062    0.523973   -0.530690
 O    3.712929    1.217875   -1.693162
 C    4.274449   -0.579784   -0.153776
 C    4.115729   -1.307072    1.020911
 C    5.003707   -2.313814    1.352148
 C    6.062665   -2.615849    0.512930
 C    6.219178   -1.909976   -0.665719
 C    5.330043   -0.902144   -0.996461
 N   -6.294554   -0.395661    0.803470
 H   -1.047032   -0.415147    1.963208
 H   -3.150315   -1.668741    1.448397
 H   -4.200302    1.233936   -1.458445
 H   -2.095436    2.498557   -0.981535
 H    1.213086    1.558693   -2.028539
 H   -0.077672    0.529229   -1.360725
 H    2.052556   -0.728800   -1.761407
 H    1.602592   -0.731657   -0.046684
 H    1.860797    3.226300    1.115297
 H    2.343695    3.128743   -0.602944
 H    2.818614    1.000803    1.535587
 H    4.063476    2.032396    0.824626
 H    4.536721    1.676359   -1.493932
 H    3.292642   -1.096308    1.687232
 H    4.866077   -2.866603    2.269718
 H    6.755732   -3.401410    0.773905
 H    7.034007   -2.144218   -1.334864
 H    5.448471   -0.372223   -1.930067
 H   -7.046019    0.113488    0.368018
 H   -6.638344   -1.053482    1.483590
