45 
6h33_ligand_dft.xyz
 C   -1.919410   -0.118795    1.402036
 C   -3.138367   -0.718465    1.109237
 C   -3.867792   -0.262622    0.016704
 S   -5.439968   -1.012268   -0.358314
 O   -5.647855   -0.928078   -1.795157
 O   -5.502330   -2.275208    0.360855
 C   -3.401018    0.769767   -0.791518
 C   -2.173395    1.348677   -0.500146
 C   -1.424516    0.902293    0.592055
 C   -0.129378    1.557747    0.992137
 O    0.059973    1.850007    2.165275
 N    0.767627    1.855127   -0.002376
 C    0.942633    1.025414   -1.195652
 C    2.025008   -0.031617   -0.961561
 C    1.997604    2.533394    0.398547
 C    3.096020    1.517191    0.710666
 C    3.350792    0.591332   -0.495810
 O    3.789490    1.381351   -1.598848
 C    4.360661   -0.511076   -0.177343
 C    4.262903   -1.269092    0.993792
 C    5.170476   -2.287968    1.260964
 C    6.193371   -2.570185    0.359337
 C    6.291887   -1.831216   -0.814293
 C    5.379900   -0.813236   -1.081409
 N   -6.540199    0.047512    0.330303
 H   -1.342689   -0.435470    2.264613
 H   -3.520747   -1.534745    1.712268
 H   -3.987113    1.103169   -1.641130
 H   -1.795019    2.157806   -1.117588
 H    1.229481    1.677281   -2.026467
 H    0.002329    0.540537   -1.456267
 H    2.207768   -0.592300   -1.884198
 H    1.680244   -0.743274   -0.202203
 H    1.780141    3.146733    1.272174
 H    2.303980    3.180933   -0.429214
 H    2.788065    0.939948    1.587360
 H    4.028528    2.031078    0.978520
 H    4.592683    1.843994   -1.325387
 H    3.468397   -1.073632    1.708417
 H    5.077713   -2.862913    2.177666
 H    6.903905   -3.364048    0.569096
 H    7.078845   -2.048228   -1.530839
 H    5.447047   -0.252472   -2.007599
 H   -7.251548    0.293726   -0.350920
 H   -6.942985   -0.344151    1.175774
