46 
6h34_ligand_dft.xyz
 C   -5.327332    2.339211   15.709366
 N   -3.368496    5.970980   12.719818
 C   -6.126637    3.476289   15.752709
 O   -4.383448    0.334680   17.118429
 N   -0.732239    6.584962   11.881683
 C   -5.879252    4.508329   14.855486
 O   -5.611565    5.956328   12.341787
 S   -5.645504    1.003159   16.844438
 O   -6.491202    1.527026   17.905774
 C   -4.283773    2.216690   14.796988
 C   -4.034533    3.261818   13.918010
 C   -4.824360    4.414391   13.949039
 C   -4.642163    5.526446   12.950122
 C   -2.257411    5.895203   13.659965
 C   -0.968101    5.584347   12.913275
 C   -3.148130    6.944761   11.660704
 C   -1.843722    6.624170   10.940999
 C    0.543152    6.385508   11.209778
 C    1.722353    6.629385   12.125539
 C    2.809263    5.757370   12.148351
 C    3.909535    5.999537   12.967037
 C    3.900079    7.126751   13.771614
 F    4.952062    7.368267   14.569727
 C    2.830548    8.011501   13.781986
 C    1.745596    7.755295   12.953379
 N   -6.544857   -0.070083   15.924278
 H   -6.923685    3.549147   16.484569
 H   -6.504617    5.394749   14.849571
 H   -3.672118    1.320990   14.786599
 H   -3.227753    3.180491   13.195189
 H   -2.149320    6.865971   14.164697
 H   -2.451454    5.139791   14.420359
 H   -1.032393    4.565840   12.479452
 H   -0.130498    5.595798   13.616774
 H   -3.094655    7.955545   12.088642
 H   -3.996533    6.904715   10.977749
 H   -1.955949    5.662343   10.403387
 H   -1.646169    7.401901   10.195346
 H    0.620109    5.372532   10.768673
 H    0.584622    7.093186   10.371925
 H    2.801116    4.871129   11.518785
 H    4.759739    5.326939   12.992670
 H    2.859662    8.880271   14.430556
 H    0.889857    8.423729   12.953076
 H   -6.148432   -1.001709   15.999879
 H   -7.523393   -0.050679   16.193820
