44 
6h36_ligand_dft.xyz
 C   -3.736957   -0.251932    0.031272
 C   -3.001031   -0.561447    1.169893
 C   -1.784812    0.077011    1.379480
 C   -1.298327    0.989541    0.444362
 C   -2.053454    1.289607   -0.692446
 C   -3.278924    0.672059   -0.903049
 C   -0.006905    1.699380    0.754863
 C    2.125740    2.584239    0.038945
 C    3.251200    1.628695    0.434772
 C    3.486916    0.574497   -0.660563
 C    2.162404   -0.126750   -1.008009
 C    1.061526    0.882586   -1.345817
 C    4.573592   -0.414013   -0.291844
 C    4.453683   -1.227869    0.838992
 C    5.450488   -2.137916    1.172828
 C    6.589511   -2.251307    0.379292
 C    6.721418   -1.447693   -0.748265
 C    5.719869   -0.538081   -1.077946
 S   -5.306207   -1.051369   -0.238980
 O   -5.527448   -1.133544   -1.673995
 O   -5.350750   -2.224105    0.620533
 O    0.172602    2.156098    1.875135
 N    0.897668    1.853577   -0.265245
 N   -6.409486    0.070649    0.336505
 H   -3.376070   -1.296589    1.873443
 H   -1.203687   -0.124599    2.273119
 H   -1.682209    2.015861   -1.409385
 H   -3.869811    0.892057   -1.785615
 H    2.405349    3.148572   -0.860545
 H    1.909651    3.289698    0.840571
 H    2.975771    1.142529    1.378314
 H    4.173675    2.190955    0.617048
 H    3.815820    1.111017   -1.563366
 H    1.829974   -0.735091   -0.156708
 H    2.309216   -0.808729   -1.853142
 H    0.120421    0.365124   -1.529823
 H    1.320233    1.433350   -2.259751
 H    3.571345   -1.150650    1.469775
 H    5.338097   -2.760388    2.055784
 H    7.368562   -2.961576    0.639542
 H    7.605424   -1.526913   -1.374382
 H    5.830878    0.086807   -1.961258
 H   -7.124860    0.239554   -0.363768
 H   -6.806580   -0.229924    1.221055
