45 
6h37_ligand_dft.xyz
 C    1.920299    0.115124    1.406587
 C    3.139808    0.715374    1.116142
 C    3.868778    0.263538    0.021921
 S    5.439527    1.016215   -0.352789
 O    5.623388    0.988791   -1.795075
 O    5.524412    2.249790    0.413766
 C    3.401617   -0.765914   -0.790199
 C    2.174082   -1.345466   -0.500977
 C    1.425100   -0.902572    0.592891
 C    0.129828   -1.559138    0.990814
 O   -0.059758   -1.854718    2.163090
 N   -0.766959   -1.853739   -0.004674
 C   -0.941377   -1.021450   -1.196228
 C   -2.024565    0.034453   -0.960781
 C   -1.996914   -2.533399    0.393947
 C   -3.096068   -1.518371    0.707297
 C   -3.350389   -0.590251   -0.497509
 O   -3.787579   -1.378306   -1.602551
 C   -4.361250    0.510835   -0.177628
 C   -4.264220    1.267182    0.994649
 C   -5.172680    2.284879    1.263293
 C   -6.195776    2.567540    0.362027
 C   -6.293600    1.830208   -0.812689
 C   -5.380710    0.813422   -1.081283
 N    6.540817   -0.083560    0.268468
 H    1.343893    0.428548    2.270554
 H    3.523630    1.528329    1.722682
 H    3.987930   -1.097745   -1.640310
 H    1.795786   -2.152724   -1.120906
 H   -1.227102   -1.671602   -2.028775
 H   -0.001155   -0.535379   -1.454899
 H   -2.206820    0.596988   -1.882386
 H   -1.680854    0.744666   -0.199607
 H   -1.779789   -3.148411    1.266474
 H   -2.302375   -3.179396   -0.435364
 H   -2.789110   -0.942663    1.585356
 H   -4.028494   -2.033283    0.973465
 H   -4.590139   -1.842825   -1.330418
 H   -3.469580    1.071313    1.709027
 H   -5.080456    2.858551    2.180846
 H   -6.906992    3.360494    0.572907
 H   -7.080724    2.047581   -1.528942
 H   -5.447318    0.254002   -2.008319
 H    7.259068   -0.273939   -0.423541
 H    6.935672    0.248738    1.142750
