63 
6h3k_ligand_xtb.xyz
 C    3.538602    0.066971   -0.479443
 C    3.394722    2.504866   -0.768429
 C    3.548815   -2.334788   -0.076562
 C    2.765508   -3.497606    0.104475
 C    4.955925   -2.263275   -0.092140
 C    5.550718   -1.038878   -0.272724
 C    3.088164    3.333578    0.498724
 C    1.577337    3.533646    0.646468
 N    4.853839    0.096046   -0.465216
 C   -3.815209   -0.814971    0.047649
 C   -3.510549    0.551671    0.039697
 C   -2.180726    0.951205    0.080247
 C   -1.171316    0.005232    0.090421
 C    2.805237   -1.149213   -0.256754
 N    1.463375   -1.120002   -0.208943
 N    1.464443   -3.471617    0.136761
 C   -1.459627   -1.351341    0.067214
 C    0.852054   -2.269075   -0.001487
 C   -4.264023   -5.120690    0.220065
 C   -4.339930   -3.603791    0.146904
 O   -3.013432   -3.112965    0.079475
 C   -2.814077   -1.762524    0.065240
 C   -4.630222    1.472931    0.032655
 N   -5.811284    1.184132    0.525346
 N   -6.616695    2.236744    0.350226
 C   -5.932477    3.159611   -0.253208
 N   -4.656995    2.744332   -0.487966
 C   -3.646236    3.475944   -1.195526
 N   -0.501993   -2.346007    0.079230
 C    7.039504   -0.871925   -0.258117
 N    2.833737    1.184753   -0.738616
 C    3.637365    2.611266    1.728735
 C    3.770796    4.694441    0.351112
 H    4.473718    2.378868   -0.871959
 H    3.009853    3.034568   -1.647112
 H    3.232231   -4.468526    0.223600
 H    5.540270   -3.159941    0.045694
 H    1.074129    2.588166    0.836192
 H    1.367862    4.196069    1.483508
 H    1.158811    3.978701   -0.254555
 H   -4.856932   -1.088194    0.046541
 H   -1.914992    1.994131    0.143619
 H   -0.138244    0.304170    0.128806
 H   -3.756658   -5.511613   -0.657978
 H   -3.710731   -5.424514    1.104700
 H   -5.266039   -5.536671    0.267107
 H   -4.843164   -3.201427    1.035578
 H   -4.899807   -3.292557   -0.745047
 H   -6.303333    4.122592   -0.539383
 H   -2.997312    4.018085   -0.502618
 H   -3.042916    2.790808   -1.791460
 H   -4.128281    4.196943   -1.856176
 H   -0.862279   -3.287571    0.169368
 H    7.356877   -0.503044    0.716902
 H    7.539130   -1.816909   -0.452482
 H    7.334911   -0.138424   -1.003642
 H    1.831717    1.078331   -0.694503
 H    3.463963    3.201851    2.625545
 H    3.153787    1.645492    1.856875
 H    4.706121    2.442690    1.623507
 H    3.391528    5.222853   -0.520993
 H    3.587002    5.308358    1.229738
 H    4.845110    4.572065    0.237770
