26 
6h3q_ligand_dft.xyz
 C    2.281529   -1.058390   -0.228451
 C    1.199017    1.500523    0.046946
 C    2.573688    1.328870    0.083483
 N    5.186283   -0.279555    1.657030
 C   -2.997743    1.784575   -0.070277
 C    0.351772    0.398538   -0.124402
 O    5.490635    1.049060   -0.453717
 S    4.868776   -0.178693    0.015110
 O    5.162942   -1.475783   -0.573761
 C    3.103168    0.047787   -0.047411
 C    0.905669   -0.876772   -0.264929
 C   -1.101893    0.623304   -0.157843
Se   -2.353276   -0.751999   -0.398156
 N   -1.633354    1.799531   -0.015550
 C   -3.623944    0.591824   -0.268787
 C   -5.087015    0.365377   -0.376204
Cl   -5.731819   -0.648296    0.979332
 H    2.717610   -2.043246   -0.353839
 H    0.760103    2.486923    0.144595
 H    3.235323    2.180744    0.197639
 H    5.855065    0.434250    1.928163
 H    5.501274   -1.211852    1.905507
 H   -3.529662    2.723593    0.042951
 H    0.265970   -1.743647   -0.408937
 H   -5.360245   -0.156380   -1.294699
 H   -5.618165    1.317844   -0.337757
