57 
6h4o_ligand_dft.xyz
 N  -12.571203  -49.873416  -51.270144
 C   -7.503696  -46.765146  -42.398528
 N  -13.602104  -50.662023  -53.187646
 C   -5.365804  -47.284957  -43.346345
 C   -4.734564  -46.803960  -42.202697
 C   -5.486720  -46.301072  -41.148910
 N  -13.457140  -47.233901  -51.917501
 O  -15.615968  -46.551114  -55.325813
 C  -14.974670  -46.816978  -54.330012
 C  -14.493091  -48.152841  -53.937938
 C  -14.792579  -49.264024  -54.727060
 C  -14.331534  -50.492309  -54.298717
 N  -14.612920  -45.832441  -53.411060
 C  -13.893183  -46.080772  -52.273219
 C  -13.750322  -48.299673  -52.756590
 C  -13.318830  -49.615761  -52.438840
 C  -11.593970  -49.107733  -50.694224
 N  -12.725444  -51.059561  -50.634662
 C  -11.849246  -51.020690  -49.650699
 C  -11.091864  -49.819971  -49.635964
 C  -10.047493  -49.400377  -48.649195
 C  -10.687576  -48.816874  -47.369355
 N   -9.780398  -48.394592  -46.317747
 C   -9.028393  -49.476922  -45.704500
 C   -8.351007  -48.996096  -44.423182
 C   -8.922309  -47.279105  -46.680094
 C   -8.239923  -46.705989  -45.439898
 C   -7.436859  -47.794476  -44.710311
 C   -6.756463  -47.273486  -43.462951
 C   -6.875533  -46.284065  -41.254735
 C   -7.709566  -45.799877  -40.100221
 F   -8.862627  -45.244209  -40.511564
 F   -8.037153  -46.808231  -39.270907
 F   -7.062119  -44.881831  -39.362343
 H   -8.587407  -46.737006  -42.460589
 H   -4.767050  -47.675531  -44.165515
 H   -3.651200  -46.819470  -42.134672
 H   -5.002764  -45.920007  -40.256362
 H  -15.369622  -49.143263  -55.636458
 H  -14.537288  -51.395470  -54.866522
 H  -14.924377  -44.893322  -53.624223
 H  -13.696464  -45.214376  -51.646993
 H  -11.346515  -48.131574  -51.077370
 H  -11.778391  -51.859502  -48.969523
 H   -9.419772  -50.260737  -48.388397
 H   -9.385707  -48.654608  -49.104310
 H  -11.305949  -47.955772  -47.652775
 H  -11.371086  -49.563991  -46.946370
 H   -9.721430  -50.294616  -45.476047
 H   -8.254497  -49.887314  -46.384456
 H   -9.125882  -48.708037  -43.702819
 H   -7.770600  -49.811427  -43.976677
 H   -8.142704  -47.570939  -47.412947
 H   -9.538899  -46.508358  -47.156905
 H   -7.579612  -45.878362  -45.723193
 H   -9.008819  -46.302153  -44.770506
 H   -6.651696  -48.138692  -45.399803
