26 
6h4p_ligand_xtb.xyz
 N   -2.535828    1.439952   -0.100675
 C   -3.691854    0.832519   -0.083211
 C   -0.265719    0.826575    0.002116
 C    1.211089    2.582621    0.039995
 O    4.408568   -0.244224    0.020220
 C    3.237705   -0.545369    0.002762
 C    2.101872    0.382256    0.012837
 C    2.319360    1.760643    0.037592
 N   -0.028941    2.124831    0.023047
 N    2.848557   -1.881653   -0.030862
 C    1.547654   -2.270992   -0.048969
 N    0.547918   -1.477709   -0.036532
 C    0.789560   -0.126570   -0.005505
 N   -1.603744    0.477507   -0.015206
 C   -2.183900   -0.758674    0.059188
 C   -3.539509   -0.573894    0.019357
 C   -4.619059   -1.595185    0.079247
 H   -4.602513    1.394988   -0.145006
 H    1.302334    3.659587    0.057334
 H    3.328671    2.138478    0.051889
 H    3.595716   -2.565659   -0.042043
 H    1.356359   -3.335633   -0.075346
 H   -1.593396   -1.646469    0.131625
 H   -5.200950   -1.477705    0.993302
 H   -5.297394   -1.481504   -0.765159
 H   -4.196291   -2.596384    0.060790
