42 
6h4q_ligand_xtb.xyz
 C    3.830977    2.376069    0.056693
 N    4.388516   -2.350944    0.000677
 C    1.999331    1.003440   -0.019763
 N    2.242768   -1.426499   -0.049609
 C    2.794633   -0.167819   -0.007415
 N    0.604553    0.976599   -0.073053
 C    4.188720    0.026515    0.040560
 N   -0.063241    2.114956   -0.261242
 C    5.081336   -1.140163    0.051002
 C    3.038284   -2.428304   -0.046987
 C   -1.333477    1.808242   -0.247034
 C   -1.517724    0.421762   -0.039461
 C   -0.240249   -0.075796    0.066405
 C   -2.815488   -0.316567    0.055416
 C   -3.647851    0.221438    1.227111
 O    6.285232   -1.116885    0.096865
 C    4.716747    1.316603    0.074188
 N    2.519488    2.211845    0.011755
 C   -3.620189   -0.160228   -1.241684
 C   -4.991026   -0.811839   -1.123153
 N   -5.746234   -0.214879    0.008507
 C   -7.132020   -0.704009    0.069623
 C   -5.016808   -0.441635    1.282623
 H    4.166842    3.402436    0.080687
 H    4.957855   -3.189459    0.001849
 H    2.606146   -3.420014   -0.084640
 H   -2.067511    2.577312   -0.385859
 H    0.126575   -1.068400    0.220164
 H   -2.603155   -1.377306    0.221547
 H   -3.758828    1.303353    1.128172
 H   -3.124747    0.034617    2.164596
 H    5.785567    1.450631    0.111400
 H   -3.078673   -0.622137   -2.066830
 H   -3.728068    0.900455   -1.477973
 H   -4.893008   -1.883034   -0.934686
 H   -5.563050   -0.670545   -2.042335
 H   -5.762250    0.800308   -0.147851
 H   -7.649873   -0.493665   -0.864490
 H   -7.134638   -1.779710    0.237561
 H   -7.668645   -0.220780    0.884210
 H   -5.607520   -0.033219    2.104981
 H   -4.916996   -1.519555    1.426594
