42 
6h4u_ligand_xtb.xyz
 C    4.006532    2.126447    0.377442
 N    3.760333   -2.604392   -0.090410
 C    1.988385    1.112064    0.000308
 N    1.815403   -1.314595   -0.223275
 C    2.566617   -0.180355   -0.015273
 N    0.626627    1.336455   -0.203968
 C    3.960336   -0.241618    0.176520
 N    0.195655    2.570487   -0.465404
 C    4.637340   -1.544785    0.151421
 C    2.428355   -2.437070   -0.258386
 C   -1.101115    2.490131   -0.599512
 C   -1.549448    1.161432   -0.416629
 C   -0.400663    0.449775   -0.160204
 C   -2.972340    0.700981   -0.450147
 C   -3.107107   -0.745546   -0.931512
 O    5.814779   -1.741684    0.313126
 C    4.692858    0.927677    0.377949
 N    2.699417    2.202586    0.192624
 C   -3.602093    0.815523    0.946173
 C   -5.049222    0.344074    0.926671
 N   -5.125312   -1.063371    0.455138
 C   -6.492899   -1.598370    0.541114
 C   -4.566668   -1.180139   -0.917362
 H    4.506990    3.071523    0.529285
 H    4.178914   -3.526356   -0.133854
 H    1.842813   -3.330592   -0.433892
 H   -1.681461    3.361675   -0.826761
 H   -0.216289   -0.586608    0.026975
 H   -3.522146    1.357254   -1.133617
 H   -2.514751   -1.403851   -0.293270
 H   -2.718435   -0.836010   -1.945244
 H    5.759047    0.866034    0.523456
 H   -3.570888    1.852369    1.279752
 H   -3.019876    0.226090    1.658559
 H   -5.642233    0.959657    0.247036
 H   -5.488246    0.404605    1.924463
 H   -4.516333   -1.615012    1.071290
 H   -6.861745   -1.533123    1.563226
 H   -7.152835   -1.023648   -0.106688
 H   -6.513425   -2.640338    0.226732
 H   -4.664193   -2.215908   -1.248618
 H   -5.161209   -0.545809   -1.578222
