57 
6h4w_ligand_dft.xyz
 C   78.574942  -54.412926   53.597001
 C   79.999516  -55.640285   52.286197
 C   79.952707  -56.746925   53.176699
 C   79.134042  -56.606350   54.307598
 C   79.037958  -57.713126   55.275066
 C   80.609233  -58.837899   53.789353
 C   81.957821  -54.875344   49.549692
 C   81.800616  -56.253757   49.246613
 C   81.044149  -56.729424   50.285341
 C   82.299015  -56.998135   48.045546
 C   81.463517  -56.679803   46.798571
 C   81.886634  -58.687377   45.513747
 C   82.593081  -59.252015   44.282970
Cl   86.969919  -58.578613   41.037734
 C   85.284239  -59.032528   40.889971
 C   84.401804  -58.685291   41.901307
 C   84.864719  -59.731021   39.763689
 C   83.523542  -60.076859   39.675208
 C   82.627479  -59.733682   40.685490
 C   83.046571  -59.032009   41.818027
 C   82.094801  -58.632893   42.954826
 C   80.661186  -59.106890   42.674413
 C   82.108072  -57.093590   43.119077
 C   81.419232  -56.620878   44.397010
 N   82.018067  -57.237411   45.574267
 N   81.351981  -54.526424   50.666802
 N   80.795493  -55.675105   51.121810
 N   79.331562  -54.524385   52.496870
 N   80.700733  -57.889444   52.930137
 N   79.830258  -58.802597   54.914634
 O   78.363235  -57.725098   56.284160
 C   78.430586  -55.421514   54.527877
 H   78.057657  -53.464876   53.715612
 H   81.180566  -59.751345   53.645513
 H   82.508254  -54.129937   48.989408
 H   80.680960  -57.719323   50.506768
 H   82.281483  -58.072165   48.258728
 H   83.341294  -56.733507   47.833535
 H   81.430612  -55.590217   46.682557
 H   80.417997  -57.007784   46.965378
 H   80.820603  -58.992312   45.532746
 H   82.350826  -59.124986   46.402419
 H   82.467843  -60.341167   44.251417
 H   83.663390  -59.055411   44.401497
 H   84.783871  -58.139247   42.757514
 H   85.570245  -59.993199   38.983301
 H   83.168538  -60.622469   38.806059
 H   81.590049  -60.024822   40.572798
 H   79.986375  -58.823663   43.485262
 H   80.266449  -58.660619   41.755193
 H   80.613370  -60.197233   42.579939
 H   83.142405  -56.736768   43.153204
 H   81.634525  -56.625952   42.247390
 H   81.539461  -55.534912   44.479040
 H   80.328863  -56.813780   44.349657
 H   79.810798  -59.591782   55.547994
 H   77.802850  -55.318927   55.405370
