39 
6h50_ligand_xtb.xyz
 C    3.414232    2.413142   -0.021494
 N    4.051802   -2.304202    0.006026
 C    1.603756    1.010075    0.010923
 N    1.889908   -1.417469    0.030362
 C    2.418955   -0.148218    0.010003
 N    0.208448    0.962328    0.025411
 C    3.810268    0.070079   -0.011329
 N   -0.484808    2.100947    0.055403
 C    4.723443   -1.080641   -0.016716
 C    2.702859   -2.405276    0.028677
 C   -1.748624    1.768370    0.051655
 C   -1.902082    0.363098    0.017738
 C   -0.613626   -0.116500    0.002020
 C   -3.179230   -0.416100   -0.004011
 C   -4.015065   -0.114521    1.247291
 O    5.927297   -1.035363   -0.038212
 C    4.317656    1.368598   -0.027767
 N    2.105244    2.226738   -0.003609
 C   -3.997556   -0.065774   -1.254571
 C   -5.331041   -0.797496   -1.257503
 N   -6.087246   -0.439951   -0.026004
 C   -5.349157   -0.843740    1.202524
 H    3.733324    3.445089   -0.032445
 H    4.635864   -3.132577    0.004270
 H    2.287271   -3.404520    0.046172
 H   -2.499723    2.533148    0.073483
 H   -0.224604   -1.112223   -0.021736
 H   -2.933482   -1.482361   -0.023286
 H   -4.177415    0.962008    1.327511
 H   -3.468178   -0.426534    2.136378
 H    5.384688    1.519754   -0.044705
 H   -3.437356   -0.341380   -2.147374
 H   -4.160526    1.012938   -1.293923
 H   -5.175781   -1.878145   -1.259807
 H   -5.923716   -0.525658   -2.132707
 H   -7.017893   -0.869916   -0.040959
 H   -6.202858    0.581534   -0.007920
 H   -5.954773   -0.603652    2.078077
 H   -5.195378   -1.923918    1.166916
