51 
6h5x_ligand_dft.xyz
 C    3.443361    0.332350   -1.252105
 C    4.418539   -1.042860    1.525417
 C   -1.659679    0.876265   -0.290963
 C   -3.028112    0.405287    0.191523
 C   -3.973118    0.222594   -1.009789
 C   -5.294835   -0.403493   -0.642280
 C   -6.438380    0.374622   -0.458065
 C   -7.647192   -0.211736   -0.095051
 C   -7.728508   -1.588548    0.090300
 C   -6.594114   -2.375738   -0.090883
 C   -5.389015   -1.784907   -0.455509
 C    1.606209   -0.745717    0.021083
 C    0.743882    0.492893   -0.249844
 C    1.248532    1.695842    0.588743
 C    2.319090    2.560039   -0.076997
 C    4.571622   -0.183094   -2.152987
 C    5.619889   -0.990947   -1.394597
 C    4.931456   -2.152680   -0.683293
 C    3.829479   -1.656225    0.247480
 N    2.903561   -0.736505   -0.419301
 N   -0.605969    0.132909    0.110450
 O    3.485339   -0.443814    2.281127
 O    5.573101   -1.136242    1.863930
 O    1.150146   -1.668839    0.680647
 O   -1.539554    1.867647   -1.001674
 S    3.970199    1.815100   -0.300785
 S   -3.637029    1.602824    1.439697
 H    2.642558    0.674138   -1.909461
 H   -2.943061   -0.540630    0.736280
 H   -3.455665   -0.415123   -1.738795
 H   -4.112260    1.195666   -1.490371
 H   -6.377437    1.450464   -0.596748
 H   -8.527478    0.409065    0.043530
 H   -8.671623   -2.047435    0.371740
 H   -6.649877   -3.451569    0.047589
 H   -4.507431   -2.405652   -0.603814
 H    0.735624    0.772735   -1.309032
 H    1.588416    1.340058    1.566391
 H    0.379059    2.340776    0.747033
 H    2.494205    3.450671    0.533035
 H    1.957746    2.906346   -1.052479
 H    5.016098    0.671054   -2.670593
 H    4.111148   -0.826809   -2.913585
 H    6.373869   -1.366161   -2.093619
 H    6.142897   -0.364179   -0.663205
 H    4.478601   -2.823709   -1.422654
 H    5.645763   -2.732682   -0.095090
 H    3.214131   -2.495547    0.584263
 H   -0.702366   -0.694799    0.684365
 H    3.949514   -0.083653    3.053554
 H   -3.423202    2.681659    0.665670
