46 
6h7l_ligand_xtb.xyz
 O    2.423611    2.370780    0.895614
 C    1.141275    2.184760    0.510302
 C    0.894422    1.842992   -0.816882
 C   -0.399527    1.641755   -1.251509
 C    0.069598    2.321101    1.386521
 C   -1.224505    2.138385    0.934387
 C   -1.481297    1.792429   -0.389484
 C   -2.892302    1.648982   -0.897407
 C   -3.748187    0.623983   -0.144597
 C   -3.217723   -0.811431   -0.164022
 C   -2.956019   -1.346352   -1.562675
 N   -1.956279   -0.894788    0.642495
 C   -1.684764   -2.207805    1.271845
 C   -0.322941   -2.183337    1.958568
 C    0.787433   -1.653350    1.081348
 C    0.743327   -1.767523   -0.306581
 C    1.767162   -1.263918   -1.093150
 O    1.671652   -1.356262   -2.436767
 C    2.874463   -0.651788   -0.484748
 O    3.835638   -0.170951   -1.318923
 C    2.929484   -0.564456    0.893570
 C    1.885404   -1.044431    1.667531
 H    2.463799    2.694340    1.804250
 H    1.724874    1.772305   -1.498782
 H   -0.570831    1.398048   -2.289529
 H    0.247565    2.607166    2.413833
 H   -2.045206    2.311485    1.617223
 H   -3.391435    2.616668   -0.806535
 H   -2.871989    1.402558   -1.958397
 H   -4.741862    0.615279   -0.594001
 H   -3.876158    0.938351    0.893979
 H   -3.955162   -1.448301    0.336961
 H   -2.734696   -2.410077   -1.545353
 H   -2.127634   -0.824976   -2.034787
 H   -3.840193   -1.208593   -2.177902
 H   -1.965457   -0.159038    1.361588
 H   -1.139796   -0.683146    0.033536
 H   -1.707045   -2.974032    0.496911
 H   -2.471835   -2.427187    1.995350
 H   -0.082176   -3.202056    2.271360
 H   -0.374764   -1.577433    2.865920
 H   -0.036679   -2.303609   -0.824716
 H    2.486538   -1.010188   -2.828493
 H    4.539001    0.251390   -0.813044
 H    3.786143   -0.106152    1.364157
 H    1.939926   -0.957802    2.741514
