39 
6h7m_ligand_dft.xyz
 O    1.253750    2.507654    1.229775
 C    2.472233    1.982559    0.727457
 C    2.219299    0.566135    0.281688
 C    3.052695   -0.054367   -0.659040
 O    4.113443    0.661422   -1.094221
 C    2.768665   -1.346958   -1.102987
 C    1.647469   -2.019563   -0.631182
 C    1.137046   -0.145301    0.779354
 C    0.814611   -1.424710    0.313904
 C   -0.488632   -2.077911    0.727155
 O   -0.887743   -1.758752    2.047828
 C   -1.655739   -1.567303   -0.132049
 N   -1.836010   -0.116930    0.174726
 C   -2.901628    0.703917   -0.543009
 C   -2.554488    0.735731   -2.029355
 C   -2.801506    2.099390    0.077750
 C   -4.267143    0.074284   -0.284768
 H    1.445412    3.357261    1.642754
 H    3.258148    1.995672    1.496432
 H    2.840702    2.569340   -0.123905
 H    4.624347    0.154732   -1.738066
 H    3.421141   -1.825714   -1.828643
 H    1.430424   -3.016634   -1.006257
 H    0.547116    0.328455    1.559120
 H   -0.430427   -3.164682    0.579194
 H   -0.168798   -1.970947    2.657129
 H   -1.444915   -1.683092   -1.194919
 H   -2.580953   -2.081532    0.130757
 H   -0.926378    0.342322    0.021404
 H   -1.983051   -0.066137    1.190778
 H   -3.251872    1.404088   -2.540655
 H   -1.542654    1.120853   -2.198609
 H   -2.644684   -0.248218   -2.498507
 H   -1.795358    2.520511   -0.031970
 H   -3.503897    2.770984   -0.421733
 H   -3.058260    2.082935    1.142882
 H   -5.040541    0.732133   -0.689499
 H   -4.461411   -0.043947    0.786954
 H   -4.374927   -0.897880   -0.774279
