18 
6h7u_ligand_dft.xyz
 C   21.675818    5.235674   33.059592
 C   19.314653    4.344818   32.853576
 O   19.158490    5.058623   31.885972
 C   18.160387    3.523177   33.426761
 N   16.921956    3.573457   32.680238
 C   20.655582    4.210920   33.553266
 C   23.044104    5.046090   33.663834
 O   23.699612    5.898608   34.210571
 O   23.491572    3.779680   33.514805
 H   21.352049    6.253073   33.284274
 H   21.764121    5.154808   31.970756
 H   17.981588    3.871566   34.453675
 H   18.488960    2.480176   33.527724
 H   16.652233    4.546339   32.558725
 H   17.088449    3.228837   31.738336
 H   21.023387    3.191205   33.381203
 H   20.503145    4.293090   34.637379
 H   24.374893    3.756858   33.916312
