47 
6h9b_ligand_dft.xyz
 C    1.304220   -0.852912   -0.699714
 C    1.246098    0.726939    1.644234
 C    0.087971   -0.562049   -0.083019
 C    2.455715    0.408072    1.024985
 C   -1.190111   -1.090553   -0.626610
 C    3.881282   -0.472158   -0.538033
 C    5.929322   -0.986395   -1.674133
 C    4.617235    0.247963    0.427732
 C   -5.916455    0.059498    0.592991
 N    3.746048    0.759185    1.376544
 C   -3.607340   -0.554871    0.048998
 C   -5.015710   -2.052216    1.336713
 N   -4.573766    1.597583   -0.624125
 C   -4.675718    0.382379   -0.013095
 C   -6.084685   -1.131613    1.249684
 C    0.080155    0.239144    1.077206
 C    2.489898   -0.371540   -0.151565
 C   -3.316811    3.270669   -1.830220
 C    4.548061   -1.094729   -1.593042
 C    6.005096    0.367076    0.348473
 C    6.645577   -0.260772   -0.711623
 C   -1.283736   -2.306569   -1.178174
 C    4.119770    1.596359    2.488497
 C   -3.807321   -1.772033    0.751221
 C   -3.422794    1.923392   -1.166670
 C   -2.297801    1.058446   -1.153894
 C   -2.375956   -0.184965   -0.578686
 H    1.321311   -1.432180   -1.618695
 H    1.205373    1.343459    2.536536
 H    6.462047   -1.463684   -2.490558
 H   -6.712892    0.792758    0.519439
 H   -5.151899   -2.985429    1.874985
 H   -7.037648   -1.368546    1.713614
 H   -0.871340    0.477305    1.543589
 H   -3.075326    3.164293   -2.894024
 H   -4.263682    3.804614   -1.733556
 H   -2.520253    3.869329   -1.373750
 H    3.992437   -1.653152   -2.341132
 H    6.571209    0.934423    1.080552
 H    7.725420   -0.183473   -0.797125
 H   -2.214768   -2.660329   -1.610459
 H   -0.432716   -2.980418   -1.212354
 H    4.174493    2.654589    2.205763
 H    3.390432    1.481570    3.293633
 H    5.092843    1.281293    2.874145
 H   -2.986148   -2.476396    0.827095
 H   -1.370651    1.383216   -1.618182
