72 
6ha4_ligand_xtb.xyz
 O    6.858116    0.124803   -0.572345
 S    5.507543    0.069609   -1.477120
 O    5.476701   -1.178557   -2.161380
 O    5.477901    1.292268   -2.217445
 C    4.313072    0.076599   -0.169672
 C    3.879167    1.277436    0.345793
 C    3.021884    1.283052    1.434437
 C    2.497937    2.584438    1.996611
 C    3.904728   -1.129087    0.351637
 C    3.048557   -1.160299    1.443298
 C    2.622429    0.057756    1.988039
 O    1.826228    0.109253    3.091592
 C    2.588725   -2.492473    1.994158
 C    1.281413   -2.903963    1.355901
 C    1.272709   -3.580553    0.146319
 C    0.070096   -3.919150   -0.432341
 S    0.063423   -4.874006   -1.924750
 O    1.265624   -4.675565   -2.672352
 O    0.178462   -6.356820   -1.269456
 O   -1.201031   -4.760730   -2.569338
 C   -1.134167   -3.599146    0.150558
 C    0.057683   -2.582659    1.960493
 O    0.109686   -1.941235    3.164547
 C   -1.162093   -2.924437    1.363446
 C   -2.496692   -2.575784    1.986538
 C   -3.019405   -1.271688    1.429040
 C   -3.876166   -1.262003    0.339938
 C   -4.312920   -0.059442   -0.169130
 S   -5.508535   -0.047879   -1.475693
 O   -6.857469   -0.140898   -0.571815
 O   -5.460007   -1.256312   -2.237948
 O   -5.497988    1.213133   -2.136663
 C   -3.906837    1.144301    0.358311
 C   -2.621928   -0.048304    1.988515
 O   -1.826210   -0.103005    3.092356
 C   -3.049759    1.171508    1.449191
 C   -2.587945    2.501501    2.003330
 C   -1.280193    2.909834    1.364009
 C   -1.270978    3.577095    0.149329
 C   -0.056922    2.590403    1.970528
 O   -0.109528    1.950376    3.175442
 C    1.163040    2.930512    1.372971
 C    1.135680    3.597112    0.155653
 C   -0.068004    3.911067   -0.431520
 S   -0.060255    4.839735   -1.940507
 O    1.218298    4.747028   -2.560306
 O   -0.226907    6.331251   -1.317666
 O   -1.242759    4.593830   -2.705204
 H    7.401245    0.860886   -0.858796
 H    4.211515    2.193438   -0.114373
 H    3.202645    3.378240    1.751337
 H    2.423948    2.521887    3.083972
 H    4.271362   -2.033399   -0.105199
 H    1.380051   -0.754112    3.237219
 H    2.482062   -2.457843    3.080050
 H    3.344630   -3.238728    1.752597
 H    2.188732   -3.837866   -0.359736
 H    0.914224   -6.823979   -1.668791
 H   -2.040693   -3.886437   -0.355853
 H   -0.732040   -1.461744    3.316898
 H   -2.422850   -2.516704    3.074113
 H   -3.203012   -3.367394    1.738894
 H   -4.205847   -2.176516   -0.125188
 H   -7.382981   -0.887645   -0.863490
 H   -4.276029    2.050148   -0.093336
 H   -1.381382    0.760199    3.242145
 H   -2.480458    2.464636    3.089020
 H   -3.342387    3.249953    1.763898
 H   -2.187066    3.828954   -0.359342
 H    0.731989    1.470602    3.327702
 H    2.042477    3.881198   -0.352221
 H   -0.966535    6.770561   -1.740860
