99 
6hai_ligand_dft.xyz
 C    7.618931    0.307597    0.274885
 C    6.526621    2.484341    1.017678
 C    4.131632    2.702562    1.260875
 C    2.906069    1.798583    1.306672
 C   -0.036130    1.432977    1.857502
 C   -2.112229    1.049325    0.680896
 C   17.893291   -2.220639   -1.262209
 C   17.141830   -1.385213   -2.090194
 C   15.790028   -1.199438   -1.837167
 C   15.148258   -1.848529   -0.775851
 C   13.712461   -1.614973   -0.561430
 C   12.788202   -2.482478   -0.109045
 C   13.010961   -3.940483    0.180072
 C   11.352755   -2.042784   -0.005770
 C    9.987831   -0.016436    0.554409
 C    8.743647   -0.493660    0.127002
 C    7.700605    1.579798    0.843690
 C    3.767227    3.776301    0.237780
 C    2.261031    3.681715    0.099764
 C    0.506722    1.997220    0.703868
 C   -1.335343    0.951198    1.835900
 C   -3.509048    0.502289    0.750043
 C   -5.727060    0.721798   -0.360638
 C   -6.387048   -0.355462    0.248991
 C   -7.717914   -0.572367   -0.042550
 C   -8.436222    0.237035   -0.936979
 C   -9.873948    0.047083   -1.239243
 C  -11.904549   -1.174355   -0.460513
 C  -12.800774   -0.847744   -1.491078
 C  -14.097976   -1.310281   -1.413837
 C  -14.538857   -2.103299   -0.344489
 C  -15.911085   -2.602499   -0.264621
 C  -13.634413   -2.443696    0.685882
 C  -12.323406   -1.960458    0.620014
 C  -11.628396   -1.705031    2.859536
 C   -7.751348    1.289485   -1.588150
 C   -6.409179    1.535590   -1.269982
 C   -6.129053    3.860641   -1.570600
 C   -1.554782    1.610691   -0.469618
 C   -0.247212    2.078847   -0.464537
 C    8.948848    2.052151    1.254701
 C   10.076980    1.264200    1.118282
 C   15.927975   -2.666811    0.055011
 C   17.280842   -2.854536   -0.180242
 N   11.177976   -0.745375    0.427775
 N    5.287204    1.898253    0.953621
 N    1.845451    2.482726    0.721631
 N   -4.384984    1.043414   -0.157671
 N  -10.564062   -0.790209   -0.411289
 O   19.218428   -2.444017   -1.449357
 O    1.522367    4.452454   -0.456379
 O  -16.702046   -2.234629   -1.280575
 O  -16.344615   -3.304364    0.644226
 O  -13.964522   -3.205696    1.735333
 O  -11.391582   -2.280139    1.574492
 O  -10.425018    0.637553   -2.177069
 O   -8.321129    2.086939   -2.498907
 O   -5.698174    2.536254   -1.880934
 O   -3.818274   -0.343530    1.572455
 O    2.873404    0.683340    1.770164
 O    6.642761    3.689497    1.193530
 O   10.430437   -2.792175   -0.279574
 H    6.671094   -0.071375   -0.096905
 H    4.237124    3.166971    2.252619
 H    0.558395    1.358745    2.760102
 H   17.612939   -0.878739   -2.929753
 H   15.214866   -0.545526   -2.487683
 H   13.370622   -0.627276   -0.872442
 H   13.154962   -4.121137    1.252514
 H   12.123250   -4.498197   -0.128599
 H   13.882842   -4.328340   -0.351748
 H    8.669290   -1.476817   -0.314456
 H    4.217305    3.552842   -0.735125
 H    4.072618    4.782733    0.522424
 H   -1.769264    0.491702    2.717063
 H   -5.850731   -0.990638    0.937999
 H   -8.191589   -1.431542    0.423268
 H  -12.469513   -0.235538   -2.316083
 H  -14.801590   -1.059672   -2.199420
 H  -11.720382   -0.614821    2.781760
 H  -10.759403   -1.958920    3.468552
 H  -12.531836   -2.123234    3.309010
 H   -6.150018    4.014741   -0.484797
 H   -7.117646    4.054464   -1.992284
 H   -5.395241    4.530807   -2.021293
 H   -2.114443    1.653868   -1.399707
 H    0.181839    2.510925   -1.359789
 H    9.016233    3.047557    1.680504
 H   11.041100    1.644081    1.448358
 H   15.474644   -3.143874    0.917522
 H   17.882092   -3.482779    0.468117
 H   12.009644   -0.282453    0.763194
 H    5.193732    0.914793    1.174510
 H   -4.078458    1.824166   -0.722662
 H  -10.087011   -1.173266    0.393292
 H   19.519803   -1.954849   -2.224382
 H  -17.570557   -2.629990   -1.105005
 H  -14.910470   -3.453693    1.627124
 H   -9.234287    1.739191   -2.641762
