144 
6haj_ligand_xtb.xyz
 C   -0.741286   -1.425084    4.032757
 C   -0.729573   -0.128675    3.542011
 C    0.291261    0.251787    2.661796
 C   -1.885796    0.775539    3.843089
 C    4.320078    3.599055   -1.209421
 C    6.763798    3.027707   -1.143997
 C    7.825883    2.253373   -1.550712
 C    7.683797    1.270377   -2.504333
 C    6.452902    1.063092   -3.106543
 C    5.378631    1.879017   -2.734503
 C   -3.135136    0.379350    3.089743
 C   -4.259116    1.212407    3.217240
 C    3.337340    1.683427    2.526179
 C    2.979498    1.062503    1.336879
 C    3.248370    1.713112    0.117526
 C    3.900626    2.953399    0.093425
 C    4.228133    3.554211    1.301418
 C    3.930834    2.925713    2.489176
 C    2.381608   -0.315921    1.303306
 C    1.324722   -0.636077    2.328431
 C    1.274585   -1.932517    2.822731
 C    0.232961   -2.310177    3.638030
 C    5.520773    2.848150   -1.733266
 C   -5.430875    0.944283    2.502374
 C   -5.443526   -0.131538    1.618862
 C   -4.335190   -0.938816    1.486263
 C   -3.193842   -0.704186    2.232994
 C   -6.644606    1.846092    2.535573
 C    6.234742   -0.107997   -4.029983
 C   -6.968774    2.289696    1.131641
 C   -5.933907    2.767305    0.312228
 C   -6.161808    3.021373   -1.046039
 C   -7.447456    2.892643   -1.547155
 C   -8.469640    2.501962   -0.712721
 C   -8.243230    2.169633    0.605078
 C    5.378712   -1.130304   -3.315148
 C    5.847761   -1.736905   -2.158480
 C    5.040581   -2.628084   -1.487002
 C    3.808333   -2.992460   -1.984183
 C    3.312511   -2.402925   -3.139515
 C    4.076900   -1.405388   -3.753213
 C   -4.995990    3.307736   -1.957516
 C    1.929693   -2.792814   -3.608258
 C   -4.142034    2.061776   -2.052088
 C   -2.827868    2.043089   -1.570902
 C   -2.016274    0.914656   -1.725256
 C   -2.580195   -0.220497   -2.292818
 C   -3.910748   -0.237038   -2.637253
 C   -4.689857    0.892465   -2.563487
 C    0.967072   -2.331208   -2.546304
 C    0.407965   -3.223883   -1.644329
 C   -0.289205   -2.746102   -0.556534
 C   -0.421459   -1.393392   -0.346952
 C   -0.026573   -0.486566   -1.324182
 C    0.684984   -0.964921   -2.425662
 O   -2.380902    3.174833   -0.926876
 O   -4.723599    2.960758    0.882275
 O   -4.119024    2.279072    4.040252
 O    0.211619    1.491877    2.092031
 O    2.818130    1.093883   -1.007977
 O    4.142577    1.741748   -3.299598
 O    3.584064   -0.630286   -4.764709
 O    1.137549   -0.145488   -3.423487
 S   -4.557664   -1.795743   -3.191822
 S  -10.116019    2.442347   -1.350712
 S   -4.181836   -2.038508    0.092236
 S   -0.003040   -4.011176    4.011501
 S    4.251717    3.777560    4.005747
 S    9.416726    2.475379   -0.805361
 S    5.427888   -3.247028    0.130859
 S   -1.080947   -3.879968    0.561058
 C   -0.578052    0.910957   -1.219764
 O   -5.969788   -1.833130   -3.391102
 O   -3.846872   -2.930277   -2.699768
 O   -3.961700   -1.568474   -4.731430
 O  -10.590636    3.955914   -0.976460
 O  -10.100382    2.323838   -2.770162
 O  -10.948190    1.573564   -0.574270
 O   -4.524573   -3.480049    0.561877
 O   -2.791333   -1.996237   -0.268540
 O   -5.127875   -1.548557   -0.879790
 O    0.702410   -4.895285    3.108448
 O   -1.320994   -4.370671    4.411992
 O    0.902518   -4.023632    5.369280
 O    4.490221    2.866056    5.080918
 O    2.768114    4.393106    4.256483
 O    5.150800    4.858959    3.778015
 O    9.297932    3.082272    0.483327
 O   10.031549    3.605487   -1.790876
 O   10.179049    1.280302   -0.957151
 O    4.451822   -2.710128    1.027611
 O    6.844869   -2.542837    0.435627
 O    5.650726   -4.658321    0.116695
 O   -1.226152   -3.267192    1.859406
 O   -2.225271   -4.563947    0.024158
 O    0.070855   -4.951579    0.663870
 H   -1.544975   -1.775480    4.657767
 H   -1.642326    1.806065    3.577226
 H   -2.107644    0.756010    4.912425
 H    4.593461    4.634894   -1.014056
 H    3.514717    3.588953   -1.945808
 H    6.906347    3.744198   -0.351602
 H    8.542116    0.666514   -2.749130
 H    3.164336    1.201767    3.474899
 H    4.717389    4.513344    1.342145
 H    3.193031   -1.042370    1.411902
 H    1.954692   -0.484077    0.310780
 H    2.019939   -2.654337    2.529698
 H   -6.302233   -0.322050    0.995835
 H   -2.364868   -1.380541    2.112732
 H   -6.484717    2.727170    3.163566
 H   -7.496927    1.300747    2.943734
 H    7.200680   -0.552949   -4.267647
 H    5.762362    0.189887   -4.967985
 H   -7.674386    3.083482   -2.583286
 H   -9.065286    1.801959    1.197862
 H    6.818983   -1.480184   -1.768406
 H    3.219792   -3.716049   -1.443671
 H   -4.398964    4.152304   -1.606856
 H   -5.376939    3.553653   -2.948849
 H    1.879780   -3.877360   -3.698082
 H    1.682871   -2.360552   -4.579016
 H   -2.028373   -1.131637   -2.429754
 H   -5.720883    0.846982   -2.872452
 H    0.514734   -4.287517   -1.775796
 H   -0.914874   -1.049686    0.542092
 H   -1.521227    3.005615   -0.524991
 H   -4.061190    3.206379    0.218235
 H   -4.865139    2.881799    3.933083
 H    1.054549    1.679584    1.652079
 H    3.202922    1.498437   -1.807720
 H    4.127799    1.019795   -3.955161
 H    2.615195   -0.687835   -4.755542
 H    0.777162    0.739219   -3.296350
 H   -0.576938    1.191567   -0.161851
 H    0.024785    1.648240   -1.763786
 H   -4.482321   -2.069444   -5.362330
 H  -11.383744    3.913905   -0.440099
 H   -3.731176   -4.050410    0.361485
 H    0.948202   -4.890276    5.779061
 H    2.432333    4.084006    5.099323
 H   10.270830    4.380026   -1.279159
 H    7.518184   -3.210852    0.577751
 H    0.380422   -5.037749    1.611666
