144 
6haj_ligand_dft.xyz
 C   -1.831507   -3.842182    2.798100
 C   -1.699628   -2.498728    3.122277
 C   -0.504246   -1.844784    2.781073
 C   -2.795332   -1.746721    3.844165
 C    2.836792    3.025427    0.795401
 C    5.254912    2.992188    0.059759
 C    6.231816    2.681565   -0.875707
 C    5.904101    2.103083   -2.097379
 C    4.575223    1.861361   -2.425432
 C    3.590230    2.272717   -1.512095
 C   -3.687424   -0.908034    2.943891
 C   -4.007801    0.416027    3.295843
 C    2.789914   -0.343135    3.521227
 C    2.278676   -0.506973    2.235164
 C    2.237605    0.611747    1.384253
 C    2.746792    1.863795    1.772868
 C    3.233066    1.994401    3.067649
 C    3.228772    0.907183    3.934713
 C    1.888059   -1.877024    1.723793
 C    0.562499   -2.501235    2.147619
 C    0.391227   -3.846329    1.825472
 C   -0.789872   -4.497603    2.147079
 C    3.914976    2.789114   -0.250466
 C   -4.919006    1.169429    2.534479
 C   -5.424567    0.617316    1.361691
 C   -5.064903   -0.667890    0.977493
 C   -4.225051   -1.437506    1.776209
 C   -5.340529    2.579281    2.930070
 C    4.229839    1.024318   -3.638570
 C   -4.741005    3.600312    1.986572
 C   -3.345336    3.712864    1.908000
 C   -2.720214    4.377701    0.844787
 C   -3.524827    5.071567   -0.056223
 C   -4.903407    5.069578    0.094961
 C   -5.520992    4.307330    1.082841
 C    3.842184   -0.399944   -3.245096
 C    4.432665   -1.008452   -2.143436
 C    4.072278   -2.300671   -1.779633
 C    3.103727   -3.001643   -2.478897
 C    2.448993   -2.398601   -3.544889
 C    2.853066   -1.115067   -3.935336
 C   -1.236330    4.220009    0.547350
 C    1.166370   -3.046836   -4.026816
 C   -1.057408    3.053025   -0.409879
 C   -1.136746    1.732237    0.060545
 C   -1.251437    0.633866   -0.798495
 C   -1.196878    0.871330   -2.164150
 C   -0.959051    2.153538   -2.635240
 C   -0.916136    3.249728   -1.777920
 C    0.029616   -2.995364   -3.006500
 C   -0.977630   -3.956830   -3.067778
 C   -2.049102   -3.903097   -2.187366
 C   -2.163212   -2.884991   -1.251088
 C   -1.190681   -1.906318   -1.174077
 C   -0.076180   -1.994693   -2.025949
 O   -1.086125    1.577272    1.411940
 O   -2.631142    3.111845    2.903265
 O   -3.425579    0.930030    4.407531
 O   -0.479910   -0.505018    3.054256
 O    1.684420    0.415327    0.170149
 O    2.260097    2.109108   -1.747500
 O    2.222811   -0.445573   -4.954697
 O    0.899414   -1.064909   -1.951507
 S   -0.490312    2.327755   -4.326461
 S   -5.895537    6.012575   -1.026988
 S   -5.540913   -1.190233   -0.650356
 S   -1.026007   -6.179007    1.676200
 S    3.816096    1.114408    5.588087
 S    7.933979    2.964415   -0.483863
 S    4.729495   -2.994122   -0.293940
 S   -3.362194   -5.082649   -2.294289
 C   -1.325992   -0.758669   -0.207769
 O   -0.554897    3.715533   -4.709487
 O   -1.058789    1.259266   -5.122974
 O    1.121515    1.964319   -4.219435
 O   -5.972991    7.448509   -0.263693
 O   -5.143348    6.222251   -2.241116
 O   -7.247380    5.483154   -1.033459
 O   -5.629455   -2.771486   -0.407338
 O   -4.432959   -0.936671   -1.562790
 O   -6.846083   -0.643193   -0.949466
 O   -0.968061   -6.329957    0.215983
 O   -2.160971   -6.723545    2.381965
 O    0.350243   -6.819345    2.220729
 O    4.228131   -0.170959    6.106574
 O    2.405486    1.534593    6.288309
 O    4.689647    2.269656    5.667081
 O    8.068386    3.037798    0.951685
 O    8.143630    4.460590   -1.083172
 O    8.764476    2.081635   -1.285339
 O    5.028158   -1.920987    0.640445
 O    6.148981   -3.606067   -0.774240
 O    3.886922   -4.104942    0.100649
 O   -4.631019   -4.374914   -2.415949
 O   -3.000322   -6.092807   -3.263923
 O   -3.410250   -5.690885   -0.820451
 H   -2.732656   -4.385684    3.063915
 H   -2.352801   -1.092968    4.597838
 H   -3.420640   -2.472741    4.376370
 H    3.076402    3.931545    1.358705
 H    1.871681    3.206695    0.309924
 H    5.542473    3.377109    1.033469
 H    6.694685    1.793737   -2.774432
 H    2.857157   -1.192491    4.194722
 H    3.631028    2.945867    3.407370
 H    2.682375   -2.569009    2.019288
 H    1.916658   -1.862878    0.629820
 H    1.197867   -4.374385    1.324254
 H   -6.104917    1.192645    0.739818
 H   -3.989304   -2.457468    1.487567
 H   -5.073253    2.785640    3.970308
 H   -6.431694    2.644304    2.875842
 H    5.103180    0.983679   -4.299242
 H    3.442741    1.487673   -4.237203
 H   -3.078991    5.599536   -0.893795
 H   -6.603979    4.236327    1.113658
 H    5.154258   -0.463040   -1.544232
 H    2.780001   -3.976140   -2.126915
 H   -0.659215    4.073377    1.465671
 H   -0.859819    5.133055    0.077481
 H    1.364205   -4.096611   -4.268346
 H    0.797521   -2.612391   -4.966019
 H   -1.302078    0.050648   -2.863509
 H   -0.785419    4.248673   -2.182489
 H   -0.932967   -4.755352   -3.802506
 H   -3.025750   -2.836761   -0.600220
 H   -1.129738    0.654162    1.727018
 H   -1.876831    2.632023    2.506605
 H   -3.238828    1.868584    4.226837
 H    0.440161   -0.191680    3.091224
 H    1.759271    1.179720   -0.443232
 H    2.000328    2.014219   -2.688665
 H    1.645758   -1.045095   -5.445233
 H    0.943690   -0.653469   -1.072829
 H   -2.264405   -0.871854    0.343991
 H   -0.523482   -0.840051    0.532973
 H    1.282494    1.062296   -4.582317
 H   -6.903053    7.592186   -0.025786
 H   -5.336354   -3.272192   -1.212382
 H    0.639599   -7.494403    1.583273
 H    2.616750    2.098825    7.051526
 H    8.903002    4.422843   -1.687528
 H    6.847562   -3.152202   -0.273664
 H   -2.548480   -6.110119   -0.580314
