57 
6hb5_ligand_dft.xyz
 N    2.070969    0.435569   -0.649706
 C    2.068594   -0.326541    0.644812
 C    3.257213    0.122160    1.499838
 C    4.556838   -0.019583    0.743699
 C    5.158167    1.089633    0.135261
 C    6.324316    0.962278   -0.606191
 C    6.918810   -0.293467   -0.751607
 O    8.051040   -0.356547   -1.481378
 C    6.331758   -1.411262   -0.150544
 C    5.163261   -1.268532    0.585463
 C    0.726942   -0.102187    1.367374
 O    0.651234    0.514333    2.400969
 N   -0.419143   -0.576873    0.732521
 S   -0.443412   -1.869894   -0.357084
 O    0.116736   -3.035465    0.277140
 O    0.095271   -1.387157   -1.611094
 O   -2.002725   -2.006171   -0.561228
 C   -2.823283   -2.570233    0.508495
 C   -3.926202   -1.574695    0.831218
 O   -3.309311   -0.314450    1.150714
 C   -3.839346    0.706264    0.298977
 C   -4.322889   -0.044821   -0.949623
 O   -5.284894    0.643105   -1.681552
 C   -4.920221   -1.289709   -0.299389
 O   -6.158546   -1.002189    0.293661
 N   -2.785347    1.694682    0.120952
 C   -2.291665    2.277276    1.276580
 C   -1.081238    2.853771    1.348161
 C   -0.211829    2.762208    0.195097
 N    1.070903    2.898408    0.142486
 N   -0.864671    2.406933   -0.976552
 C   -2.146149    1.908483   -1.099665
 O   -2.635962    1.683551   -2.187651
 H    1.426184    0.001266   -1.326728
 H    1.795255    1.455798   -0.484079
 H    3.026608    0.412646   -1.029897
 H    2.181218   -1.383685    0.382561
 H    3.095747    1.156927    1.816967
 H    3.254097   -0.483173    2.410956
 H    4.719704    2.077837    0.262823
 H    6.796876    1.823302   -1.065828
 H    8.397607   -1.257636   -1.490186
 H    6.792126   -2.390680   -0.252067
 H    4.726666   -2.146843    1.055703
 H   -1.319965   -0.380556    1.185947
 H   -3.220529   -3.515191    0.135560
 H   -2.200770   -2.768317    1.384578
 H   -4.473853   -1.942379    1.705130
 H   -4.689464    1.185688    0.794214
 H   -3.469490   -0.344602   -1.560307
 H   -4.806426    1.233596   -2.282078
 H   -4.990863   -2.122239   -1.012285
 H   -6.691723   -0.538522   -0.369396
 H   -2.945121    2.198124    2.138317
 H   -0.709293    3.261869    2.277766
 H    1.436652    3.212125    1.039060
 H   -0.386824    2.563567   -1.855677
