56 
6hb6_ligand_dft.xyz
 N   -0.242162   -2.066533    1.321418
 C   -0.564858   -2.507665   -0.074699
 C    0.609130   -3.290677   -0.689091
 C    1.957461   -2.640164   -0.511411
 C    2.778544   -3.011088    0.558589
 C    4.022384   -2.426048    0.751549
 C    4.483458   -1.457715   -0.146005
 O    5.671351   -0.880039    0.109845
 C    3.689937   -1.111340   -1.249130
 C    2.436973   -1.686179   -1.412578
 C   -1.795220   -3.437777   -0.024769
 O   -1.690938   -4.600436    0.271667
 N   -3.030154   -2.913382   -0.424776
 S   -3.561563   -1.393316    0.016012
 O   -4.995302   -1.386757   -0.038486
 O   -2.859353   -1.019926    1.233325
 O   -2.937948   -0.578237   -1.209124
 C   -3.234215    0.842296   -1.288905
 C   -2.540823    1.630741   -0.199205
 O   -1.149383    1.336816   -0.247083
 C   -0.530736    2.431971    0.395918
 C   -1.197154    3.629633   -0.302246
 O   -1.011570    4.863541    0.303634
 C   -2.674688    3.162884   -0.348271
 O   -3.370612    3.677719    0.766176
 N    0.911708    2.341835    0.247137
 C    1.665657    3.345470   -0.342137
 C    2.991638    3.242279   -0.531008
 C    3.689634    2.046124   -0.105473
 O    4.852487    1.768237   -0.340374
 N    2.882222    1.181892    0.649012
 C    1.528593    1.239618    0.813275
 O    0.902138    0.378081    1.424802
 H   -1.071498   -1.609827    1.729155
 H    0.049717   -2.850791    1.910174
 H    0.502403   -1.333733    1.311071
 H   -0.768797   -1.584161   -0.620976
 H    0.376305   -3.426983   -1.750347
 H    0.610850   -4.289749   -0.242607
 H    2.453479   -3.789144    1.247383
 H    4.655695   -2.707729    1.585978
 H    5.679769    0.023122   -0.258121
 H    4.058517   -0.383562   -1.965394
 H    1.833897   -1.404310   -2.272796
 H   -3.785888   -3.594700   -0.471748
 H   -2.855073    1.113064   -2.274910
 H   -4.317863    0.987928   -1.255921
 H   -2.942753    1.372956    0.787781
 H   -0.768133    2.424196    1.469154
 H   -0.813371    3.687623   -1.325616
 H   -1.633965    4.904331    1.047461
 H   -3.154609    3.460379   -1.286512
 H   -3.957755    4.388107    0.482778
 H    1.123957    4.239031   -0.619810
 H    3.557106    4.031806   -1.005978
 H    3.320448    0.342360    1.012618
