59 
6hb7_ligand_dft.xyz
 C    1.484159    3.868592    0.510940
 N    1.617090    2.726823   -0.401840
 C    0.507962    2.334065   -1.134049
 O   -0.590105    2.877113   -0.929685
 C    0.717147    1.269861   -2.075403
 C    1.867684    0.566834   -2.030042
 N    2.863619    0.880862   -1.157490
 C    4.036129   -0.026997   -0.976581
 O    3.753425   -1.235688   -1.616131
 C    3.654445   -2.304662   -0.671427
 C    2.201852   -2.647131   -0.378626
 O    1.587169   -1.451222    0.193679
 S    0.046864   -1.493444    0.577098
 O   -0.788087   -1.435716   -0.611848
 O   -0.198473   -2.524829    1.549017
 N    0.069649    0.040546    1.260157
 C   -0.972846    0.934067    1.584426
 O   -0.746744    1.783163    2.407608
 C   -2.356595    0.837448    0.940895
 N   -2.307328    0.866721   -0.552701
 C   -3.192465   -0.356005    1.450922
 C   -4.508756   -0.444204    0.715759
 C   -4.682810   -1.375918   -0.315722
 C   -5.868807   -1.440694   -1.031186
 C   -6.913464   -0.563393   -0.725479
 O   -8.041441   -0.675373   -1.454780
 C   -6.752564    0.376063    0.297470
 C   -5.559119    0.429755    1.006733
 C    4.494555   -1.859815    0.524753
 O    5.821370   -2.191445    0.241665
 C    4.300274   -0.335952    0.523547
 O    5.444863    0.265032    1.034748
 C    2.817528    2.026044   -0.378797
 O    3.757888    2.369672    0.318436
 H    2.465420    4.317388    0.646106
 H    1.091781    3.534127    1.474374
 H    0.790386    4.580743    0.068506
 H   -0.064809    1.024663   -2.780872
 H    2.061635   -0.293421   -2.656006
 H    4.907875    0.439556   -1.441328
 H    4.109248   -3.187289   -1.129509
 H    2.124947   -3.465992    0.341251
 H    1.670186   -2.893773   -1.300843
 H    0.858950    0.169498    1.890872
 H   -2.841854    1.769174    1.235541
 H   -1.783143    1.724993   -0.883474
 H   -1.831540    0.024180   -0.911202
 H   -3.270840    0.858138   -0.905999
 H   -2.643547   -1.295846    1.342618
 H   -3.343039   -0.198216    2.523678
 H   -3.884182   -2.076985   -0.549267
 H   -6.012446   -2.172426   -1.818596
 H   -8.711040   -0.054474   -1.141235
 H   -7.561682    1.057192    0.548015
 H   -5.456984    1.155540    1.810518
 H    4.150118   -2.309905    1.467166
 H    6.380515   -1.532467    0.681221
 H    3.409446   -0.079948    1.109520
 H    5.288805    1.222594    1.018024
