41 
6hcw_ligand_xtb.xyz
 C    3.982116   -0.164724   -1.543799
 C    3.008659    0.476620   -0.557886
 C    5.343300   -0.349223   -0.888798
 C   -5.734191   -1.328115   -0.389051
 C   -3.687257    1.813592   -0.452361
 C   -1.500700    1.078617    0.382069
 C   -2.298398    2.059650   -0.080168
 C    5.269536   -1.143704    0.405874
 C    4.281162   -0.497373    1.372615
 C   -0.072211    1.356289    0.763887
 C   -3.545592   -1.870315    0.396598
 C   -3.170892   -0.537035    0.220871
 F   -6.981625   -1.731775   -0.682144
 C   -5.385807   -0.009945   -0.569826
 C   -4.827713   -2.268151    0.091942
 C   -4.087777    0.400962   -0.263778
 O   -4.443395    2.665687   -0.873097
 O   -1.888983   -0.206952    0.539408
 O    0.431822    2.445998    0.599294
 N    0.568916    0.294008    1.292156
 C    1.941556    0.347172    1.730519
 C    2.896565   -0.352936    0.729365
 O    2.420919   -1.660124    0.457417
 F    5.919821    0.869709   -0.656908
 F    6.195742   -0.967083   -1.763505
 H    4.096438    0.461494   -2.429665
 H    3.631915   -1.150947   -1.853091
 H    2.026761    0.576082   -1.026541
 H    3.354848    1.478771   -0.303824
 H   -1.897596    3.056173   -0.175744
 H    6.264321   -1.188892    0.850846
 H    4.944019   -2.155025    0.161707
 H    4.639589    0.489319    1.666446
 H    4.196904   -1.121435    2.262256
 H   -2.820331   -2.574630    0.771917
 H   -6.090160    0.717149   -0.942799
 H   -5.139768   -3.292237    0.219718
 H    0.071788   -0.575798    1.406220
 H    2.020040   -0.146363    2.702303
 H    2.214557    1.398988    1.827958
 H    1.661763   -1.593531   -0.132382
