47 
6hd6_ligand_xtb.xyz
 C   -7.188363   -0.379451   -0.072483
 C    7.179979   -0.893431   -1.096688
 C    6.330587    0.212458   -0.459325
 C   -2.209538    0.298480    0.001477
 C   -3.261804    1.201983   -0.108499
 C   -4.575668    0.769459   -0.103724
 C    0.264757    0.150345    0.145256
 C    1.488094    1.019620    0.071074
 C    2.582593    0.593896    0.815679
 C    3.793939    1.266194    0.756044
 C    3.900154    2.397820   -0.047675
 C    2.813814    2.827090   -0.790862
 C    1.612405    2.139062   -0.743895
 C    4.971837    0.763794    1.547332
 F   -7.245296    0.321472   -1.218632
 F   -7.308178    0.530460    0.910590
 F   -8.269401   -1.142464   -0.029162
 O   -6.118401   -1.146469    0.033855
 C   -4.836154   -0.585964    0.013462
 C   -3.794125   -1.497638    0.122182
 C   -2.485336   -1.062172    0.115895
 N   -0.905492    0.812830   -0.014642
 O    0.389351   -1.042237    0.341845
 N    5.750263   -0.287383    0.811756
 C    4.965385   -1.518638    0.537437
 C    5.870494   -2.552387   -0.141435
 O    6.409323   -2.040012   -1.330919
 H    8.039496   -1.128265   -0.448317
 H    7.552300   -0.566056   -2.068236
 H    5.507633    0.477903   -1.125840
 H    6.940308    1.095067   -0.262508
 H   -3.060974    2.259604   -0.198764
 H   -5.364913    1.498186   -0.190529
 H    2.451869   -0.275882    1.442498
 H    4.826888    2.950540   -0.090458
 H    2.907235    3.701193   -1.415672
 H    0.790835    2.468930   -1.361491
 H    4.630144    0.323634    2.486796
 H    5.656086    1.585745    1.769924
 H   -4.028791   -2.545137    0.210816
 H   -1.678628   -1.769927    0.201625
 H   -0.860948    1.818571   -0.108321
 H    6.535183   -0.561415    1.415936
 H    4.138270   -1.259691   -0.126185
 H    4.568105   -1.917151    1.471415
 H    5.287430   -3.431230   -0.419114
 H    6.674471   -2.861331    0.545705
