46 
6hd6_ligand_dft.xyz
 C   17.270112   39.971895   50.382690
 C   24.574433   48.589039   58.896416
 C   24.942967   47.149242   58.558805
 C   20.325302   42.280463   53.531568
 C   19.056138   41.880726   53.966895
 C   18.074636   41.521657   53.055679
 C   22.534984   43.121422   54.360249
 C   23.282397   43.347588   55.643497
 C   24.246659   44.355360   55.648722
 C   24.988704   44.639506   56.793047
 C   24.766948   43.869523   57.937918
 C   23.827240   42.844323   57.938553
 C   23.080530   42.582846   56.794659
 C   25.978654   45.791808   56.806149
 F   17.020977   39.143480   51.407144
 F   18.387850   39.534790   49.787468
 F   16.268892   39.886446   49.517823
 O   17.364969   41.259893   50.775014
 C   18.367577   41.561786   51.700419
 C   19.617223   41.957096   51.250396
 C   20.603497   42.318814   52.160854
 N   21.266477   42.616463   54.520904
 O   23.028779   43.390138   53.278087
 N   25.434044   47.089418   57.189735
 C   24.434698   47.613417   56.268989
 C   24.080820   49.039539   56.672423
 O   23.605468   49.090421   58.001160
 H   24.138101   48.651164   59.896847
 H   25.481718   49.213658   58.862895
 H   24.055962   46.508264   58.715645
 H   25.733351   46.803612   59.236759
 H   18.831268   41.850468   55.030246
 H   17.089324   41.213746   53.386397
 H   24.411809   44.914579   54.732049
 H   25.348535   44.067391   58.835173
 H   23.684043   42.238371   58.827904
 H   22.379475   41.752144   56.795596
 H   26.797729   45.562284   57.498581
 H   26.420180   45.902909   55.808718
 H   19.817285   41.984214   50.185119
 H   21.578503   42.636292   51.820779
 H   20.924367   42.572716   55.469057
 H   24.848151   47.609653   55.253140
 H   23.511468   47.005904   56.261393
 H   24.970542   49.680454   56.563486
 H   23.281215   49.432075   56.038952
