45 
6hdn_ligand_dft.xyz
 N   -0.154431   -1.358076    0.095384
 N    2.624637   -1.125049   -0.051058
 C   -3.409236   -0.181237   -1.182497
 C   -2.183528   -1.092858   -1.253042
 C   -1.603025   -1.539036    0.123826
 C   -2.247375   -0.903401    1.403305
 C    0.421210   -0.091980    0.038416
 C    1.604465    2.392755    0.004621
 C    4.649015    0.210398    0.037424
 C    4.018907   -1.124050   -0.069586
 O    4.633420   -2.166820   -0.179578
 C    6.143647    0.220377    0.067847
 C    3.880602    1.321278    0.059360
 C    1.834472    0.001382   -0.004524
 C    2.437980    1.257908    0.026821
 C    0.246602    2.214964   -0.047422
 N   -0.343695    0.996626   -0.011454
 C   -3.457770    0.000794    1.156026
 C   -4.710345   -0.875783   -0.751479
 C   -4.750737   -0.740778    0.787407
 N   -3.146302    0.811298   -0.076989
 C   -3.909464    2.073829   -0.190334
 H    0.335675   -1.988642    0.718291
 H    2.214300   -2.023621   -0.271231
 H   -3.517100    0.366132   -2.121308
 H   -2.445224   -1.973627   -1.844812
 H   -1.397623   -0.577426   -1.808757
 H   -1.742032   -2.619046    0.196476
 H   -1.481461   -0.320093    1.919477
 H   -2.552417   -1.693096    2.095237
 H    2.034172    3.388207    0.009988
 H    6.544481   -0.241268   -0.840189
 H    6.534464    1.236457    0.156358
 H    6.509640   -0.380002    0.906730
 H    4.346101    2.302531    0.105022
 H   -0.428216    3.064165   -0.098545
 H   -3.589561    0.686382    1.996031
 H   -4.710199   -1.916686   -1.081368
 H   -5.578213   -0.397654   -1.211941
 H   -4.792681   -1.707078    1.293696
 H   -5.628679   -0.176085    1.110706
 H   -2.103946    1.012228   -0.067009
 H   -4.980744    1.866626   -0.197002
 H   -3.627727    2.573983   -1.118149
 H   -3.664351    2.711200    0.660722
