45 
6hdn_ligand_xtb.xyz
 N   -0.222439   -1.383798    0.020577
 N    2.635574   -1.140817    0.012228
 C   -3.379478   -0.047419   -1.146276
 C   -2.272007   -1.094918   -1.311275
 C   -1.664485   -1.617441    0.016741
 C   -2.282844   -1.066741    1.327950
 C    0.384865   -0.182080    0.015159
 C    1.535691    2.353697    0.017125
 C    4.610904    0.243958   -0.009725
 C    4.029225   -1.102865   -0.001441
 O    4.644594   -2.141536   -0.004456
 C    6.092190    0.307486   -0.034859
 C    3.804525    1.330450    0.002529
 C    1.805826   -0.056403    0.014480
 C    2.381976    1.221472    0.013064
 C    0.189567    2.173531    0.015914
 N   -0.355837    0.935270    0.012788
 C   -3.391725   -0.026351    1.129925
 C   -4.733859   -0.679905   -0.776729
 C   -4.740077   -0.670001    0.756830
 N   -3.008741    0.810141   -0.014058
 C   -3.642320    2.121426   -0.030978
 H    0.361919   -2.201688    0.001717
 H    2.267987   -2.084690    0.019726
 H   -3.448961    0.539995   -2.064244
 H   -2.667111   -1.932798   -1.883977
 H   -1.465525   -0.662267   -1.906854
 H   -1.768125   -2.703547    0.028364
 H   -1.482254   -0.618837    1.920037
 H   -2.680289   -1.892355    1.916580
 H    1.964682    3.340787    0.019462
 H    6.462042   -0.185140   -0.934113
 H    6.451281    1.331322   -0.004584
 H    6.497206   -0.253270    0.806960
 H    4.231052    2.322679    0.000174
 H   -0.510414    2.992415    0.016632
 H   -3.473689    0.578629    2.035347
 H   -4.825793   -1.683571   -1.183462
 H   -5.552096   -0.084984   -1.178925
 H   -4.829910   -1.669071    1.175173
 H   -5.564752   -0.074604    1.144805
 H   -1.449552    0.874315    0.001807
 H   -4.733137    2.066321   -0.039030
 H   -3.317523    2.661552   -0.919590
 H   -3.331526    2.678145    0.852290
