76 
6hdq_ligand_xtb.xyz
 C    0.832060   -2.214460   -0.172351
 C   -3.042833   -1.174335    1.098259
 C   -3.169378   -3.723736    0.513534
 C   -4.615401   -3.982439    0.077287
 C    6.233895   -0.684860   -2.380779
 C    5.301237   -1.559203   -1.610759
 C    5.602580   -2.902977   -1.379476
 N    4.816308   -3.723073   -0.711673
 C    3.679438   -3.266197   -0.230970
 C    3.258031   -1.946545   -0.399098
 C    4.095672   -1.088215   -1.109908
 C    1.963885   -1.514095    0.143609
 N   -0.387336   -1.870745    0.299449
 C   -0.577626   -0.822430    1.114732
 N   -1.816362   -0.534044    1.559852
 C   -3.072651   -2.644517    1.601011
 C   -4.894658   -2.817726   -0.879786
 C   -3.501280   -2.225701   -1.181828
 N   -2.511001   -3.197326   -0.685270
 C   -3.186638   -0.925173   -0.428150
 C   -4.153689    0.222176   -0.742917
 C   -3.739472    1.576884   -0.154428
 C   -2.345151    2.086053   -0.539730
 C   -2.228125    2.402894   -2.031580
 C   -0.808093    2.843175   -2.377758
 C   -0.385409    4.034353   -1.525726
 F    0.932721    4.314632   -1.769691
 F   -1.063771    5.147167   -1.918831
 C   -0.580522    3.808416   -0.031777
 C   -2.007336    3.351630    0.255125
 C    0.556694   -0.038692    1.475850
 N    0.434447    1.071569    2.263532
 C    1.469176    1.917603    2.657130
 O    1.208833    2.892773    3.320550
 C    2.799810    1.501287    2.208956
 C    3.930692    2.349378    2.657928
 C    2.941610    0.403688    1.429298
 C    1.830426   -0.385525    1.004431
 H    0.858533   -3.068425   -0.829402
 H   -3.853498   -0.642604    1.599103
 H   -2.676975   -4.634834    0.859888
 H   -4.675807   -4.938137   -0.443779
 H   -5.304425   -4.014268    0.916625
 H    6.317785   -1.039879   -3.406973
 H    5.885759    0.344675   -2.396722
 H    7.229447   -0.715486   -1.941975
 H    6.519332   -3.335754   -1.755973
 H    3.082057   -3.973180    0.329009
 H    3.794776   -0.065644   -1.294404
 H   -1.918378    0.229040    2.205979
 H   -3.910477   -2.769019    2.285368
 H   -2.166102   -2.813365    2.184937
 H   -5.378203   -3.157551   -1.792934
 H   -5.541262   -2.077389   -0.417722
 H   -3.360975   -2.052424   -2.250810
 H   -2.365789   -3.941981   -1.361474
 H   -1.229276   -2.432562   -0.074720
 H   -2.211368   -0.610237   -0.809966
 H   -4.233364    0.306936   -1.827220
 H   -5.150212   -0.008749   -0.364592
 H   -3.800566    1.529948    0.935870
 H   -4.474428    2.315586   -0.477596
 H   -1.593133    1.327278   -0.292765
 H   -2.924559    3.202893   -2.287022
 H   -2.481094    1.529853   -2.634000
 H   -0.739977    3.131249   -3.427775
 H   -0.094704    2.035926   -2.195680
 H   -0.359829    4.738154    0.494211
 H    0.146248    3.057092    0.285124
 H   -2.699218    4.148133   -0.022560
 H   -2.118366    3.178600    1.327658
 H   -0.469950    1.368114    2.609711
 H    3.921188    2.429423    3.744356
 H    3.798546    3.361945    2.276360
 H    4.885422    1.954573    2.324950
 H    3.927552    0.094749    1.117194
