25 
6hf5_ligand_dft.xyz
 O   -2.610685   -2.593315    0.776266
 C   -1.847023   -1.543981    1.071770
 O   -1.093058   -1.541045    2.025171
 C   -1.979219   -0.400720    0.144644
 N   -2.868675   -0.462952   -0.899943
 C   -2.804197    0.616221   -1.613222
 S   -1.668425    1.812278   -1.069426
 C   -1.235589    0.749410    0.228199
 N   -0.326219    1.061961    1.228864
 S    1.278991    1.402096    0.800058
 O    1.990624    1.452566    2.058193
 O    1.230716    2.512720   -0.130391
 C    1.775464   -0.049591   -0.099866
 C    1.941658   -1.257210    0.573462
 C    2.271638   -2.370310   -0.184253
 C    2.414932   -2.219196   -1.563138
 N    2.255695   -1.063242   -2.209981
 C    1.936841    0.007338   -1.481589
 H   -3.132734   -2.372079   -0.017269
 H   -3.390343    0.781887   -2.508847
 H   -0.363292    0.360519    1.975228
 H    1.811431   -1.322855    1.648895
 H    2.412674   -3.339510    0.280605
 H    2.670026   -3.076056   -2.182186
 H    1.809767    0.948565   -2.009077
