25 
6hf5_ligand_xtb.xyz
 O   -3.185231   -2.506462    0.617499
 C   -2.227160   -1.631411    0.916056
 O   -1.425324   -1.816919    1.807402
 C   -2.194393   -0.440649    0.068667
 N   -3.059391   -0.272239   -0.970692
 C   -2.814194    0.806800   -1.612926
 S   -1.474769    1.762926   -1.012981
 C   -1.257973    0.569712    0.210404
 N   -0.320592    0.647009    1.189978
 S    1.189461    1.335360    0.867270
 O    1.848051    1.505609    2.117461
 O    0.943534    2.457046    0.017032
 C    1.952080    0.017051   -0.061902
 C    2.598144   -1.004690    0.610436
 C    3.097945   -2.058494   -0.138194
 C    2.906043   -2.031452   -1.514432
 N    2.288925   -1.048984   -2.149241
 C    1.821889   -0.038855   -1.439186
 H   -3.714456   -2.170505   -0.126436
 H   -3.375135    1.121426   -2.469592
 H   -0.367820   -0.142351    1.836906
 H    2.702927   -0.951567    1.683039
 H    3.614939   -2.879545    0.331745
 H    3.264485   -2.834196   -2.144411
 H    1.334867    0.761384   -1.978869
