56 
6hgg_ligand_dft.xyz
 C    3.265804   -1.563643   -0.390142
 C    4.790144   -1.599993   -0.314061
 C    5.388471   -0.277569   -0.748448
 C    4.616343    0.921343   -0.371364
 C    3.403597    0.879644    0.204336
 C    2.762297    2.133555    0.736977
 C    1.317762    2.296332    0.264861
 C    0.470458    1.045271    0.518555
 C    1.168626   -0.188246   -0.102780
 C    2.628470   -0.417454    0.423720
 C   -1.126457   -1.201247   -0.663424
 C    0.296695   -1.461781   -0.132639
 C   -1.812406   -0.022275    0.024992
 C   -0.903562    1.209789   -0.123432
 C   -1.793110    2.387338    0.291002
 C   -3.212997    1.970164   -0.180222
 C   -3.086443    0.525437   -0.719442
 C   -2.144813   -0.347472    1.491905
 C    2.706503   -0.741231    1.935145
 C   -4.285005   -0.394605   -0.517172
 C   -5.331292   -0.169046    0.555742
 O    6.462776   -0.198323   -1.315737
 O    0.278755   -2.053903    1.160915
 O   -2.859324    0.608156   -2.112963
 O   -4.426698   -1.342426   -1.273644
 O   -6.175401   -1.269165    0.677754
 H    2.980803   -1.449035   -1.445197
 H    2.854023   -2.519286   -0.049162
 H    5.121880   -1.789782    0.715797
 H    5.207024   -2.396013   -0.936802
 H    5.124577    1.870425   -0.526878
 H    3.358984    3.007951    0.457903
 H    2.774359    2.083797    1.835095
 H    0.865594    3.164479    0.757727
 H    1.314586    2.506954   -0.814143
 H    0.357442    0.907688    1.601934
 H    1.293508    0.065492   -1.168870
 H   -1.048351   -0.986342   -1.735028
 H   -1.716570   -2.124420   -0.569604
 H    0.768511   -2.166042   -0.833570
 H   -0.732235    1.315581   -1.204361
 H   -1.474162    3.325417   -0.170078
 H   -1.766065    2.537275    1.376687
 H   -3.585213    2.600639   -0.990496
 H   -3.930994    2.037145    0.641895
 H   -2.653200    0.479397    1.998094
 H   -2.794725   -1.229131    1.554983
 H   -1.239879   -0.584066    2.051402
 H    3.747133   -0.697088    2.273982
 H    2.136677   -0.028682    2.537559
 H    2.303199   -1.732682    2.137867
 H   -5.879630    0.744889    0.261337
 H   -4.858472    0.047112    1.519988
 H   -0.327793   -2.803604    1.130605
 H   -3.116912   -0.253863   -2.476237
 H   -6.039478   -1.794785   -0.127683
