54 
6hgj_ligand_xtb.xyz
 C   -0.916447    1.150897   -0.421911
 C   -1.122379   -1.312291   -0.728687
 C   -2.045961   -0.302405    1.345070
 C    2.581206   -0.423131    0.291398
 C    3.351020    0.861513    0.078660
 C    4.578809    0.898240   -0.451877
 C    5.365469   -0.277700   -0.814237
 C    2.631684   -0.733265    1.796727
 C   -3.260192    1.830301   -0.296276
 C   -3.123952    0.369675   -0.771944
 C   -4.307323   -0.525385   -0.520924
 C   -5.678550    0.077873   -0.758019
 C   -1.819749    2.333423   -0.055777
 C   -1.788521   -0.077117   -0.138947
 C    0.443204    1.044232    0.264799
 C    1.130038   -0.236656   -0.242098
 C    0.227447   -1.466910   -0.006128
 O   -0.008971   -1.619943    1.378137
 O   -1.874662    0.494687    2.224848
 O    6.427938   -0.209182   -1.394846
 C    4.766637   -1.583668   -0.346100
 C    3.251297   -1.562601   -0.500444
 C    2.688342    2.116320    0.549494
 C    1.299743    2.262086   -0.063217
 O   -4.221248   -1.688541   -0.197607
 O   -6.680486   -0.886483   -0.646320
 H   -0.738407    1.179882   -1.505492
 H   -0.970592   -1.195457   -1.802794
 H   -1.735627   -2.201076   -0.563634
 H   -2.542462   -1.269562    1.545108
 H    5.075862    1.847140   -0.605236
 H    1.935994   -0.109684    2.347166
 H    3.634448   -0.556083    2.180603
 H    2.365991   -1.769106    1.983212
 H   -3.786569    2.438488   -1.030377
 H   -3.821542    1.863675    0.637122
 H   -2.987791    0.362008   -1.862582
 H   -5.712725    0.532175   -1.756479
 H   -5.842247    0.876094   -0.019523
 H   -1.683436    2.594785    0.991505
 H   -1.595867    3.208524   -0.663515
 H    0.294061    0.979578    1.343580
 H    1.223075   -0.137766   -1.332040
 H    0.733175   -2.360180   -0.400275
 H   -0.477278   -2.448319    1.528359
 H    5.041378   -1.716620    0.703045
 H    5.203609   -2.407848   -0.912333
 H    3.017539   -1.446336   -1.562503
 H    2.853885   -2.524352   -0.172935
 H    3.305142    2.981654    0.302240
 H    2.590196    2.072881    1.637284
 H    0.822699    3.164798    0.319678
 H    1.393334    2.362505   -1.147886
 H   -6.247336   -1.706705   -0.352398
