36 
6hgr_ligand_xtb.xyz
 P    0.713044    2.567118   -0.378071
 O    1.354578    3.310935   -1.633325
 O   -0.780509    2.357342   -0.809901
 O    0.982334    3.201699    0.911743
 O    1.371127    1.098753   -0.538347
 C    2.633962    0.949798    0.080196
 C    2.851063   -0.495745    0.542498
 O    1.918711   -0.893451    1.536338
 C    2.695202   -1.524457   -0.589633
 O    3.376833   -2.729535   -0.334365
 C    1.191974   -1.843115   -0.531944
 O    0.861315   -3.137536   -0.926497
 C    0.839473   -1.557658    0.959130
 N   -0.372234   -0.771576    1.035413
 C   -0.576756    0.440720    1.641168
 N   -1.752811    0.931645    1.398589
 C   -2.392483    0.015799    0.602628
 C   -3.721008    0.026941   -0.009283
 O   -4.537054    0.911739    0.065335
 N   -3.978828   -1.140334   -0.749748
 C   -3.134272   -2.072396   -0.913546
 N   -1.869716   -2.120202   -0.391873
 C   -1.530613   -1.042962    0.370129
 H    1.206136    4.253726   -1.570789
 H   -1.363823    2.211011   -0.048224
 H    3.423348    1.228544   -0.625945
 H    2.681692    1.613985    0.949373
 H    3.840194   -0.555553    1.010603
 H    2.985688   -1.105860   -1.559272
 H    4.326316   -2.573396   -0.323311
 H    0.648539   -1.140474   -1.171297
 H    1.622910   -3.704743   -0.731283
 H    0.679997   -2.503657    1.504054
 H    0.168102    0.904527    2.253725
 H   -3.416555   -2.927218   -1.515461
 H   -1.201028   -2.845499   -0.623680
