60 
6hgv_ligand_xtb.xyz
 C    5.373495   -1.869048   -0.204730
 N    5.118857    0.506815    0.219665
 C    5.093160    1.974348   -0.114021
 C    4.648306    2.679575    1.163882
 C   -5.531047    1.062143    0.037259
 C   -6.287554    0.745930    1.332586
 C   -8.132095   -0.343137    0.028903
 C   -6.496187    1.156300   -1.146812
 C   -3.191639    0.324601    0.004639
 C   -1.010182   -0.877920   -0.102575
 C   -0.366933   -2.038757   -0.531831
 C    1.000958   -2.194962   -0.396393
 C    1.747568   -1.180730    0.176738
 C    3.878171   -2.238360   -0.271344
 C    5.628033   -0.462909   -0.773439
 C    6.490451    2.424409   -0.519609
 C    4.080580    2.196487   -1.230405
 C    1.117873   -0.022128    0.616643
 C   -0.243948    0.132258    0.483295
 C   -7.159347   -0.499523    1.193667
 C   -7.376626   -0.085727   -1.271354
 N   -2.381360   -0.781416   -0.255509
 N   -4.499543    0.073978   -0.223984
 O   -2.763452    1.395707    0.373006
 O    3.130825   -1.219980    0.361302
 O    5.864587   -1.830382    1.115259
 H    5.924041   -2.604751   -0.807824
 H    5.665320    0.346411    1.075611
 H    4.150099    0.164431    0.432179
 H    4.576939    3.749219    0.992231
 H    3.669981    2.331345    1.486266
 H    5.360772    2.520827    1.970356
 H   -4.995805    2.010021    0.155496
 H   -5.569088    0.618170    2.144607
 H   -6.919751    1.600977    1.575925
 H   -8.744979   -1.241043   -0.068401
 H   -8.799474    0.497224    0.229125
 H   -5.928087    1.309425   -2.066427
 H   -7.132607    2.029417   -0.996739
 H   -0.941682   -2.837447   -0.977258
 H    1.458995   -3.111434   -0.732817
 H    3.714855   -3.200466    0.231907
 H    3.581923   -2.339450   -1.322811
 H    6.698781   -0.315567   -0.917397
 H    5.107059   -0.338823   -1.721746
 H    6.504433    3.504893   -0.627099
 H    6.790374    1.996652   -1.472131
 H    7.223952    2.157293    0.237691
 H    3.948890    3.261936   -1.392957
 H    4.413178    1.764099   -2.169996
 H    3.110364    1.778498   -0.970740
 H    1.701219    0.755684    1.086775
 H   -0.728445    1.031708    0.822111
 H   -7.713387   -0.658155    2.120284
 H   -6.532769   -1.381168    1.034963
 H   -6.767363   -0.958716   -1.520354
 H   -8.085135    0.056326   -2.089119
 H   -2.827850   -1.600474   -0.642071
 H   -4.815159   -0.853708   -0.453830
 H    5.800834   -2.698855    1.525866
