81 
6hhg_ligand_dft.xyz
 C   16.714611  -11.464284   -8.947682
 C   16.299066  -10.143834   -8.831908
 C   15.873962   -9.647136   -7.601518
 C   15.871933  -10.478891   -6.486465
 C   16.289920  -11.801576   -6.602006
 C   16.710758  -12.310476   -7.833725
 C   17.187273  -13.715810   -7.936255
 C   18.181530  -14.152661   -7.076039
 C   18.703903  -15.439585   -7.197898
 C   19.764242  -15.894570   -6.286865
 O   20.236792  -15.240308   -5.370716
 N   20.214023  -17.181353   -6.554496
 C   19.742953  -17.991397   -7.563147
 C   18.768969  -17.581709   -8.399794
 C   18.213442  -16.262705   -8.226411
 N   17.229825  -15.860787   -9.049659
 C   16.711465  -14.643909   -8.904782
 C   15.588075  -14.334407   -9.833521
 C   14.429450  -13.684753   -9.403550
 C   13.383967  -13.450042  -10.289671
 C   15.667740  -14.753848  -11.165494
 C   14.630454  -14.500234  -12.050946
 C   13.475381  -13.840733  -11.623942
 C   12.361055  -13.542446  -12.602998
 N   12.083514  -14.659634  -13.491310
 C   11.504634  -15.787327  -12.770673
 C   11.356676  -17.001770  -13.682339
 C   11.237804  -14.265660  -14.611267
 C   11.078429  -15.415728  -15.601011
 C   10.509044  -16.654725  -14.903661
 N   10.409531  -17.808313  -15.787701
 C    9.407708  -17.845343  -16.734952
 O    8.500595  -17.035619  -16.783407
 N    9.537881  -18.927284  -17.601424
 C    8.673965  -19.251800  -18.658704
 C    7.943198  -18.276384  -19.338148
 C    8.600691  -20.590250  -19.054117
 C    7.793430  -20.950960  -20.121191
 C    7.062268  -19.985792  -20.793891
Cl    6.044532  -20.482818  -22.137394
 C    7.127926  -18.635350  -20.414772
 N    6.367002  -17.699260  -21.123492
 C    6.448923  -16.322453  -21.097253
 O    7.218566  -15.696102  -20.396457
 C    5.461543  -15.652460  -22.047722
 C    5.575771  -14.134280  -22.020138
 H   17.041843  -11.847963   -9.909312
 H   16.309215   -9.498895   -9.705452
 H   15.547219   -8.615357   -7.513380
 H   15.542042  -10.100604   -5.523490
 H   16.278200  -12.452736   -5.731925
 H   18.591102  -13.493417   -6.316193
 H   20.207606  -18.968060   -7.629293
 H   18.392668  -18.216726   -9.190782
 H   14.333482  -13.370990   -8.369237
 H   12.482237  -12.957737   -9.933818
 H   16.554539  -15.285927  -11.494569
 H   14.692661  -14.829853  -13.083773
 H   12.658603  -12.690303  -13.227791
 H   11.457265  -13.222090  -12.047975
 H   10.513292  -15.519488  -12.350129
 H   12.156136  -16.034579  -11.927523
 H   10.903045  -17.832610  -13.131528
 H   12.358199  -17.318832  -14.004981
 H   11.700443  -13.407998  -15.111621
 H   10.236923  -13.937762  -14.263597
 H   12.062073  -15.659941  -16.023634
 H   10.415555  -15.120930  -16.419856
 H    9.487747  -16.430274  -14.578801
 H   11.292951  -18.229682  -16.043369
 H   10.113732  -19.688562  -17.273313
 H    7.993832  -17.242028  -19.037163
 H    9.165320  -21.353518  -18.525780
 H    7.725480  -21.987134  -20.433287
 H    5.721732  -18.093181  -21.793520
 H    4.447303  -15.969207  -21.771090
 H    5.636787  -16.035399  -23.061882
 H    4.852764  -13.686237  -22.708114
 H    5.387570  -13.749563  -21.014846
 H    6.579538  -13.814784  -22.311239
 H   20.944482  -17.509869   -5.938225
