74 
6hhh_ligand_dft.xyz
 C   -6.249582    0.230901  -13.889290
 C   -7.638408    0.209406  -13.905750
 C   -8.329445    0.418391  -15.097433
 C   -7.621668    0.644542  -16.273485
 C   -6.229912    0.664493  -16.257355
 C   -5.528536    0.462988  -15.065444
 C   -4.041174    0.451354  -15.067641
 C   -3.376449   -0.380437  -15.953960
 C   -1.985523   -0.471979  -15.926586
 C   -1.286537   -1.362097  -16.864913
 O   -1.822726   -2.040141  -17.727252
 N    0.091712   -1.380421  -16.693084
 C    0.782248   -0.652930  -15.749951
 C    0.148008    0.166856  -14.888456
 C   -1.287256    0.278357  -14.964603
 N   -1.918260    1.109560  -14.117318
 C   -3.243005    1.218624  -14.173241
 C   -3.823398    2.214523  -13.228875
 C   -3.315100    2.301039  -11.928813
 C   -3.819855    3.231067  -11.031566
 C   -4.825224    3.105875  -13.617744
 C   -5.313817    4.050128  -12.721911
 C   -4.829693    4.115887  -11.417069
 C   -5.397053    5.107645  -10.425485
 N   -4.370823    5.718781   -9.597601
 C   -4.938671    6.449849   -8.476497
 C   -3.834312    6.989484   -7.576511
 C   -3.494806    6.592235  -10.367038
 C   -2.384097    7.135827   -9.482882
 N   -2.947784    7.849906   -8.338815
 C   -2.041261    8.650993   -7.608254
 C   -1.797158    8.475553   -6.242707
 C   -0.921518    9.315310   -5.563759
 C   -1.368721    9.695664   -8.256779
 C   -0.479333   10.525372   -7.592237
 C   -0.247917   10.341400   -6.224226
 N    0.630428   11.143375   -5.464065
 C    1.398096   12.198842   -5.875343
 O    1.427316   12.618541   -7.020323
 C    2.255651   12.861193   -4.798205
 C    2.197394   12.316642   -3.372238
 H   -5.714984    0.071416  -12.957701
 H   -8.183830    0.026236  -12.984791
 H   -9.415172    0.403390  -15.108185
 H   -8.151694    0.808834  -17.206951
 H   -5.678906    0.851305  -17.175342
 H   -3.925544   -0.995971  -16.660604
 H    1.857395   -0.787593  -15.755758
 H    0.687098    0.743913  -14.148929
 H   -2.514342    1.630640  -11.633614
 H   -3.421101    3.299463  -10.023772
 H   -5.218407    3.075300  -14.628620
 H   -6.081678    4.747867  -13.046990
 H   -5.997387    5.866938  -10.964272
 H   -6.090395    4.582000   -9.755550
 H   -5.568401    7.294592   -8.816574
 H   -5.572455    5.769984   -7.895751
 H   -4.287151    7.573245   -6.769134
 H   -3.296702    6.134576   -7.126145
 H   -4.059130    7.439001  -10.804028
 H   -3.054897    6.018849  -11.188610
 H   -1.748307    6.297984   -9.145979
 H   -1.759140    7.814804  -10.066281
 H   -2.279660    7.675831   -5.691960
 H   -0.755694    9.154049   -4.500243
 H   -1.566037    9.880513   -9.308459
 H    0.024837   11.325731   -8.115075
 H    0.692682   10.890431   -4.490170
 H    3.282922   12.822793   -5.176238
 H    1.975939   13.920064   -4.810614
 H    2.862735   12.894022   -2.724003
 H    1.190088   12.391491   -2.946187
 H    2.525090   11.271841   -3.319074
 H    0.588399   -1.988137  -17.329690
