80 
6hhi_ligand_xtb.xyz
 C   -7.010577   -1.365690    1.924427
 C   -7.450087   -2.644637    2.213592
 C   -7.297535   -3.659238    1.283549
 C   -6.705794   -3.389925    0.060047
 C   -6.257493   -2.115207   -0.230275
 C   -6.400585   -1.091250    0.703362
 C   -5.953652    0.274329    0.390859
 C   -6.819835    1.347054    0.578673
 C   -6.425262    2.622222    0.202371
 C   -7.326665    3.802971    0.309199
 O   -8.526701    3.716807    0.327510
 N   -6.663882    5.029849    0.395670
 C   -5.517766    5.190756   -0.104721
 C   -4.751693    4.148660   -0.856739
 C   -5.170024    2.785355   -0.393199
 N   -4.332237    1.777140   -0.550369
 C   -4.687537    0.559430   -0.149565
 C   -3.642666   -0.465260   -0.309767
 C   -3.403579   -1.432921    0.662976
 C   -2.410814   -2.376485    0.479831
 C   -2.845582   -0.443591   -1.453020
 C   -1.860945   -1.392111   -1.638770
 C   -1.641220   -2.374886   -0.677463
 C   -0.562017   -3.400326   -0.899444
 N    0.784835   -2.768674   -0.817829
 C    1.107232   -2.311785    0.554045
 C    2.357074   -1.449172    0.523572
 C    1.873346   -3.636566   -1.319988
 C    3.156347   -2.829622   -1.429576
 C    3.556952   -2.197763   -0.084228
 N    4.660534   -1.283035   -0.280844
 C    4.565165   -0.181163   -1.073571
 O    3.538299    0.074299   -1.686467
 C    5.784111    0.657382   -1.157600
 C    6.772072    0.624682   -0.179478
 C    5.918671    1.506456   -2.253230
 C    7.044437    2.300536   -2.374620
 C    8.039609    2.251751   -1.417151
 C    7.911703    1.409977   -0.311193
 N    8.936557    1.383085    0.633160
 C    9.096694    0.528268    1.689813
 O    8.317827   -0.357724    1.966564
 C   10.346731    0.818596    2.494505
 C   10.169563    2.089074    3.327895
 H   -7.125131   -0.575799    2.652532
 H   -7.918059   -2.847753    3.164879
 H   -7.646872   -4.655429    1.507790
 H   -6.600223   -4.174756   -0.674094
 H   -5.813354   -1.901828   -1.192272
 H   -7.806711    1.198245    0.991754
 H   -5.057013    6.163745    0.026219
 H   -3.676272    4.283193   -0.731702
 H   -4.962625    4.248988   -1.927961
 H   -3.987618   -1.443710    1.569292
 H   -2.243321   -3.127553    1.237947
 H   -3.019253    0.320448   -2.193475
 H   -1.273976   -1.378023   -2.547370
 H   -0.666524   -3.843970   -1.892922
 H   -0.616062   -4.195310   -0.153443
 H    0.768765   -1.925042   -1.408003
 H    1.251728   -3.195401    1.180414
 H    0.259824   -1.740756    0.939508
 H    2.602618   -1.127862    1.535422
 H    2.177311   -0.555067   -0.076556
 H    1.595259   -4.030698   -2.299594
 H    1.989115   -4.474329   -0.628243
 H    3.027534   -2.021572   -2.152678
 H    3.961343   -3.471978   -1.785890
 H    3.889470   -2.980208    0.605178
 H    5.536182   -1.478607    0.174641
 H    6.675856    0.021178    0.706968
 H    5.136515    1.529437   -2.995506
 H    7.150450    2.959898   -3.222022
 H    8.919531    2.870318   -1.519955
 H    9.676997    2.052984    0.475443
 H   11.203704    0.923387    1.825929
 H   10.522107   -0.030017    3.155980
 H    9.998793    2.959114    2.696987
 H    9.322764    1.981732    4.001356
 H   11.060830    2.267980    3.923367
