82 
6hhj_ligand_dft.xyz
 C   16.114924  -11.668124   -7.098795
 C   16.156621  -10.280095   -7.195286
 C   16.665731   -9.675856   -8.340198
 C   17.135746  -10.466658   -9.386609
 C   17.092667  -11.851825   -9.291075
 C   16.577118  -12.469289   -8.146513
 C   16.559049  -13.950871   -8.016254
 C   17.149610  -14.535040   -6.907736
 C   17.218385  -15.923157   -6.794897
 C   17.852885  -16.537480   -5.619921
 O   18.322024  -15.928556   -4.670996
 N   17.885112  -17.925347   -5.666495
 C   17.383598  -18.695717   -6.691687
 C   16.797515  -18.139061   -7.770072
 C   16.698183  -16.702601   -7.842669
 N   16.097425  -16.148494   -8.909715
 C   16.003583  -14.824008   -8.993885
 C   15.264070  -14.328571  -10.188512
 C   14.334227  -13.290066  -10.104135
 C   13.631157  -12.881962  -11.231691
 C   15.461964  -14.954192  -11.423528
 C   14.774290  -14.529440  -12.551330
 C   13.851380  -13.484226  -12.469010
 C   13.129101  -13.000525  -13.707905
 N   12.747464  -14.085858  -14.594784
 C   11.706745  -14.923035  -14.010013
 C   11.434887  -16.144876  -14.881908
 C   12.354665  -13.602386  -15.910404
 C   12.109654  -14.765709  -16.867973
 C   11.045010  -15.702298  -16.293340
 N   10.778760  -16.835130  -17.172088
 C    9.566144  -17.137828  -17.777520
 C    8.343541  -16.489530  -17.733212
 C   11.728682  -17.790726  -17.515811
 O   12.896265  -17.841036  -17.165995
 N   11.079045  -18.691622  -18.349313
 C   11.726363  -19.841010  -18.926380
 C    9.758553  -18.311024  -18.521041
 C    8.722013  -18.870324  -19.245718
 C    7.485583  -18.228130  -19.210285
 C    7.293367  -17.056110  -18.467790
 N    6.002229  -16.485027  -18.498677
 C    5.551574  -15.350082  -17.881504
 O    6.243492  -14.633514  -17.176080
 C    4.084737  -14.997537  -18.118749
 C    3.242620  -15.911293  -19.006973
 H   15.707408  -12.138500   -6.207790
 H   15.787773   -9.671952   -6.374662
 H   16.697994   -8.593196   -8.417658
 H   17.540099  -10.002350  -10.281097
 H   17.456754  -12.463953  -10.110619
 H   17.594991  -13.925755   -6.126625
 H   17.493818  -19.766153   -6.564622
 H   16.397996  -18.740213   -8.576013
 H   14.146918  -12.804245   -9.151951
 H   12.897916  -12.083813  -11.144391
 H   16.160543  -15.782329  -11.485958
 H   14.926739  -15.018217  -13.508986
 H   13.800312  -12.336507  -14.268301
 H   12.257935  -12.383603  -13.410034
 H   10.768996  -14.344258  -13.872208
 H   12.034369  -15.244995  -13.017401
 H   10.629440  -16.744418  -14.443703
 H   12.334919  -16.763930  -14.937553
 H   13.158023  -12.969405  -16.302873
 H   11.443174  -12.970985  -15.851066
 H   13.037806  -15.326966  -17.007996
 H   11.784079  -14.385230  -17.842488
 H   10.101372  -15.148318  -16.229141
 H    8.176000  -15.584724  -17.166888
 H   12.762253  -19.837016  -18.583717
 H   11.239178  -20.766191  -18.599824
 H   11.705224  -19.790467  -20.020435
 H    8.859499  -19.777872  -19.824315
 H    6.656157  -18.649545  -19.772621
 H    5.333124  -16.991836  -19.056792
 H    4.089323  -13.978478  -18.520119
 H    3.636750  -14.920204  -17.122289
 H    2.221792  -15.525408  -19.078070
 H    3.636375  -15.966101  -20.028608
 H    3.173596  -16.927263  -18.601015
 H   18.319596  -18.364359   -4.866697
