57 
6hjk_ligand_dft.xyz
 C   -2.936804    0.631561   -0.170383
 C   -5.366312    0.136119    0.076199
 C   -7.708275    2.962008    2.038352
 C   -7.583613    0.261308   -0.219840
 C   -3.589862   -1.526930    0.651587
 F   10.035688    0.287417   -0.202574
 C    8.806323   -0.198984   -0.035440
 C    8.653158   -1.538776    0.288182
 C    7.373741   -2.040224    0.461483
 C    6.251644   -1.217619    0.308430
 C    4.907253   -1.839339    0.518311
 C    3.678084   -1.038389    0.248800
 C    2.474090   -1.553778    0.497913
 C    1.242106   -0.754802    0.219805
 N    0.085009   -1.425294    0.522190
 C   -1.246408   -0.987980    0.391163
 C   -1.595955    0.286332   -0.068915
 C   -3.952684   -0.262363    0.177001
 N   -5.740078    1.357992    0.413553
 N   -7.078730    1.432652    0.231491
 C   -7.810776    2.655929    0.545648
 C   -7.310138    3.805438   -0.325709
 N   -8.870906   -0.002042   -0.501932
 C   -9.030002   -1.231761   -0.961215
 N   -8.097534   -2.171396   -1.193971
 C   -6.825885   -1.880055   -0.910790
 N   -5.899164   -2.840722   -1.171142
 C   -6.501515   -0.621831   -0.350765
 C   -2.254442   -1.888081    0.751230
 O    1.290745    0.377225   -0.232459
 O    4.818805   -2.994477    0.900988
 C    6.436236    0.128153   -0.015875
 C    7.712951    0.649744   -0.188934
 C    7.927633    2.100378   -0.535462
 F    8.658980    2.725914    0.397635
 F    6.759709    2.755119   -0.637004
 F    8.567576    2.236440   -1.705485
 H   -3.208060    1.619480   -0.528090
 H   -8.091625    2.126815    2.631892
 H   -6.665739    3.139273    2.318943
 H   -8.292483    3.855806    2.278592
 H   -4.357183   -2.228279    0.967267
 H    9.533457   -2.161531    0.398819
 H    7.218055   -3.082065    0.719371
 H    3.732668   -0.034705   -0.159317
 H    2.400870   -2.561175    0.902904
 H    0.193136   -2.359449    0.889697
 H   -0.821374    0.987024   -0.346129
 H   -8.847797    2.422029    0.287897
 H   -6.255829    4.009601   -0.116529
 H   -7.414286    3.561612   -1.387083
 H   -7.888856    4.710959   -0.118775
 H  -10.049420   -1.526444   -1.200023
 H   -6.223483   -3.611403   -1.736938
 H   -4.931183   -2.574244   -1.266023
 H   -1.993971   -2.874490    1.128621
 H    5.595689    0.800505   -0.132450
