60 
6hk3_ligand_dft.xyz
 C    7.160382   13.621776  -38.977590
 N    6.005203   14.389520  -36.984902
 C    8.388052   13.924748  -36.954760
 C    7.101800   13.910890  -36.140534
 C    3.925263   13.309996  -35.555201
 C    4.313243   12.866618  -34.292454
 C    2.989720   10.861395  -34.606045
 C    2.599638   11.332675  -35.864579
 C    3.066412   12.550162  -36.343832
 C    2.507111    9.564878  -34.078903
 C    2.080159    8.504414  -34.888862
 C    1.636764    7.194990  -33.070093
 C    2.096612    8.251271  -32.232925
 C    2.138781    8.124564  -30.736945
 C    2.781028    9.503164  -28.767208
 C    3.284936   10.783545  -28.454852
 C    3.513213   11.142171  -27.133980
 C    3.243536   10.227558  -26.113503
 C    9.486941   13.034148  -38.894813
 C    2.750443    8.968294  -26.417310
 C    2.516788    8.600321  -27.742735
 C    5.846584   13.601149  -38.208711
 C    3.943902   12.908276  -29.307995
 C    3.844219   11.648760  -33.823892
 N    8.244108   13.111571  -38.152213
 N    1.652534    7.348284  -34.407083
 N    2.513222    9.392959  -32.755934
 N    2.584835    9.248400  -30.130272
 N    1.180094    6.029409  -32.582016
 O    3.689850   15.319695  -37.218963
 O    4.999438   15.646436  -35.064394
 O    1.798831    7.089944  -30.161843
 O    3.511198   11.585123  -29.534972
 S    4.600002   14.829810  -36.198058
 H    7.060304   12.983897  -39.862539
 H    7.358795   14.654544  -39.323367
 H    9.196656   13.511065  -36.342321
 H    8.648195   14.972751  -37.198929
 H    7.194065   14.577869  -35.282110
 H    6.905193   12.885956  -35.787028
 H    4.964100   13.484116  -33.682365
 H    1.900092   10.764388  -36.469650
 H    2.743619   12.928026  -37.308115
 H    2.106253    8.584111  -35.973193
 H    3.899723   12.124608  -26.887908
 H    3.424192   10.513785  -25.082187
 H   10.268957   12.604971  -38.260227
 H    9.357032   12.380178  -39.763071
 H    9.836538   14.020566  -39.254528
 H    2.540512    8.257074  -25.624949
 H    2.130479    7.621884  -27.993323
 H    5.053514   14.049376  -38.808992
 H    5.579719   12.558804  -37.971012
 H    4.017017   13.374265  -30.291301
 H    3.222114   13.462977  -28.696250
 H    4.926598   12.928359  -28.820713
 H    4.132852   11.295775  -32.839679
 H    2.811750   10.011611  -30.759297
 H    0.908783    5.310837  -33.233257
 H    1.210110    5.878290  -31.581312
