55 
6hk7_ligand_xtb.xyz
 N   -6.838356   -0.939251    0.986248
 C   -6.090498    0.278299    1.202437
 N    3.449537    3.671560    0.005219
 C   -4.836183   -2.086198    0.195948
 N    4.442198   -0.941274    0.635030
 C   -1.936394    1.914131   -0.455422
 C   -1.075205   -0.287159   -0.948997
 C    1.810640    1.952756   -0.143811
 C    2.211492    3.294854   -0.206117
 C    3.979384    1.362706    0.318079
 C    4.977562    0.288204    0.589178
 C    5.224968   -2.138906    0.794725
 C    5.369282   -2.893637   -0.543544
 C   -4.608559   -0.046210    1.439062
 C    7.270005   -4.237296   -0.112464
 C   -8.244110   -0.879132    1.291271
 C   -6.270132   -1.999973    0.523634
 N   -4.092609   -0.869957    0.377336
 S   -3.773054   -0.009098   -1.097171
 O   -4.718132    1.071860   -1.173017
 O   -3.805971   -1.017957   -2.110176
 C   -2.134440    0.592710   -0.811983
 C   -0.651052    2.367383   -0.228507
 C    0.439193    1.502810   -0.365344
 C    0.206604    0.170388   -0.727052
 C    4.371138    2.738471    0.290266
 N    2.731488    1.013175    0.102375
 O    6.165352    0.523710    0.768472
 N    5.618775    3.119509    0.534078
 O    5.889616   -4.185388   -0.396734
 H   -6.520068    0.818899    2.047381
 H   -6.147751    0.905822    0.302886
 H   -4.716049   -2.370682   -0.861288
 H   -4.391074   -2.902006    0.785620
 H    3.455229   -1.014611    0.433385
 H   -2.786615    2.573352   -0.377692
 H   -1.271638   -1.304452   -1.246142
 H    1.523892    4.087779   -0.463792
 H    4.747043   -2.798451    1.524636
 H    6.204605   -1.832222    1.167262
 H    5.985660   -2.296676   -1.232080
 H    4.377704   -3.031083   -0.986828
 H   -4.477808   -0.573827    2.389326
 H   -4.030358    0.876574    1.463898
 H    7.843948   -3.653756   -0.840663
 H    7.494335   -3.872012    0.894525
 H    7.553719   -5.285067   -0.184176
 H   -8.706729   -0.070151    0.724024
 H   -8.738008   -1.815525    1.041470
 H   -8.386443   -0.673540    2.353585
 H   -6.866717   -2.893184    0.392070
 H   -0.497697    3.393517    0.064515
 H    1.052074   -0.488698   -0.840868
 H    5.856110    4.095993    0.494713
 H    6.305191    2.390222    0.710438
