15 
6hke_ligand_dft.xyz
 C   -1.253915   -0.654939   -0.113764
 O   -0.669062   -1.554614   -0.660895
 O   -2.546939   -0.736064    0.259529
 C   -0.672988    0.705656    0.262209
 O   -1.534824    1.749126   -0.133835
 C    0.669028    0.920334   -0.414459
 C    1.739723    0.041448    0.183083
 O    2.780640   -0.113132   -0.650651
 O    1.708777   -0.442515    1.289702
 H   -2.864486   -1.614143   -0.005141
 H   -0.523544    0.695308    1.352203
 H   -2.400185    1.579495    0.259706
 H    0.963961    1.965318   -0.267001
 H    0.600448    0.746057   -1.490425
 H    3.423986   -0.669429   -0.182549
