53 
6hkn_ligand_dft.xyz
 C   -3.212669    0.626623    1.049341
 C   -4.418810    1.184680    0.657259
 C   -5.156435    0.506666   -0.304118
 C   -7.483581    0.702225   -0.122416
 C   -3.498452   -1.233432   -0.482407
 C    1.770787   -1.029845    0.913430
 C   -0.301323   -1.026179   -1.136264
 C    3.061088    0.734667   -0.309236
 C    6.710985    1.377234    0.044888
 O   -1.281364   -1.111643    2.273880
 C   -1.451788   -1.097932    1.063649
 C   -2.726305   -0.554349    0.484553
 O   -6.351839    1.065357   -0.762309
 F   -7.721279   -0.614575   -0.213812
 F   -8.491432    1.351566   -0.688748
 F   -7.455759    1.006817    1.180743
 C   -4.726367   -0.677800   -0.870223
 N   -3.066368   -2.402389   -1.089451
 N   -0.515597   -1.617911    0.188195
 C    0.716269   -2.128983    0.784942
 C    2.039311   -0.371918   -0.455934
 C    0.719761    0.110342   -1.068067
 N    2.610823    1.966370   -0.212585
 C    3.527836    2.953298   -0.036745
 N    4.824788    2.838260    0.051411
 C    5.320186    1.567272   -0.044547
 C    7.245961    0.108818   -0.042352
 O    8.590878    0.014439    0.055018
 C    9.193304   -1.260073   -0.023828
 C    6.394373   -1.011467   -0.225705
 C    5.036490   -0.835101   -0.317299
 C    4.459298    0.452922   -0.229712
 H   -2.618769    1.101970    1.822997
 H   -4.791599    2.108127    1.082782
 H    2.694287   -1.447437    1.330378
 H    1.408303   -0.270843    1.616198
 H   -1.247780   -0.664256   -1.535469
 H    0.048192   -1.822416   -1.805965
 H    7.355411    2.237188    0.184729
 H   -5.342581   -1.166545   -1.617460
 H   -2.316435   -2.891888   -0.620418
 H   -3.795761   -3.010954   -1.430765
 H    0.473928   -2.547253    1.761520
 H    1.087107   -2.934729    0.137514
 H    2.454028   -1.141395   -1.123151
 H    0.315069    0.929610   -0.465501
 H    0.892574    0.511335   -2.072795
 H    3.116215    3.957637    0.038160
 H    8.854263   -1.917789    0.786151
 H    8.998155   -1.739918   -0.990944
 H   10.264835   -1.088117    0.080168
 H    6.805358   -2.011611   -0.296182
 H    4.404986   -1.706536   -0.456554
