55 
6hky_ligand_dft.xyz
 C    2.662797   -0.616284   -0.441673
 C    5.088364   -1.757284    0.384452
 C    4.937016   -1.242296   -0.897382
 C   -2.534014   -0.140149   -1.273805
 C   -1.502643   -2.272045    2.857934
 C   -3.156259   -1.528550   -1.477632
 C   -4.492355   -1.379855   -2.194635
 C   -1.608527   -0.666673    1.046988
 C   -2.441826    0.138728    1.840725
 C   -2.784450   -0.255436    3.127823
 C    1.838602    4.197469    0.424680
 C   -0.966603    4.817634   -0.172763
 C   -1.188877    2.396160   -0.200506
 C   -1.283100   -0.185037   -0.375361
 C    1.362617   -0.042680   -0.916747
 C    2.830703   -1.137799    0.839086
 C    4.018052   -1.697440    1.270050
 C    3.746850   -0.668980   -1.321128
 C   -2.315085   -1.462906    3.641895
 C   -1.149317   -1.878349    1.568179
 F    5.957663   -1.291336   -1.743830
 F    1.784702   -1.058413    1.702801
 N   -0.384578    3.494007    0.064797
 N   -0.585443    1.129311   -0.344385
 N    0.747662    0.900283    0.078374
 N   -5.143433   -2.731006   -2.410253
 O   -2.393562    2.502285   -0.281301
 O    0.953615    3.401149   -0.392883
 S    0.008299   -1.243741   -1.227377
 H    6.036442   -2.192522    0.679115
 H   -2.263035    0.302503   -2.237431
 H   -3.262998    0.519439   -0.801478
 H   -1.128747   -3.212661    3.249073
 H   -2.487785   -2.167759   -2.069024
 H   -3.307410   -2.007950   -0.502332
 H   -5.203084   -0.787954   -1.613912
 H   -4.385170   -0.930897   -3.184605
 H   -2.826106    1.078166    1.457223
 H   -3.421148    0.383256    3.731412
 H    2.842304    3.896124    0.123230
 H    1.702217    5.258028    0.208923
 H    1.665337    3.993918    1.484991
 H   -0.791700    5.125673   -1.207581
 H   -2.034655    4.749219    0.019763
 H   -0.529201    5.534878    0.521928
 H    1.515210    0.553570   -1.817872
 H    4.098813   -2.080516    2.280863
 H    3.676047   -0.279696   -2.331731
 H   -2.581057   -1.767132    4.648960
 H   -0.501388   -2.518371    0.981508
 H    0.776764    0.482565    1.023764
 H    1.219337    1.833087    0.044002
 H   -5.306915   -3.214261   -1.519856
 H   -6.050797   -2.643640   -2.882151
 H   -4.556896   -3.344460   -2.986824
