39 
6hlx_ligand_xtb.xyz
 O    3.057167   -1.584118   -1.178184
 C    3.029590   -0.543525   -0.549441
 C    3.857703    0.695055   -0.813446
 C    3.576496    1.620725    0.370030
 C    2.306765    1.048170    1.020814
 C    1.011077    1.768476    0.633261
 O    0.833907    1.818425   -0.673236
 N    2.226150   -0.303731    0.507888
 C    1.147122   -1.187843    0.891905
 C    0.212406   -1.509382   -0.299851
 O    0.576727   -2.725318   -0.900690
 C   -1.255028   -1.667243    0.133513
 O   -1.347279   -2.435969    1.316575
 C   -1.974276   -0.330798    0.399855
 O   -3.153826   -0.578359    1.133975
 C   -2.309882    0.415811   -0.923225
 O   -1.836174    1.744979   -0.894243
 C   -3.824381    0.458906   -1.192757
 O   -4.446302    1.329548   -0.285786
 O    0.212384    2.157868    1.444680
 H    4.910242    0.441482   -0.925749
 H    3.510271    1.121793   -1.755747
 H    4.396816    1.588695    1.086320
 H    3.430446    2.653722    0.060991
 H    2.362937    1.040693    2.115228
 H   -0.105501    2.054685   -0.882051
 H    1.569868   -2.131812    1.254086
 H    0.591560   -0.721647    1.705651
 H    0.277985   -0.687173   -1.028925
 H    1.510088   -2.636024   -1.178389
 H   -1.778954   -2.191685   -0.681296
 H   -0.886317   -3.265480    1.148182
 H   -1.319809    0.319824    1.000350
 H   -2.955359   -1.315959    1.727562
 H   -1.801293   -0.075697   -1.757490
 H   -2.513331    2.262463   -0.425544
 H   -4.245661   -0.550192   -1.146385
 H   -3.994540    0.878267   -2.187237
 H   -4.380874    0.913620    0.586559
