39 
6hlx_ligand_dft.xyz
 O    2.956443   -1.703870   -1.186446
 C    2.982892   -0.629427   -0.597029
 C    3.807986    0.587065   -0.968831
 C    3.623182    1.555469    0.205068
 C    2.357413    1.051970    0.942877
 C    1.090517    1.852121    0.645850
 O    0.714314    1.752178   -0.629026
 N    2.220833   -0.319093    0.483523
 C    1.128085   -1.172796    0.923154
 C    0.180024   -1.578581   -0.234258
 O    0.474863   -2.879002   -0.692154
 C   -1.284528   -1.617572    0.193622
 O   -1.427376   -2.348583    1.402651
 C   -1.904338   -0.236512    0.438757
 O   -3.091355   -0.384697    1.203404
 C   -2.228848    0.477980   -0.895147
 O   -1.931820    1.866428   -0.842264
 C   -3.698617    0.331354   -1.297389
 O   -4.495134    1.155589   -0.470250
 O    0.482479    2.463235    1.493372
 H    4.846699    0.309586   -1.157796
 H    3.392141    0.984658   -1.900304
 H    4.473295    1.498154    0.889484
 H    3.520344    2.595370   -0.110864
 H    2.482534    1.085431    2.028560
 H   -0.212823    2.097040   -0.704945
 H    1.528632   -2.089805    1.366358
 H    0.596017   -0.641727    1.716208
 H    0.296099   -0.842436   -1.042329
 H    1.407010   -2.837767   -0.977258
 H   -1.844255   -2.120408   -0.610640
 H   -1.080564   -3.234963    1.235089
 H   -1.203153    0.398689    0.996196
 H   -2.938015   -1.134762    1.798043
 H   -1.589769    0.069638   -1.684535
 H   -2.706051    2.287139   -0.431513
 H   -4.009283   -0.720301   -1.255316
 H   -3.828448    0.695029   -2.319702
 H   -4.458156    0.738455    0.406257
