37 
6hm6_ligand_xtb.xyz
 N   -2.807631   -2.052214   -0.023884
 C   -3.027762    0.679684   -0.636562
 C   -1.960662    0.159700    0.092941
 C   -1.172970    1.035432    0.836644
 C   -1.435267    2.391288    0.825287
 C   -1.726998   -1.291518    0.065396
 C   -1.467436   -4.011500   -0.009776
 C    1.931147   -1.501743   -0.005292
 C    2.476535    0.942373   -0.376787
 C    4.754739    1.631011   -0.191075
 C   -2.752644    4.389581    0.081141
 C   -2.486083    2.914958    0.079998
 C   -3.281509    2.037048   -0.645201
 C   -0.429165   -1.855424    0.090595
 C   -0.316607   -3.239762    0.055611
 C   -2.689651   -3.366913   -0.058790
 O    0.622178   -0.997109    0.117861
 C    2.898044   -0.348001   -0.077221
 N    4.167996   -0.654075    0.153491
 C    5.068046    0.310916    0.093780
 C    3.426853    1.948247   -0.429380
 H   -3.650095   -0.000228   -1.197380
 H   -0.364040    0.655195    1.440161
 H   -0.815759    3.058840    1.408534
 H   -1.403317   -5.088272   -0.030781
 H    2.031733   -2.106279   -0.919805
 H    2.200874   -2.133795    0.851792
 H    1.432041    1.142323   -0.553399
 H    5.525247    2.385372   -0.223545
 H   -3.052800    4.717343    1.076301
 H   -1.854146    4.941246   -0.192193
 H   -3.544863    4.643195   -0.618688
 H   -4.109612    2.422077   -1.223652
 H    0.650040   -3.719787    0.078016
 H   -3.618366   -3.916913   -0.127825
 H    6.087558    0.004713    0.288985
 H    3.133865    2.963596   -0.654501
