51 
6hmx_ligand_xtb.xyz
 C  -40.893399   39.871606   -6.764951
 O  -40.382335   40.219566   -5.498108
 C  -40.353795   39.277821   -4.532485
 C  -40.904591   38.020899   -4.632923
 C  -40.841670   37.103685   -3.564491
 N  -41.421289   35.902283   -3.741964
 C  -41.371553   35.047858   -2.751022
 C  -40.746683   35.283561   -1.528906
 C  -40.119644   36.501714   -1.312399
 N  -39.491331   36.797391   -0.136900
 C  -39.174835   35.887056    0.860116
 N  -39.428117   36.166565    2.167402
 N  -39.019671   35.183833    2.973632
 C  -38.507237   34.253786    2.189915
 C  -37.943259   32.991347    2.732612
 C  -38.567750   34.644385    0.831293
 C  -38.044031   33.891021   -0.341052
 C  -40.179351   37.471162   -2.358287
 C  -39.620975   38.758011   -2.285596
 C  -39.712225   39.636542   -3.325939
 S  -38.909142   41.242848   -3.091244
 O  -38.100738   41.091896   -1.902115
 O  -38.223983   41.632380   -4.292269
 C  -40.219051   42.490963   -2.689132
 C  -40.948930   41.960292   -1.471927
 C  -39.424917   43.748676   -2.385093
 C  -41.111146   42.660816   -3.899367
 H  -40.740765   40.749055   -7.390516
 H  -40.356025   39.020986   -7.192661
 H  -41.962140   39.639453   -6.714333
 H  -41.405435   37.682685   -5.524563
 H  -41.864448   34.100343   -2.928291
 H  -40.761386   34.533396   -0.756372
 H  -39.187218   37.749789    0.000112
 H  -39.838727   37.000561    2.554670
 H  -38.040884   32.988577    3.813828
 H  -38.470552   32.132267    2.320270
 H  -36.890645   32.901740    2.466923
 H  -37.058988   33.488411   -0.110931
 H  -38.695447   33.053496   -0.593215
 H  -37.965663   34.539677   -1.210274
 H  -39.075426   39.103711   -1.420367
 H  -40.230985   41.758697   -0.680122
 H  -41.673918   42.688410   -1.111513
 H  -41.473498   41.036243   -1.710497
 H  -38.721541   43.551424   -1.579370
 H  -38.859294   44.042782   -3.266125
 H  -40.083776   44.565172   -2.093612
 H  -41.731403   43.549721   -3.793447
 H  -40.493430   42.762920   -4.788069
 H  -41.761758   41.799522   -4.028324
