51 
6hmx_ligand_dft.xyz
 C  -41.055693   39.852532   -6.760128
 O  -40.401358   40.176395   -5.551023
 C  -40.400620   39.267234   -4.561373
 C  -41.033805   38.046890   -4.625905
 C  -40.991009   37.131058   -3.546168
 N  -41.664385   35.958258   -3.695931
 C  -41.610322   35.122075   -2.681319
 C  -40.907522   35.330935   -1.482487
 C  -40.206262   36.509631   -1.315669
 N  -39.491841   36.788282   -0.163130
 C  -39.271966   35.809741    0.819057
 N  -39.985815   35.802989    1.974121
 N  -39.644964   34.796287    2.787341
 C  -38.689138   34.140368    2.133489
 C  -38.042060   32.930812    2.727078
 C  -38.411022   34.734261    0.876642
 C  -37.426987   34.295249   -0.158927
 C  -40.262117   37.471037   -2.375145
 C  -39.638000   38.735548   -2.319230
 C  -39.702028   39.618406   -3.366702
 S  -38.811333   41.168128   -3.144909
 O  -37.988194   40.974324   -1.945393
 O  -38.172667   41.547750   -4.400430
 C  -40.070683   42.442502   -2.702427
 C  -40.769830   42.007636   -1.413969
 C  -39.257193   43.724333   -2.481979
 C  -41.068401   42.624542   -3.844691
 H  -40.905063   40.710842   -7.414374
 H  -40.616873   38.959349   -7.219605
 H  -42.129315   39.692899   -6.602001
 H  -41.588152   37.731826   -5.500841
 H  -42.155580   34.187689   -2.806543
 H  -40.903344   34.566852   -0.713876
 H  -38.776525   37.496598   -0.237700
 H  -40.703071   36.455968    2.246859
 H  -38.478918   32.717899    3.705394
 H  -38.179254   32.052361    2.086133
 H  -36.963498   33.079130    2.852653
 H  -36.400593   34.322049    0.224326
 H  -37.626509   33.269051   -0.487422
 H  -37.473973   34.940730   -1.041307
 H  -39.087618   39.062367   -1.443392
 H  -40.051040   41.868090   -0.602487
 H  -41.479570   42.788267   -1.119238
 H  -41.332152   41.078582   -1.553278
 H  -38.519300   43.592397   -1.686289
 H  -38.738543   44.022771   -3.397028
 H  -39.943499   44.527153   -2.192190
 H  -41.715493   43.475216   -3.603523
 H  -40.558248   42.827508   -4.789018
 H  -41.703655   41.744203   -3.974046
