25 
6hni_ligand_dft.xyz
 N    1.343273   -1.153426   -0.997784
 C    1.760320    0.169527   -0.422841
 C    3.242099    0.020173   -0.101748
 O    3.800630    1.183953    0.168236
 C    0.920389    0.471512    0.841017
 C   -0.554114    0.322108    0.558305
 C   -1.263308    1.322193   -0.113361
 C   -1.230819   -0.857947    0.900576
 C   -2.603357    1.156661   -0.432728
 C   -2.569250   -1.039878    0.579347
 C   -3.264116   -0.029339   -0.091096
 O   -4.558100   -0.262045   -0.373772
 O    3.777113   -1.063373   -0.069916
 H    1.455859   -1.196678   -2.013843
 H    1.959103   -1.877167   -0.590920
 H    0.351471   -1.332980   -0.764228
 H    1.593782    0.936347   -1.181553
 H    4.732285    1.046018    0.415772
 H    1.177205    1.486508    1.156839
 H    1.231379   -0.205135    1.645652
 H   -0.770176    2.255320   -0.375816
 H   -0.717225   -1.633273    1.467677
 H   -3.139879    1.953618   -0.940977
 H   -3.097905   -1.944563    0.858476
 H   -4.963011    0.507619   -0.793809
