24 
6hoq_ligand_xtb.xyz
 C    2.651543   -0.856709    0.016823
 C    1.899593   -2.020397    0.044792
 C    0.520526   -1.956437    0.046185
 C    1.994604    0.391156   -0.010193
 C    0.618241    0.446523   -0.010247
 C   -0.144083   -0.729864    0.018090
 C    2.275557    2.761591   -0.053142
 C   -1.591612   -0.717647    0.015145
 C   -2.389115    0.360207   -0.006989
 C   -3.863392    0.358703    0.013083
 O   -4.500424    1.364186    0.191475
 O   -4.494131   -0.817278   -0.180836
 O    4.000485   -0.918039    0.015881
 O    2.840622    1.472884   -0.034972
 H    2.416684   -2.965837    0.065631
 H   -0.049230   -2.873431    0.069263
 H    0.116288    1.398725   -0.031312
 H    1.665598    2.916712   -0.948011
 H    1.670486    2.943863    0.839893
 H    3.117722    3.451407   -0.066064
 H   -2.025997   -1.713124    0.047602
 H   -1.983891    1.360389   -0.001651
 H   -3.877279   -1.541422   -0.346034
 H    4.346030   -0.014063   -0.002993
