26 
6hor_ligand_dft.xyz
 C    3.858761    0.389092    0.000039
 C    4.570372   -0.952291   -0.000277
 C   -2.296178    2.765274   -0.000076
 O   -2.875097    1.479973   -0.000154
 C   -2.042852    0.414058   -0.000088
 C   -2.681101   -0.847900    0.000116
 O   -4.034899   -0.847262    0.000192
 C   -1.912717   -2.001775    0.000143
 C   -0.521205   -1.926649    0.000021
 C    0.124150   -0.693052   -0.000099
 C   -0.659966    0.476753   -0.000203
 C    1.588119   -0.657936   -0.000162
 C    2.379556    0.425958    0.000020
 O    4.489283    1.431693    0.000503
 H    5.646556   -0.775088   -0.000388
 H    4.299754   -1.539454    0.884117
 H    4.299563   -1.539207   -0.884786
 H   -1.682377    2.930021    0.895002
 H   -1.682617    2.930252   -0.895277
 H   -3.129766    3.467994    0.000117
 H   -4.346308   -1.760461    0.000365
 H   -2.405158   -2.971665    0.000248
 H    0.061906   -2.843190    0.000062
 H   -0.170032    1.442679   -0.000397
 H    2.058059   -1.640937   -0.000265
 H    1.974491    1.434625    0.000274
