19 
6hou_ligand_dft.xyz
 C   -1.443722   -0.370166    0.000101
 C   -0.467151    0.638998   -0.000263
 C    0.876899    0.314069   -0.000216
 C    1.255353   -1.051069   -0.000092
 C    0.284097   -2.044225    0.000307
 O   -3.291789    1.134343   -0.000356
 C   -1.067382   -1.706547    0.000401
 C   -2.870917   -0.002853    0.000019
 C    1.573736    2.568855    0.000657
 O    1.900649    1.196227   -0.000434
 O    2.581832   -1.309826   -0.000332
 H   -0.806650    1.668608   -0.000677
 H    0.589163   -3.088236    0.000429
 H   -1.822543   -2.488252    0.000855
 H   -3.572100   -0.865645    0.000258
 H    1.001210    2.845180   -0.893849
 H    1.000447    2.843573    0.895164
 H    2.524665    3.102079    0.001527
 H    2.714787   -2.265625   -0.000211
