24 
6hov_ligand_xtb.xyz
 C    2.653506   -0.854197    0.009688
 C    1.904497   -2.020109    0.020092
 C    0.525301   -1.959811    0.019038
 C    1.993270    0.392154   -0.003208
 C    0.616808    0.443712   -0.004712
 C   -0.142661   -0.734768    0.007078
 C    2.267601    2.763290   -0.031783
 C   -1.590241   -0.725271    0.006685
 C   -2.388100    0.352590   -0.007209
 C   -3.862180    0.359458    0.007323
 O   -4.501259   -0.823798   -0.087469
 O   -4.492849    1.380758    0.098534
 O    4.002590   -0.911702    0.012209
 O    2.836312    1.476290   -0.013393
 H    2.424050   -2.964294    0.029268
 H   -0.041864   -2.878628    0.027733
 H    0.112615    1.394825   -0.013241
 H    1.659145    2.917124   -0.927994
 H    1.659988    2.943395    0.859924
 H    3.107635    3.455772   -0.042308
 H   -2.021717   -1.722291    0.027494
 H   -1.980686    1.351989   -0.008757
 H   -3.889860   -1.565924   -0.174121
 H    4.345537   -0.006634    0.005005
