34 
6hq3_ligand_dft.xyz
 P    3.680771    0.779971   -0.116833
 O    5.055898    0.741663   -0.613202
 O    2.978255    2.229660   -0.076646
 O    3.466787    0.284800    1.388637
 C    2.174277   -0.041233    1.937841
 C    1.535440   -0.994384    0.949181
 O    0.213472   -1.373746    1.257596
 C    1.391905   -0.309392   -0.400187
 O    2.667127   -0.125032   -1.007464
 C    0.488781   -1.288720   -1.133070
 O    1.205586   -2.405523   -1.599734
 C   -0.406286   -1.780869    0.039555
 N   -1.759708   -1.295787    0.019685
 C   -2.891764   -2.049263    0.260037
 N   -3.996314   -1.361142    0.283817
 C   -3.575609   -0.063224    0.059904
 C   -4.271472    1.157575   -0.030467
 N   -5.611575    1.229093    0.088723
 N   -3.577682    2.283289   -0.253308
 C   -2.249908    2.192545   -0.387914
 N   -1.477147    1.110352   -0.328330
 C   -2.197593    0.006752   -0.097232
 H    3.350711    2.811497   -0.752716
 H    2.366347   -0.493659    2.910686
 H    1.576860    0.867580    2.063150
 H    2.183808   -1.875452    0.838549
 H    0.867902    0.645928   -0.292291
 H   -0.103705   -0.819504   -1.926442
 H    2.020087   -2.075407   -2.005306
 H   -0.455750   -2.873570   -0.012640
 H   -2.817342   -3.119575    0.404985
 H   -6.051184    2.135068    0.098038
 H   -6.139408    0.409976    0.341799
 H   -1.736532    3.133623   -0.568810
