36 
6hqy_ligand_xtb.xyz
 C   -4.833216   -1.521596   -1.668912
 O   -4.476524   -1.329487   -0.320836
 C   -3.509510   -0.423908   -0.024185
 C   -3.184091   -0.301148    1.328332
 C   -2.211846    0.585513    1.735725
 C   -1.543413    1.380000    0.811042
 C   -0.471482    2.347706    1.254747
 N    0.680286    2.303499    0.390677
 C    1.179774    3.332138   -0.349595
 C    2.263900    2.924874   -1.072783
 C    2.458665    1.552447   -0.778294
 C    3.375405    0.587891   -1.203350
 C    3.259503   -0.693495   -0.720012
 C    2.254702   -1.012143    0.200390
 C    2.262526   -2.396614    0.904894
 O    2.248688   -2.537003    2.099959
 N    1.858882   -3.072029   -0.124105
 O    2.226474   -3.454842   -1.214023
 C    1.309282   -0.099390    0.629206
 C    1.434379    1.193314    0.142574
 C   -1.872487    1.260175   -0.530157
 C   -2.841817    0.367722   -0.953104
 H   -5.240772   -0.606781   -2.111234
 H   -3.982227   -1.867357   -2.264056
 H   -5.603374   -2.291065   -1.662171
 H   -3.705888   -0.921430    2.039187
 H   -1.967599    0.661773    2.785449
 H   -0.166921    2.111668    2.281119
 H   -0.860063    3.371517    1.242232
 H    0.723020    4.303282   -0.306160
 H    2.853637    3.526614   -1.734347
 H    4.155958    0.844261   -1.902408
 H    3.941033   -1.464997   -1.046100
 H    0.534844   -0.384283    1.322834
 H   -1.361495    1.866594   -1.264457
 H   -3.065065    0.299649   -2.005804
