36 
6hqy_ligand_dft.xyz
 C   -4.877119   -1.923091   -1.859357
 O   -4.568481   -1.839025   -0.485972
 C   -3.674134   -0.900849   -0.089556
 C   -3.378232   -0.881974    1.277168
 C   -2.470040    0.035940    1.777287
 C   -1.843435    0.960065    0.937234
 C   -0.876490    1.976465    1.509955
 N    0.215222    2.301662    0.613861
 C    0.422280    3.503540   -0.017109
 C    1.517194    3.437862   -0.834772
 C    2.033582    2.110795   -0.718132
 C    3.119465    1.426985   -1.288963
 C    3.334995    0.105879   -0.954758
 C    2.475239   -0.564398   -0.048142
 C    2.691515   -1.965874    0.327742
 O    2.012595   -2.632998    1.062672
 N    3.930195   -2.602654   -0.347540
 O    4.209764   -3.638723    0.182596
 C    1.389153    0.091877    0.531589
 C    1.190075    1.422398    0.192594
 C   -2.142515    0.931222   -0.420358
 C   -3.048602    0.010867   -0.941794
 H   -5.331459   -0.994270   -2.227824
 H   -3.986649   -2.153288   -2.458113
 H   -5.595912   -2.737341   -1.956334
 H   -3.862043   -1.606211    1.923717
 H   -2.240045    0.028671    2.840302
 H   -0.462082    1.606768    2.455502
 H   -1.390150    2.917043    1.737151
 H   -0.244828    4.332653    0.178117
 H    1.909627    4.241557   -1.440507
 H    3.779656    1.931201   -1.987871
 H    4.164485   -0.435230   -1.393525
 H    0.732783   -0.444542    1.209036
 H   -1.650559    1.626925   -1.095240
 H   -3.249359    0.012722   -2.006791
