59 
6hro_ligand_dft.xyz
 C   -1.136885    3.150216    0.279806
 C   -3.057357    3.416464   -0.988056
 C   -3.625869   -2.015915   -1.097346
 C   -2.423243   -1.113589   -1.397775
 C   -2.519488    0.203762   -0.651882
 C    3.220685   -0.750419    0.079912
 C    4.985366    0.857746    0.583832
 C    2.070087   -3.832342   -0.205198
 C    1.366869   -2.570359    0.193126
 C    1.871681   -1.261881    0.322875
 C    0.749204   -0.540577    0.772638
 C    0.424176    0.897503    0.787691
 C    0.626411    1.672902   -0.355668
 C   -0.139938    2.807223   -0.623723
 C   -1.214365    2.532146    1.523722
 C   -0.403737    1.429308    1.796824
 C   -3.921635    2.292555   -0.360241
 C   -5.002761    0.087438   -0.763751
 C   -4.904671   -1.258295   -1.471929
 C   -3.697935   -2.485467    0.372603
 C    3.719887    0.336149    0.817379
 C    5.787935    0.282361   -0.394466
 C    5.333827   -0.798943   -1.138286
 C    4.058507   -1.299828   -0.902704
 N   -0.316188   -1.347523    0.884516
 N    0.065902   -2.593618    0.530490
 N   -3.789891    0.946715   -1.024604
 N   -2.689018   -3.255771    0.815941
 O   -0.457424    0.786833    2.985086
 O   -2.154196    4.020313   -0.088196
 O   -4.683399   -2.205024    1.056717
Cl    7.392289    0.929376   -0.692693
 H   -3.711456    4.223393   -1.324996
 H   -2.522440    3.029704   -1.869409
 H   -3.548790   -2.914313   -1.719508
 H   -2.363650   -0.932905   -2.480876
 H   -1.480598   -1.569332   -1.085859
 H   -1.682848    0.860772   -0.884526
 H   -2.536313    0.037573    0.427275
 H    5.352623    1.696834    1.165428
 H    2.177191   -3.926699   -1.294353
 H    3.076017   -3.884272    0.226024
 H    1.497252   -4.695774    0.145113
 H    1.318192    1.300816   -1.105822
 H   -0.041137    3.345007   -1.561624
 H   -1.952565    2.878338    2.244102
 H   -4.980581    2.554058   -0.416515
 H   -3.658754    2.146654    0.688196
 H   -5.053750   -0.070096    0.314915
 H   -5.874077    0.657087   -1.098302
 H   -5.790099   -1.829449   -1.184713
 H   -4.939131   -1.111136   -2.560157
 H    3.103965    0.770593    1.598854
 H    5.966662   -1.238224   -1.902421
 H    3.700733   -2.126361   -1.507876
 H   -3.747575    1.100586   -2.036648
 H   -2.735972   -3.444537    1.808867
 H   -1.714775   -3.204501    0.467056
 H   -1.063017    1.252251    3.573991
