37 
6hrq_ligand_dft.xyz
 C    2.931559    0.108220    1.301638
 C    3.357800    1.224461    2.013359
 C    4.715009    1.521982    2.099203
 C    5.228558   -0.405336    0.743452
 C   -0.191418    0.547781   -1.144600
 C   -4.192296    1.603774   -0.087556
 C   -3.778653    0.271626   -0.014729
 C   -2.476049   -0.074706   -0.367021
 C   -1.567323    0.900906   -0.774734
 C   -1.984547    2.235711   -0.828859
 C   -3.287898    2.579869   -0.492046
 C   -4.682988   -0.824801    0.426815
 C    3.867674   -0.703613    0.657734
 C    5.649513    0.705138    1.468487
 N    1.678973   -0.401999   -1.633839
 N    1.859417    0.925597   -1.752213
 N    0.736181    1.497804   -1.465517
 C    0.414678   -0.684004   -1.248577
 N   -5.769841   -0.451630    1.173820
 O   -6.491909   -1.509435    1.716825
 O   -4.519592   -2.007540    0.143555
 S    3.329075   -2.127310   -0.278570
 C    2.801423   -1.294100   -1.813119
 H    1.874122   -0.130255    1.239501
 H    2.626785    1.861240    2.501513
 H    5.045143    2.391985    2.658696
 H    5.950926   -1.042447    0.242636
 H   -5.220596    1.872380    0.135654
 H   -2.194237   -1.121763   -0.314464
 H   -1.276219    2.993118   -1.147468
 H   -3.605041    3.615850   -0.558043
 H    6.708558    0.934713    1.535635
 H    0.074747   -1.693823   -1.080581
 H   -5.656825    0.279451    1.863866
 H   -6.012397   -2.281507    1.347421
 H    3.609303   -0.687090   -2.222853
 H    2.539168   -2.084938   -2.519865
