29 
6hry_ligand_xtb.xyz
 C   -3.454186    0.944443    0.157178
 C   -2.144454    1.313875   -0.112932
 C   -1.767941    2.742554   -0.354930
 C    0.999021   -1.579145   -0.192021
 C    2.747500    0.072690   -0.587906
 C    3.137970    0.984862    0.576972
 C    4.599436    1.404055    0.491305
 N   -0.379834   -1.764832   -0.005665
 N   -1.157756    0.426765   -0.166725
 C   -3.731775   -0.398124    0.376928
 N    1.365041   -0.328689   -0.508595
 C   -1.412251   -0.863078    0.046125
 C   -2.708585   -1.320091    0.324115
 O    1.736650   -2.537195   -0.087105
 H   -4.234471    1.687760    0.193672
 H   -2.374508    3.163273   -1.154507
 H   -1.940989    3.331838    0.544364
 H   -0.718639    2.812149   -0.626444
 H    3.349390   -0.838982   -0.571733
 H    2.915935    0.591365   -1.538268
 H    2.960548    0.454392    1.514413
 H    2.498600    1.871250    0.566939
 H    5.246861    0.531218    0.524569
 H    4.790562    1.937371   -0.437463
 H    4.858070    2.056465    1.321807
 H   -0.618524   -2.729021    0.183338
 H   -4.741467   -0.718452    0.588897
 H    0.624343    0.372358   -0.486598
 H   -2.889476   -2.370390    0.491755
