31 
6hs0_ligand_xtb.xyz
 C   -2.882971    0.884319    1.657529
 C   -0.593416    1.750245   -1.197824
 C    0.722901    1.215247   -0.691022
 C    0.783657   -0.079363   -0.190789
 C    1.875278    1.988801   -0.722179
 C    3.075893    1.475776   -0.262118
 C    3.142480    0.189249    0.243299
 C    1.987304   -0.575525    0.274662
 N   -1.698229    1.172568   -0.463144
 N   -2.527466   -0.522493    1.702041
 C   -1.825930    1.673281    0.887719
 C   -2.529403   -2.119363   -1.303229
 C   -1.752457   -2.037639   -2.363422
Cl    2.047519   -2.184692    0.912075
 H   -2.994924    1.342699    2.656079
 H   -3.845700    0.963236    1.142227
 H   -0.703240    1.463508   -2.249054
 H   -0.577058    2.855465   -1.153385
 H   -0.114272   -0.675173   -0.159728
 H    1.833978    2.997546   -1.107197
 H    3.967884    2.083492   -0.290232
 H    4.072850   -0.214712    0.610034
 H   -2.570654    1.292792   -0.964882
 H   -3.202484   -1.044146    2.249988
 H   -1.614932   -0.641592    2.129294
 H   -0.855523    1.548567    1.378808
 H   -2.084046    2.748753    0.923790
 H   -2.466784   -1.418374   -0.485686
 H   -3.267714   -2.900444   -1.207299
 H   -1.814698   -2.740260   -3.180190
 H   -1.010665   -1.262288   -2.465882
