56 
6hsh_ligand_xtb.xyz
 N    6.234719    1.915873   -0.498247
 O    6.158142    1.313145    1.650465
 C    2.562544   -1.376208   -0.319898
 C    4.601835    0.291989    0.164132
 C    4.307568   -0.794436    0.995094
 C    1.209356   -3.294405    0.323996
 N    1.574975   -2.252242   -0.600221
 C    0.596948   -1.984453   -1.619530
 C   -3.712112    2.118858    0.175400
 C    5.724569    1.182881    0.516310
 O    7.348298    2.707665   -0.213360
 N    2.726558   -0.339972   -1.153997
 C    3.733030    0.473440   -0.911122
 N    3.311997   -1.618451    0.764471
 C   -0.097956   -2.926171    1.031284
 C   -0.734886   -1.573211   -0.976786
 C   -1.203190   -2.657861    0.001375
 C   -2.482352   -2.245409    0.733784
 N   -3.639023   -2.140015   -0.187389
 C   -4.818102   -1.418130    0.403167
 C   -4.450227    0.009363    0.589550
 N   -3.997613    2.000327    1.509103
 C   -4.429261    0.740631    1.751656
 C   -3.990895    0.878880   -0.447560
 C   -3.785933    0.737742   -1.823443
 C   -3.305166    1.816212   -2.529495
 C   -3.024249    3.032136   -1.898403
 C   -3.227644    3.204401   -0.547572
 C   -3.884285    3.057385    2.476240
 H    6.155178    1.716245   -1.481378
 H    4.906079   -0.987895    1.875083
 H    2.016592   -3.406684    1.046521
 H    1.084988   -4.229849   -0.231732
 H    0.455156   -2.890815   -2.218495
 H    0.977265   -1.185645   -2.255301
 H    7.464858    2.593230    0.754396
 H    3.820647    1.313799   -1.588321
 H    0.068393   -2.029045    1.629190
 H   -0.389543   -3.736089    1.699902
 H   -1.459249   -1.400836   -1.776681
 H   -0.587672   -0.633999   -0.440443
 H   -1.386539   -3.585775   -0.553983
 H   -2.343903   -1.264493    1.194733
 H   -2.725868   -2.967241    1.515951
 H   -3.906279   -3.072787   -0.516976
 H   -3.338574   -1.574829   -0.997826
 H   -5.086985   -1.886665    1.350502
 H   -5.651258   -1.523268   -0.297092
 H   -4.718795    0.435175    2.739160
 H   -4.038231   -0.178261   -2.345248
 H   -3.147059    1.730208   -3.593191
 H   -2.650394    3.852681   -2.489613
 H   -3.022618    4.148516   -0.069246
 H   -2.858922    3.429811    2.515115
 H   -4.545863    3.885121    2.214095
 H   -4.161783    2.682472    3.458907
