34 
6hsz_ligand_dft.xyz
 O   -1.748921    1.226453    1.376934
 C   -1.883475    0.461899    0.438665
 C   -3.193479   -0.198883    0.128357
 C   -4.100120   -0.354679    1.178626
 C   -5.329694   -0.961277    0.955866
 C   -5.669295   -1.402167   -0.321657
 C   -4.778310   -1.229593   -1.377083
 C   -3.542655   -0.630415   -1.153844
 N   -0.850506    0.138875   -0.418613
 C    0.483335    0.587257   -0.239607
 C    0.799288    1.955990   -0.276356
 C   -0.248012    3.007659   -0.506303
 C    1.482910   -0.367151   -0.084487
 C    2.815582    0.013113    0.045779
 C    3.140360    1.370278    0.060009
 C    2.137792    2.316081   -0.102435
 C    3.830154   -1.064885    0.179587
 O    3.573236   -2.213472    0.526883
 N    5.129186   -0.713224   -0.085881
 O    6.020976   -1.780845   -0.128541
 H   -3.821918    0.007240    2.162890
 H   -6.026607   -1.088308    1.778556
 H   -6.632232   -1.872749   -0.496165
 H   -5.048193   -1.553656   -2.377502
 H   -2.869360   -0.467818   -1.991164
 H   -0.955334   -0.723321   -0.934118
 H   -0.965806    2.682668   -1.266923
 H   -0.814321    3.190555    0.411606
 H    0.208526    3.944696   -0.836317
 H    1.235535   -1.424192   -0.049719
 H    4.164911    1.691771    0.221740
 H    2.396960    3.371184   -0.102562
 H    5.311362   -0.083308   -0.856178
 H    5.437096   -2.530767    0.114387
