33 
6ht8_ligand_dft.xyz
 O   -1.547395    0.786467    1.481882
 C   -1.784203    0.136875    0.481666
 C   -3.150989   -0.394858    0.171216
 C   -4.021832   -0.598595    1.243269
 C   -5.300451   -1.093625    1.020653
 C   -5.723894   -1.374377   -0.276953
 C   -4.867459   -1.152647   -1.351637
 C   -3.583432   -0.664872   -1.129468
 N   -0.812141   -0.176201   -0.450218
 C    0.533944    0.217590   -0.292817
 C    0.858798    1.594874   -0.241281
 O   -0.163763    2.443300   -0.393699
 C    0.056297    3.823436   -0.180546
 C    1.542792   -0.719611   -0.226868
 C    2.885511   -0.331967   -0.094238
 C    3.196234    1.027267    0.000843
 C    2.189939    1.981835   -0.067475
 C    3.906775   -1.379662   -0.035830
 O    3.733731   -2.564731   -0.136507
 N    5.338968   -0.822726    0.165477
 O    6.118241   -1.717432    0.317207
 H   -3.677023   -0.361646    2.244382
 H   -5.969897   -1.258826    1.859275
 H   -6.724633   -1.758322   -0.451101
 H   -5.201572   -1.351317   -2.365389
 H   -2.935139   -0.459654   -1.976978
 H   -0.985504   -0.965587   -1.054596
 H    0.453719    4.006465    0.823899
 H    0.737387    4.240504   -0.932288
 H   -0.921197    4.295124   -0.275746
 H    1.304056   -1.778553   -0.262648
 H    4.226095    1.342103    0.118394
 H    2.451224    3.031391   -0.008288
