87 
6htc_ligand_xtb.xyz
 C   -1.530364    3.293074    2.246075
 C   -2.378821    2.455852    1.541506
 C   -2.398683    2.472934    0.151753
 C   -3.306317    1.535191   -0.593981
 C   -2.565870    0.228301   -0.921248
 C   -4.484006   -1.464735   -0.546239
 C    0.861523    0.905503   -2.432953
 C    2.101770    2.743708   -1.474743
 C   -0.506516   -0.024632    3.317840
 C   -1.425474   -1.220576    3.045541
 O   -0.714701   -2.428488    3.110442
 C    0.328304   -2.445920    2.166565
 C    1.328230   -1.322718    2.435917
 N    0.617598   -0.024453    2.357576
 C    1.504174    1.143262    2.547144
 C    2.385006    1.357080    1.296185
 O    2.958625    0.418470    0.778163
 N    2.465077    2.632252    0.901538
 C    3.088638    3.096841   -0.343501
 C    4.502110    2.569937   -0.549695
 O    1.420885    3.593232   -2.006786
 N    2.026472    1.430836   -1.760138
 C    1.214514   -0.369722   -3.220603
 C    1.657488   -1.465409   -2.291040
 C    2.981252   -1.573455   -1.891499
 C    3.383148   -2.534899   -0.979317
 C    2.450881   -3.423857   -0.458458
 O    2.712407   -4.381590    0.473034
 C    4.050284   -4.599226    0.861879
 C    1.124909   -3.346533   -0.890436
 C    0.733163   -2.372462   -1.782651
 C   -0.202184    0.616193   -1.370681
 O    0.106116    0.525713   -0.180763
 N   -1.451054    0.500469   -1.804373
 C   -0.677953    4.149798    1.566502
 C   -0.695029    4.177723    0.182123
 C   -1.551703    3.346056   -0.518005
 C   -3.461023   -0.849354   -1.563004
 O   -2.566135   -1.794092   -2.105859
 C   -4.540906   -2.994144   -0.666825
 C   -5.885156   -0.895709   -0.807000
 O   -4.050671   -1.121353    0.765309
 H   -1.550720    3.300137    3.328141
 H   -3.053070    1.795574    2.069758
 H   -3.650483    1.994332   -1.522378
 H   -4.165284    1.294608    0.028994
 H   -2.138036   -0.185281   -0.005139
 H    0.498176    1.686648   -3.109423
 H   -1.068398    0.903618    3.215137
 H   -0.095122   -0.100499    4.328113
 H   -1.909309   -1.105800    2.063828
 H   -2.197622   -1.274189    3.814613
 H    0.818634   -3.415869    2.253786
 H   -0.071417   -2.336736    1.148248
 H    1.748755   -1.428030    3.439252
 H    2.124813   -1.332892    1.691165
 H    0.239976    0.062077    1.377613
 H    0.882188    2.022121    2.724041
 H    2.148293    0.971239    3.414617
 H    1.853927    3.308484    1.335054
 H    3.119356    4.188584   -0.282455
 H    4.886445    2.950668   -1.491875
 H    5.144845    2.920789    0.254212
 H    4.533269    1.485827   -0.565449
 H    2.527763    0.766229   -1.181750
 H    0.338503   -0.692243   -3.784604
 H    2.010400   -0.121041   -3.923887
 H    3.723484   -0.906893   -2.306376
 H    4.420113   -2.580251   -0.689583
 H    4.679453   -4.855959    0.005481
 H    4.022478   -5.440761    1.551572
 H    4.466911   -3.724980    1.372413
 H    0.422795   -4.074047   -0.514929
 H   -0.300573   -2.316967   -2.089517
 H   -1.649359    0.584014   -2.789331
 H   -0.031360    4.817741    2.119248
 H   -0.048450    4.846673   -0.363472
 H   -1.561511    3.395124   -1.595955
 H   -4.036191   -0.387135   -2.381065
 H   -3.063018   -2.495971   -2.539972
 H   -3.564701   -3.429473   -0.465187
 H   -5.246074   -3.385003    0.064162
 H   -4.883937   -3.299686   -1.652424
 H   -6.588568   -1.293135   -0.077911
 H   -5.890003    0.187931   -0.731294
 H   -6.230073   -1.176380   -1.798168
 H   -4.668481   -1.520667    1.389239
