84 
6htd_ligand_xtb.xyz
 C   -4.853838    0.156509   -0.398270
 C   -3.799121    1.155818   -0.894745
 C   -0.454397    0.816461   -0.922152
 C    2.860202    1.187255   -0.635749
 C    4.885780    0.707397    0.633954
 C    3.196214   -0.385317    2.084257
 C    0.428695   -0.380211    2.478405
 C   -1.022508   -0.292651    2.624626
 C    2.604725    0.556467    2.918401
 C    6.611366   -0.059600   -1.123048
 C    7.198101   -2.612798   -2.287714
 C    2.392702   -1.339759    1.469494
 C    1.026034   -1.337831    1.658850
 N   -1.913033   -0.788432    1.877200
 C    1.240204    0.554336    3.122065
 C    4.661740   -0.317242    1.767965
 C    6.354440    0.718475    0.156926
 S    6.291042   -1.844469   -0.918999
 O    6.856780   -2.297527    0.319005
 O    4.884200   -2.098771   -1.132880
 N    3.965524    0.443550   -0.452600
 O    2.656653    2.259650   -0.099000
 C    1.867488    0.599020   -1.649591
 C    2.430406    0.683546   -3.067933
 N    0.630863    1.337294   -1.530402
 O   -0.608684   -0.374516   -0.735265
 C   -1.493948    1.864354   -0.510143
 C   -0.938512    2.739140    0.628061
 C   -1.434136    4.189092    0.585592
 C   -2.951481    4.271351    0.724466
 C   -0.752506    4.989223    1.694071
 N   -2.709691    1.196789   -0.111259
 O   -3.961017    1.829788   -1.892047
 N   -6.151305    0.510809   -0.864570
 N   -6.451313    0.860604   -1.960510
 N   -6.992257    1.175699   -2.893404
 C   -4.432256   -1.252891   -0.883607
 C   -5.236691   -2.308652   -0.184534
 C   -6.363821   -2.860156   -0.777489
 C   -7.116417   -3.808871   -0.107184
 C   -6.749766   -4.214399    1.164134
 C   -5.629553   -3.663841    1.764628
 C   -4.878862   -2.714038    1.096424
 H   -4.899451    0.164681    0.695086
 H    4.618647    1.702763    1.007334
 H   -1.377723    0.316432    3.455325
 H    3.219266    1.300631    3.403778
 H    5.979841    0.277327   -1.939988
 H    7.659268    0.012662   -1.401779
 H    6.956337   -3.668699   -2.286046
 H    6.872527   -2.155059   -3.212603
 H    8.257490   -2.470264   -2.120709
 H    2.847583   -2.082574    0.829458
 H    0.418306   -2.080927    1.164035
 H   -1.538079   -1.330277    1.096714
 H    0.789765    1.298194    3.763981
 H    5.027738   -1.293418    1.450750
 H    5.228839    0.003210    2.643210
 H    6.671624    1.750024   -0.011887
 H    6.979840    0.295489    0.944353
 H    3.984979   -0.507016   -0.810746
 H    1.645432   -0.440781   -1.389001
 H    2.714191    1.707778   -3.300971
 H    1.676259    0.359032   -3.780097
 H    3.301501    0.040963   -3.162726
 H    0.742150    2.342003   -1.528340
 H   -1.738459    2.476288   -1.386121
 H    0.153908    2.739493    0.594722
 H   -1.232379    2.286634    1.577645
 H   -1.148810    4.624228   -0.379138
 H   -3.449091    3.789199   -0.111611
 H   -3.269350    5.311174    0.751072
 H   -3.275450    3.789752    1.644712
 H    0.329543    4.932487    1.598668
 H   -1.048727    6.034319    1.646284
 H   -1.033576    4.598876    2.669924
 H   -2.619871    0.525114    0.650090
 H   -4.576951   -1.305361   -1.965233
 H   -3.370630   -1.384938   -0.669324
 H   -6.654680   -2.546456   -1.770082
 H   -7.991332   -4.231897   -0.579075
 H   -7.335626   -4.956763    1.686358
 H   -5.340396   -3.976396    2.757748
 H   -4.007795   -2.280704    1.567553
