31 
6htg_ligand_dft.xyz
 N   -4.995223   -0.846870   -0.268741
 C   -3.749167   -1.098819    0.248389
 O   -3.517320   -2.174784    0.784543
 C   -2.765376    0.015172    0.135464
 C    5.849875   -0.765603    0.023703
 C    5.151748   -1.824852   -0.552374
 C    3.762868   -1.824581   -0.552433
 C   -1.415144   -0.324212    0.128675
 C   -3.172154    1.346787    0.049294
 C   -2.212325    2.342899   -0.059215
 C   -0.867787    2.003406   -0.082001
 C   -0.436982    0.668064    0.011525
 C    1.561915   -0.828060   -0.027860
 C    3.060290   -0.756284    0.008722
 C    3.763966    0.297755    0.597984
 C    5.155038    0.290834    0.605328
 N    0.932895    0.400044    0.001551
 O   -5.841048   -1.950326   -0.303285
 O    0.970906   -1.890293   -0.095513
Cl    0.312170    3.292761   -0.217611
 H   -5.059525   -0.335513   -1.139837
 H    6.935681   -0.768065    0.027606
 H    5.691619   -2.654029   -0.999017
 H    3.201723   -2.647281   -0.982800
 H   -1.119285   -1.361185    0.208090
 H   -4.223125    1.610994    0.102792
 H   -2.498236    3.387132   -0.115302
 H    3.238199    1.111575    1.090901
 H    5.695241    1.107372    1.074199
 H    1.526540    1.209735   -0.103048
 H   -5.280316   -2.641696    0.108965
