26 
6htn_ligand_xtb.xyz
 C   -1.134563   -0.003414    0.659001
 C   -0.185894   -1.210326    0.588077
 C    0.756781   -1.029433   -0.608768
 C    1.494226    0.308958   -0.468638
 C    0.467945    1.444825   -0.329065
 C    1.147616    2.773105   -0.035132
 O   -1.979008   -0.101663   -0.464675
 O   -0.892896   -2.419529    0.492170
 O    1.713960   -2.063825   -0.644873
 O    2.347408    0.280529    0.644586
 O   -0.451248    1.204829    0.731401
 C   -3.063147    0.804944   -0.439198
 H   -1.735310   -0.044512    1.583110
 H    0.405814   -1.256610    1.507998
 H    0.159792   -1.028669   -1.534698
 H    2.081471    0.483326   -1.385916
 H   -0.089784    1.498007   -1.278047
 H    1.750984    2.665632    0.860353
 H    1.783136    3.055372   -0.868902
 H    0.396789    3.539999    0.129042
 H   -1.595144   -2.288883   -0.159650
 H    1.259839   -2.881002   -0.399397
 H    2.811795   -0.567129    0.609813
 H   -3.728238    0.585010    0.403014
 H   -2.709525    1.835503   -0.355071
 H   -3.595129    0.669284   -1.378172
