26 
6htn_ligand_dft.xyz
 C   -1.141045   -0.047393    0.665968
 C   -0.159811   -1.212999    0.568844
 C    0.791447   -1.005540   -0.605643
 C    1.482963    0.349008   -0.480667
 C    0.433076    1.451667   -0.327160
 C    1.048532    2.805528   -0.029188
 O   -1.986309   -0.162689   -0.454228
 O   -0.823249   -2.456727    0.462779
 O    1.791828   -2.005788   -0.607198
 O    2.345228    0.346741    0.633095
 O   -0.483075    1.179524    0.737599
 C   -3.074093    0.739555   -0.436254
 H   -1.734195   -0.111826    1.588137
 H    0.427396   -1.241685    1.490046
 H    0.214760   -1.032146   -1.542751
 H    2.046111    0.549368   -1.407510
 H   -0.128236    1.493370   -1.272600
 H    1.606640    2.759830    0.908343
 H    1.733936    3.095006   -0.831776
 H    0.265733    3.564098    0.056035
 H   -1.521893   -2.323610   -0.195142
 H    1.341345   -2.832869   -0.383000
 H    2.795086   -0.510751    0.602489
 H   -3.708585    0.571260    0.445311
 H   -2.724856    1.777934   -0.428053
 H   -3.655040    0.554574   -1.341305
