85 
6htr_ligand_xtb.xyz
 C    3.431947   -0.359783   -0.719096
 C    1.919523   -0.319143   -0.539797
 C   -1.043547    0.442409   -1.605005
 C   -3.040273   -2.234914   -1.355554
 C   -4.564604   -1.476088    0.410642
 C   -2.787183   -1.102537    2.214827
 C   -0.055785   -1.146806    2.845788
 C    1.376938   -1.102948    3.142787
 C   -2.003443   -2.209600    1.903163
 C   -5.308007    0.545345   -0.982784
 C   -4.097940    3.095932   -1.258050
 C   -2.194149   -0.032169    2.875069
 C   -0.854001   -0.059266    3.201154
 N    2.309655   -1.817943    2.686144
 C   -0.654111   -2.226713    2.197529
 C   -4.245934   -1.027740    1.853503
 C   -5.747469   -0.667029   -0.173415
 S   -4.353316    1.781694   -0.042244
 O   -3.045015    1.284079    0.318241
 O   -5.163629    2.264566    1.044634
 N   -3.414181   -1.329430   -0.448011
 O   -3.568209   -3.323266   -1.502337
 C   -1.859141   -1.776678   -2.232594
 C   -1.098421   -3.004937   -2.766765
 O   -0.762817   -3.910826   -1.755457
 N   -0.980933   -0.893067   -1.507850
 O   -1.819174    1.033806   -2.337595
 C   -0.050659    1.142682   -0.660459
 C   -0.251894    2.653032   -0.685477
 C    0.708151    3.440771    0.212726
 C    0.351594    4.924804    0.141332
 C    0.648938    2.952434    1.658045
 N    1.323753    0.797868   -0.971953
 O    1.322979   -1.229719    0.010965
 N    3.822548    0.552735   -1.754828
 N    4.875957    0.619023   -2.301102
 N    5.763823    0.849644   -2.948216
 C    4.072862    0.017558    0.638535
 C    5.565352   -0.121571    0.566861
 C    6.148929   -1.382053    0.623001
 C    7.518602   -1.526395    0.504658
 C    8.322226   -0.412149    0.326726
 C    7.750381    0.846574    0.274965
 C    6.378955    0.990181    0.393253
 H    3.721150   -1.388207   -0.975121
 H   -4.823345   -2.540694    0.395258
 H    1.679318   -0.317486    3.835466
 H   -2.449264   -3.065598    1.418695
 H   -4.679159    0.273021   -1.825883
 H   -6.177915    1.096852   -1.329718
 H   -5.047620    3.359066   -1.703405
 H   -3.673904    3.950771   -0.746045
 H   -3.398767    2.701484   -1.987083
 H   -2.791606    0.831192    3.126123
 H   -0.408805    0.777895    3.720566
 H    2.005239   -2.522371    2.014761
 H   -0.061831   -3.087597    1.924523
 H   -4.823424   -1.651456    2.541888
 H   -4.571587    0.004280    1.989015
 H   -6.398558   -0.338863    0.637740
 H   -6.329822   -1.311697   -0.836651
 H   -2.917637   -0.450920   -0.344101
 H   -2.274370   -1.208756   -3.075869
 H   -0.158035   -2.680364   -3.218241
 H   -1.716124   -3.488328   -3.535099
 H   -1.591577   -4.268804   -1.407323
 H   -0.319882   -1.319038   -0.858203
 H   -0.272915    0.750235    0.339940
 H   -0.164525    3.001915   -1.717313
 H   -1.275871    2.830240   -0.356448
 H    1.734122    3.320122   -0.154695
 H    0.376604    5.279146   -0.886795
 H    1.054017    5.516241    0.723959
 H   -0.647346    5.090588    0.538318
 H    1.218072    3.618099    2.303767
 H   -0.382211    2.930915    2.003118
 H    1.066256    1.952573    1.752317
 H    1.872719    1.462209   -1.497871
 H    3.794988    1.045811    0.881879
 H    3.658638   -0.650919    1.400155
 H    5.521460   -2.249152    0.770284
 H    7.961480   -2.510321    0.551388
 H    9.391714   -0.525283    0.231382
 H    8.371429    1.719339    0.138927
 H    5.937490    1.976598    0.352014
