38 
6htz_ligand_dft.xyz
 C   -0.415624    1.480363   -0.072006
 C   -2.909049    0.259373   -0.126299
 C   -2.813785    1.647014   -0.129620
 C   -1.754680   -0.532837   -0.113374
 C    1.049987    3.359686   -0.048135
 C    0.929054   -1.962228    0.018921
 C    2.405967   -2.384399    0.036298
 C    3.425660   -1.273534    0.052322
 C    3.850598   -0.713907    1.260892
 C    4.741495    0.354659    1.276781
 C    5.220318    0.882150    0.080327
 C    4.804445    0.333962   -1.129939
 C    3.913590   -0.735166   -1.141879
 C   -4.221863   -0.435075   -0.150918
 C   -1.562970    2.260847   -0.102480
 C   -0.505389    0.069132   -0.078127
 N    0.715436   -0.614110   -0.053368
 N   -5.288304    0.282065    0.345018
 O   -6.464865   -0.454432    0.462988
 O    0.853498    1.962414   -0.043322
 O    0.048640   -2.801653    0.061511
 O   -4.406209   -1.561307   -0.596393
 H   -3.708143    2.259121   -0.189726
 H   -1.834864   -1.611492   -0.128000
 H    0.640502    3.814810   -0.958031
 H    0.593799    3.827418    0.832754
 H    2.129697    3.507566   -0.020896
 H    2.542019   -3.027012   -0.840171
 H    2.518195   -3.033776    0.910492
 H    3.474732   -1.119301    2.197129
 H    5.063728    0.774153    2.225199
 H    5.918164    1.714083    0.091388
 H    5.175789    0.736908   -2.067483
 H    3.587485   -1.157213   -2.089355
 H   -1.495955    3.342369   -0.118422
 H    1.529667   -0.014457   -0.062696
 H   -5.135418    0.817174    1.190758
 H   -6.184357   -1.326456    0.110659
