33 
6hu0_ligand_xtb.xyz
Cl   -6.374676   -1.066854   -0.937033
Cl   -2.606100    0.126099    2.673495
 C   -2.135200    0.116138    0.007491
 C   -3.067066   -0.066622    1.030160
 C   -4.372623   -0.437523    0.741677
 C   -4.753118   -0.612853   -0.578723
 C   -3.845601   -0.427383   -1.612764
 C   -2.546759   -0.068176   -1.310202
 C   -0.736179    0.564757    0.297376
 N    0.192753   -0.135367   -0.433371
 C    4.310906    0.576915   -0.238453
 C    3.819906   -0.714208   -0.201363
 C    2.450453   -0.949978   -0.245468
 C    1.572159    0.107684   -0.387426
 C    2.066828    1.426739   -0.515412
 C    3.440758    1.637589   -0.411625
 O   -0.458130    1.447053    1.070102
 O    1.161485    2.384659   -0.771404
 C    1.567320    3.734464   -0.778126
 C    4.709694   -1.976702   -0.254991
 N    5.605264   -1.683874    0.647101
 O    6.486330   -0.874013    0.821771
 O    4.325900   -3.004336   -0.754325
 H   -5.080119   -0.583802    1.541489
 H   -4.156027   -0.561289   -2.636425
 H   -1.840405    0.098310   -2.109820
 H   -0.091126   -1.021047   -0.827125
 H    5.371947    0.767637   -0.145175
 H    2.084292   -1.964298   -0.197332
 H    3.844353    2.634426   -0.476011
 H    2.022064    4.017196    0.174529
 H    2.263628    3.939013   -1.597845
 H    0.654919    4.309439   -0.924305
