35 
6hu2_ligand_xtb.xyz
 O   -5.758859   -1.811886   -0.220432
 N   -4.879115   -0.722979   -0.199689
 C   -3.605862   -0.986512    0.184478
 O   -3.332122   -2.099603    0.615221
 C   -2.652619    0.137012    0.081346
 C   -3.050946    1.468988    0.039505
 C   -2.084863    2.455126   -0.062159
 C   -0.735433    2.156948   -0.128191
 C   -0.325905    0.808705   -0.067935
 C   -1.300668   -0.181762    0.040520
 C    0.278888    3.255180   -0.258932
 N    1.004861    0.496695   -0.170628
 C    1.529978   -0.823918    0.119041
 C    3.032047   -0.770881    0.068960
 C    3.729132   -1.238723   -1.036034
 C    5.109543   -1.147576   -1.085516
 C    5.806781   -0.581661   -0.032160
 C    5.119041   -0.108892    1.072854
 C    3.739920   -0.202954    1.122019
 H   -5.207719   -2.526700    0.170721
 H   -5.162069    0.007700   -0.830530
 H   -4.091391    1.743340    0.116331
 H   -2.391695    3.491123   -0.091321
 H   -1.029632   -1.223691    0.092528
 H    0.880147    3.119367   -1.158203
 H   -0.216091    4.220826   -0.319692
 H    0.951105    3.274420    0.600879
 H    1.648799    1.248293    0.018455
 H    1.153729   -1.527540   -0.630803
 H    1.201433   -1.170031    1.111388
 H    3.187398   -1.678797   -1.860489
 H    5.641796   -1.518176   -1.949175
 H    6.883582   -0.510724   -0.070579
 H    5.658394    0.331451    1.898569
 H    3.205638    0.160556    1.989046
