96 
6huv_ligand_xtb.xyz
 C   -6.417386   -2.976092    0.237466
 C   -7.222248   -4.146135    0.796713
 C   -8.651793   -4.117051    0.268105
 C   -4.931394   -0.238999    0.680506
 C   -4.188576    0.977233    0.106303
 C   -3.207492    3.750020   -0.766465
 C   -0.412671    0.469726    0.034454
 C    1.400825   -1.038077   -0.608680
 C   -8.508110   -1.623341    0.067498
 C   -9.314554   -2.791593    0.626132
 C   -7.070057   -1.638798    0.592850
 C   -6.291511   -0.448759    0.019226
 C   -4.716744    2.297720    0.697750
 O   -4.001726    2.556744    1.887789
 C   -5.616698    3.395010   -1.409609
 C   -4.630385    3.523857   -0.249050
 O   -5.012511    4.606744    0.596143
 N   -2.773812    0.869808    0.402599
 C   -1.861950    0.475173   -0.480165
 O   -2.094339    0.154974   -1.633723
 C    0.108795    1.926951    0.120929
 C    1.609707    1.919846    0.129810
 C    2.328182    1.664399    1.290841
 C    3.700420    1.521698    1.249776
 C    4.377738    1.640129    0.041495
 O    5.749772    1.418124    0.071719
 C    6.496609    1.956284   -1.008892
 C    3.678276    1.932486   -1.117261
 C    2.302744    2.060370   -1.063147
 N    0.341339   -0.303150   -0.926435
 O    1.898268   -1.095816    0.505476
 C    2.040935   -1.849300   -1.763248
 C    1.095431   -2.886685   -2.347292
 N    3.201608   -2.490978   -1.160122
 C    4.262467   -1.728840   -0.842972
 O    4.692750   -0.804270   -1.499105
 C    4.950354   -2.103815    0.482328
 N    6.177494   -1.306071    0.637842
 C    7.295394   -1.877174   -0.148494
 C    8.555736   -1.025855    0.030477
 O    8.893465   -0.898838    1.387518
 C    7.855390   -0.299073    2.119469
 C    6.584437   -1.150494    2.050096
 H   -5.401751   -3.018050    0.635097
 H   -6.356738   -3.065695   -0.849762
 H   -7.238917   -4.084737    1.887426
 H   -6.741595   -5.087685    0.522574
 H   -9.222590   -4.946531    0.689317
 H   -8.639778   -4.235465   -0.817740
 H   -4.307837   -1.117060    0.506985
 H   -5.049644   -0.110898    1.757673
 H   -4.289312    0.967826   -0.981722
 H   -2.907583    2.941769   -1.425951
 H   -2.516644    3.809771    0.071366
 H   -3.160449    4.685060   -1.321892
 H   -0.326821   -0.013743    1.012151
 H   -8.490323   -1.685039   -1.023182
 H   -8.989726   -0.681615    0.340248
 H  -10.330329   -2.761932    0.227613
 H   -9.378997   -2.701003    1.712873
 H   -7.099136   -1.543063    1.684131
 H   -6.895758    0.452238    0.144767
 H   -6.147199   -0.600317   -1.052976
 H   -5.781765    2.170711    0.941211
 H   -4.258337    3.448120    2.160175
 H   -5.575798    4.287982   -2.030826
 H   -6.629289    3.285440   -1.028826
 H   -5.380925    2.537023   -2.030831
 H   -5.081394    5.407062    0.065418
 H   -2.524980    1.167717    1.334565
 H   -0.249916    2.481859   -0.747537
 H   -0.288343    2.389626    1.024198
 H    1.811601    1.559506    2.232137
 H    4.259267    1.322012    2.151912
 H    7.536865    1.981478   -0.684476
 H    6.395765    1.334445   -1.902183
 H    6.177244    2.975186   -1.231496
 H    4.181073    2.026875   -2.064775
 H    1.760826    2.264872   -1.974673
 H   -0.109638   -0.347135   -1.836252
 H    2.401333   -1.158997   -2.530794
 H    0.737814   -3.556508   -1.567919
 H    0.236991   -2.405885   -2.806650
 H    1.607804   -3.473788   -3.105020
 H    2.933093   -3.187167   -0.475210
 H    4.234570   -1.834468    1.265863
 H    5.174557   -3.170222    0.543151
 H    5.967523   -0.339159    0.250837
 H    7.007942   -1.911696   -1.199739
 H    7.487400   -2.889989    0.215566
 H    8.404992   -0.037200   -0.423091
 H    9.403674   -1.512095   -0.453904
 H    8.206214   -0.228590    3.149708
 H    7.641199    0.710365    1.740448
 H    5.778700   -0.673140    2.607826
 H    6.781995   -2.141559    2.466757
