87 
6hv4_ligand_xtb.xyz
 C   -1.472934    3.312109    2.244825
 C   -2.332963    2.484564    1.543006
 C   -2.357452    2.502330    0.153373
 C   -3.278617    1.576647   -0.590519
 C   -2.556504    0.260884   -0.923879
 C   -4.486566   -1.416657   -0.546294
 C    0.878837    0.890264   -2.436204
 C    2.139330    2.716095   -1.482043
 C   -0.497680   -0.005418    3.335405
 C   -1.447918   -1.177200    3.066558
 O   -0.763645   -2.401514    3.109958
 C    0.263414   -2.433748    2.149215
 C    1.292636   -1.335534    2.411369
 N    0.610844   -0.020664    2.357239
 C    1.526863    1.124121    2.546636
 C    2.403338    1.327428    1.290951
 O    2.964862    0.382598    0.771073
 N    2.496224    2.601604    0.895983
 C    3.126320    3.059998   -0.348126
 C    4.535082    2.519571   -0.550795
 O    1.470307    3.572179   -2.018637
 N    2.050184    1.403226   -1.765091
 C    1.213334   -0.394249   -3.216826
 C    1.634607   -1.494588   -2.282645
 C    2.954893   -1.623736   -1.878034
 C    3.337630   -2.590905   -0.963712
 C    2.389089   -3.464202   -0.445656
 O    2.632094   -4.424344    0.488496
 C    3.965185   -4.662728    0.881821
 C    1.066286   -3.365997   -0.882847
 C    0.693854   -2.386401   -1.777272
 C   -0.189321    0.621774   -1.373207
 O    0.116583    0.534595   -0.182397
 N   -1.439148    0.519469   -1.807579
 C   -0.613184    4.159378    1.562660
 C   -0.634412    4.187667    0.178354
 C   -1.502768    3.365985   -0.519039
 C   -3.471564   -0.797732   -1.569177
 O   -2.596301   -1.744081   -2.140552
 C   -4.544801   -2.945341   -0.672936
 C   -5.888817   -0.844023   -0.791604
 O   -4.043133   -1.079370    0.763745
 H   -1.490093    3.319719    3.326988
 H   -3.012853    1.832005    2.073503
 H   -3.619976    2.042034   -1.516837
 H   -4.138928    1.344973    0.034115
 H   -2.133717   -0.162927   -0.010142
 H    0.526936    1.672396   -3.117487
 H   -1.039593    0.936432    3.251869
 H   -0.071996   -0.101364    4.338053
 H   -1.943749   -1.043126    2.093338
 H   -2.208982   -1.220335    3.847311
 H    0.733757   -3.414766    2.220891
 H   -0.150237   -2.307178    1.138501
 H    1.727984   -1.459861    3.406160
 H    2.076230   -1.356883    1.652999
 H    0.222638    0.083219    1.383091
 H    0.927668    2.016093    2.736209
 H    2.174433    0.929960    3.406882
 H    1.893173    3.284604    1.330266
 H    3.167279    4.151439   -0.286869
 H    4.928505    2.903409   -1.487905
 H    5.177072    2.857294    0.259316
 H    4.554673    1.435395   -0.574801
 H    2.540287    0.735082   -1.180864
 H    0.333833   -0.703994   -3.782524
 H    2.015513   -0.161700   -3.918421
 H    3.709410   -0.969652   -2.290414
 H    4.372665   -2.653279   -0.670043
 H    4.590171   -4.941445    0.029063
 H    3.920504   -5.495464    1.581275
 H    4.397937   -3.790850    1.382518
 H    0.351243   -4.081823   -0.509407
 H   -0.337523   -2.314691   -2.088950
 H   -1.635161    0.595079   -2.793513
 H    0.042352    4.820386    2.113306
 H    0.017838    4.849503   -0.369340
 H   -1.515670    3.415376   -1.596957
 H   -4.053330   -0.316196   -2.371214
 H   -3.108094   -2.430344   -2.582256
 H   -3.564734   -3.380227   -0.489835
 H   -5.237215   -3.340583    0.067726
 H   -4.903473   -3.246680   -1.654169
 H   -6.585323   -1.240259   -0.055136
 H   -5.889485    0.239604   -0.714474
 H   -6.245514   -1.122506   -1.779204
 H   -4.660503   -1.475957    1.389883
