85 
6hva_ligand_xtb.xyz
 C    3.435286   -0.351795   -0.721670
 C    1.922488   -0.317322   -0.542586
 C   -1.044069    0.437787   -1.605316
 C   -3.041329   -2.237389   -1.353404
 C   -4.564899   -1.474873    0.412213
 C   -2.781012   -1.102193    2.211571
 C   -0.048775   -1.146625    2.839875
 C    1.384114   -1.103323    3.136010
 C   -1.996982   -2.208080    1.896501
 C   -5.312707    0.550841   -0.972623
 C   -4.104673    3.101946   -1.247277
 C   -2.187488   -0.032608    2.872740
 C   -0.846975   -0.059745    3.197402
 N    2.315845   -1.821670    2.682531
 C   -0.647409   -2.225271    2.189791
 C   -4.240906   -1.028480    1.854611
 C   -5.749483   -0.664095   -0.165724
 S   -4.351197    1.783347   -0.033873
 O   -3.040884    1.283641    0.316029
 O   -5.153133    2.263639    1.060289
 N   -3.417735   -1.328102   -0.450755
 O   -3.567675   -3.327278   -1.495403
 C   -1.861297   -1.780376   -2.232442
 C   -1.103354   -3.008008   -2.773371
 O   -0.788588   -3.932341   -1.772483
 N   -0.981052   -0.897811   -1.508467
 O   -1.819543    1.029172   -2.338076
 C   -0.052216    1.138858   -0.660234
 C   -0.258158    2.648566   -0.685059
 C    0.701797    3.440102    0.209572
 C    0.345060    4.923756    0.132111
 C    0.643064    2.957836    1.656904
 N    1.322874    0.798278   -0.972888
 O    1.328999   -1.231246    0.005907
 N    3.822792    0.570007   -1.750175
 N    4.875230    0.645301   -2.297170
 N    5.760841    0.885598   -2.943803
 C    4.074622    0.016965    0.639067
 C    5.566760   -0.125458    0.568688
 C    6.147113   -1.386917    0.634522
 C    7.516264   -1.535822    0.515435
 C    8.322368   -0.425189    0.326509
 C    7.753789    0.834631    0.266054
 C    6.382928    0.982877    0.385672
 H    3.728169   -1.377250   -0.985390
 H   -4.824506   -2.539239    0.396381
 H    1.687885   -0.314968    3.824805
 H   -2.442472   -3.063258    1.410353
 H   -4.688475    0.280719   -1.819862
 H   -6.183740    1.104545   -1.313202
 H   -5.056344    3.357520   -1.692935
 H   -3.689027    3.959725   -0.733276
 H   -3.402060    2.715201   -1.977083
 H   -2.784900    0.830196    3.125939
 H   -0.401622    0.776639    3.717984
 H    2.010516   -2.529316    2.014987
 H   -0.055091   -3.085271    1.914205
 H   -4.815017   -1.653947    2.544237
 H   -4.567446    0.002826    1.993215
 H   -6.398099   -0.338836    0.648564
 H   -6.334167   -1.306374   -0.829228
 H   -2.920530   -0.449809   -0.348423
 H   -2.278100   -1.209764   -3.073221
 H   -0.154456   -2.684355   -3.207603
 H   -1.714004   -3.474775   -3.557703
 H   -1.625881   -4.283339   -1.436879
 H   -0.319304   -1.323223   -0.859316
 H   -0.272817    0.745097    0.340020
 H   -0.174894    2.996635   -1.717525
 H   -1.281801    2.822359   -0.353258
 H    1.727648    3.317973   -0.157581
 H    0.363634    5.272248   -0.898137
 H    1.051359    5.518172    0.706935
 H   -0.651306    5.092093    0.534409
 H    1.209900    3.627981    2.299989
 H   -0.388243    2.934935    2.001410
 H    1.063183    1.959607    1.755704
 H    1.869932    1.465372   -1.497352
 H    3.798237    1.044319    0.887589
 H    3.658097   -0.655111    1.396167
 H    5.517274   -2.250845    0.789853
 H    7.956683   -2.520453    0.569948
 H    9.391328   -0.541915    0.229291
 H    8.376873    1.704638    0.122016
 H    5.944233    1.970239    0.337683
