49 
6hvj_ligand_xtb.xyz
 C    3.997342   -1.890729    2.175374
 S    3.997343   -2.278497    0.400517
 O    5.075768   -3.183111    0.130699
 O    2.658580   -2.702388    0.045601
 C    4.335533   -0.695425   -0.369960
 C    5.628408   -0.421711   -0.767531
 C    5.890853    0.816746   -1.333375
 N    4.942553    1.722799   -1.517493
 C    3.712653    1.463727   -1.143693
 C    3.319376    0.254099   -0.533791
 N    2.040288   -0.051648   -0.166893
 C    0.952271    0.790114   -0.007682
 C   -0.326544    0.222759   -0.208531
 C    1.062467    2.102803    0.394839
 C   -0.098712    2.871860    0.569548
 N    0.025315    4.157095    0.970118
 C   -1.072174    4.843645    1.139161
 C   -2.344599    4.279490    0.929147
 N   -2.495644    3.040034    0.542191
 C   -1.387069    2.306001    0.341552
 C   -1.485568    0.941714   -0.057135
 C   -2.792877    0.313322   -0.291925
 C   -3.030949   -0.969648    0.178148
 C   -4.270097   -1.550567   -0.063997
 C   -4.871969   -2.815506    0.255212
 C   -4.239707   -3.932787    1.005854
 C   -6.117236   -2.760045   -0.276231
 O   -6.372804   -1.582014   -0.903730
 C   -5.252086   -0.837507   -0.780230
 C   -5.021504    0.443583   -1.258176
 C   -3.788452    1.003007   -1.003239
 H    3.760061   -2.800123    2.713339
 H    4.987369   -1.541384    2.437441
 H    3.248749   -1.130826    2.360373
 H    6.386063   -1.178107   -0.642267
 H    6.881202    1.094303   -1.662240
 H    2.984233    2.230901   -1.361437
 H    1.856378   -1.052975   -0.103851
 H   -0.376697   -0.811002   -0.519742
 H    2.012130    2.564446    0.609340
 H   -0.957144    5.871772    1.456399
 H   -3.249569    4.851041    1.085250
 H   -2.279758   -1.500835    0.742889
 H   -3.347894   -4.280097    0.485440
 H   -3.940100   -3.598491    1.998389
 H   -4.933747   -4.762716    1.107795
 H   -6.911830   -3.481158   -0.279196
 H   -5.781346    0.974985   -1.808091
 H   -3.571691    1.994703   -1.364151
