49 
6hvj_ligand_dft.xyz
 C    3.752162   -1.682157    2.175359
 S    4.075969   -2.254811    0.512054
 O    5.316875   -3.017221    0.516217
 O    2.839925   -2.858726    0.001432
 C    4.355682   -0.732907   -0.382802
 C    5.650652   -0.434145   -0.786655
 C    5.873065    0.766069   -1.446690
 N    4.894069    1.634912   -1.714053
 C    3.657361    1.335494   -1.340889
 C    3.302913    0.154420   -0.660726
 N    1.996272   -0.158784   -0.318878
 C    0.935921    0.720681   -0.094481
 C   -0.374610    0.214443   -0.313631
 C    1.101419    2.007661    0.364061
 C   -0.034031    2.814440    0.595369
 N    0.162593    4.083809    1.052923
 C   -0.913640    4.794787    1.282327
 C   -2.220118    4.287189    1.077869
 N   -2.436800    3.070699    0.640444
 C   -1.345082    2.306594    0.382594
 C   -1.505113    0.960860   -0.084577
 C   -2.842697    0.356383   -0.313144
 C   -3.106459   -0.915200    0.192023
 C   -4.347000   -1.503590   -0.062700
 C   -4.974695   -2.760970    0.284562
 C   -4.380349   -3.868501    1.092698
 C   -6.200206   -2.703953   -0.282477
 O   -6.424856   -1.535585   -0.958158
 C   -5.289355   -0.803788   -0.821061
 C   -5.058257    0.463167   -1.339845
 C   -3.823762    1.031802   -1.071190
 H    3.499227   -2.564561    2.767447
 H    4.652533   -1.204557    2.564493
 H    2.912183   -0.984694    2.151697
 H    6.455003   -1.132202   -0.581912
 H    6.869495    1.040492   -1.780621
 H    2.886400    2.054557   -1.601733
 H    1.777967   -1.149390   -0.328490
 H   -0.479974   -0.794320   -0.704641
 H    2.075681    2.433010    0.575879
 H   -0.772449    5.810540    1.646353
 H   -3.089392    4.906199    1.288859
 H   -2.361742   -1.430608    0.792426
 H   -3.466868   -4.251730    0.623903
 H   -4.112982   -3.522317    2.097552
 H   -5.080106   -4.702326    1.198379
 H   -7.020839   -3.406128   -0.297206
 H   -5.809446    0.979147   -1.927117
 H   -3.601484    2.020978   -1.453087
