69 
6hwu_ligand_xtb.xyz
 C    4.738326    0.197765    0.706947
 C    0.573661   -1.918999   -1.067854
 C   -1.752768   -1.464519   -0.749544
 C   -2.815032   -0.670494   -0.168922
 C   -4.105107   -1.006378    0.169152
 C   -4.223908    1.136288    0.631073
 C   -4.184132    4.615884    0.580839
 C    9.982912    2.464353   -1.508924
 C    8.167084    1.301952   -0.502166
 C    8.964781    0.280946   -0.012970
 C    8.396656   -0.762028    0.707225
 C    7.033843   -0.802334    0.946928
 C    7.170605   -2.814115    2.219118
 C    6.218092    0.234501    0.463713
 C    4.059879   -0.818520   -0.215033
 C    2.549152   -0.760359   -0.086579
 C   -0.423707   -1.156657   -0.470056
 C   -2.014606   -2.517862   -1.634572
 C   -0.944193   -3.209687   -2.164479
 C   -3.566657    5.777268    1.040205
 C   -3.803075    6.983105    0.410149
 C   -4.661177    7.050508   -0.675505
 C   -5.275380    5.897124   -1.132732
 C   -5.041387    4.683564   -0.514091
 C   -4.695368   -2.344234    0.168250
 C   -6.032548   -2.496688   -0.192762
 C   -6.625596   -3.744421   -0.187177
 C   -5.869588   -4.837547    0.195308
 C   -4.546714   -4.713004    0.581999
 C   -3.964134   -3.460857    0.570514
 C    6.794192    1.261719   -0.252656
 F   -6.440841   -6.061542    0.200674
 N    1.930727   -1.696328   -0.872983
 N    0.320637   -2.930337   -1.895367
 N   -4.879713    0.027637    0.608193
 N   -4.741930    2.328242    1.008686
 N   -3.895846    3.402925    1.193467
 O    8.609596    2.373622   -1.225111
 O    6.393506   -1.800306    1.635256
 O    1.961696    0.024868    0.618716
 S   -2.553036    1.039484    0.113557
 H    4.303379    1.181814    0.531724
 H    4.540204   -0.086157    1.741291
 H   10.580745    2.532158   -0.593863
 H   10.328460    1.613061   -2.105288
 H   10.105346    3.379682   -2.085985
 H   10.030559    0.272024   -0.176448
 H    9.046780   -1.541249    1.072590
 H    7.705122   -3.400451    1.463733
 H    7.889794   -2.408578    2.938165
 H    6.467080   -3.460946    2.741794
 H    4.405341   -1.823943    0.031757
 H    4.327272   -0.611027   -1.254778
 H   -0.165921   -0.348805    0.194013
 H   -3.025881   -2.773099   -1.905620
 H   -1.098182   -4.031139   -2.851680
 H   -2.897576    5.724937    1.887259
 H   -3.318125    7.877255    0.772994
 H   -4.848019    7.995614   -1.161884
 H   -5.943348    5.940226   -1.980291
 H   -5.513951    3.783304   -0.876538
 H   -6.597593   -1.624087   -0.479857
 H   -7.657230   -3.878630   -0.472029
 H   -3.993357   -5.585932    0.890181
 H   -2.937883   -3.345571    0.884086
 H    6.184700    2.066620   -0.632813
 H    2.506125   -2.328541   -1.414445
 H   -5.649882    2.310627    1.463626
 H   -3.437974    3.464878    2.098094
