71 
6hwv_ligand_dft.xyz
 C    5.072373    0.722684    0.548485
 C    1.287301   -2.037840   -1.263899
 C   -1.090604   -1.810965   -1.103657
 C   -2.297328   -1.132686   -0.611965
 C   -3.487482   -1.631623   -0.090201
 C   -3.724064    0.483916   -0.194881
 C   -7.044202    3.510801    0.776768
 C    8.534485    3.918127   -1.584225
 C    8.591262    1.964716   -0.238593
 C    9.373385    1.014206    0.424041
 C    8.762018   -0.012209    1.124089
 C    7.371724   -0.100144    1.175168
 C    6.731101   -0.982586    3.247584
 C    6.576552    0.841154    0.522296
 C    4.583462   -0.428577   -0.331981
 C    3.067040   -0.529830   -0.356807
 C    0.178810   -1.368225   -0.738660
 C   -1.193461   -2.918989   -1.953724
 C   -0.024551   -3.525368   -2.385619
 C   -5.742436    3.316103    0.311310
 C   -7.584046    4.788477    0.850985
 C   -6.797260    5.859277    0.454900
 C   -5.496023    5.694533   -0.009651
 C   -4.968493    4.415829   -0.080859
 C   -1.529648    1.219894   -1.177350
 C   -3.860723   -3.024290    0.212485
 C   -2.921205   -3.973444    0.628784
 C   -3.302861   -5.279736    0.910837
 C   -4.639485   -5.625226    0.785577
 C   -5.600881   -4.704740    0.396034
 C   -5.203685   -3.404475    0.112611
 C    7.200645    1.870462   -0.190021
 F   -7.303802    7.097290    0.521869
 F   -5.014700   -6.885789    1.056860
 N    2.606473   -1.663450   -0.985855
 N    1.199626   -3.101023   -2.063828
 N   -4.358110   -0.616068    0.156164
 N   -4.150933    1.807770   -0.163651
 N   -5.310214    1.967927    0.283625
 N   -2.464262    0.231184   -0.661722
 O    9.275549    2.934185   -0.901027
 O    6.768012   -1.146484    1.841336
 O    2.336014    0.317195    0.128034
 H    4.613977    1.656669    0.211597
 H    4.718655    0.554808    1.570565
 H   -7.619061    2.640959    1.076736
 H    7.911349    3.478778   -2.374344
 H    7.896108    4.491440   -0.899268
 H    9.267297    4.587511   -2.036438
 H   10.453639    1.096890    0.370434
 H    9.357876   -0.766188    1.629889
 H    7.742247   -0.921586    3.670531
 H    6.177407   -0.076383    3.527546
 H    6.222731   -1.859249    3.653644
 H    5.009424   -1.372128    0.027923
 H    4.939827   -0.293194   -1.362108
 H    0.327183   -0.540503   -0.061362
 H   -2.162185   -3.296108   -2.260617
 H   -0.065318   -4.394960   -3.037025
 H   -8.592439    4.963610    1.208170
 H   -4.920993    6.565344   -0.304667
 H   -3.957416    4.252309   -0.435793
 H   -0.762056    1.458048   -0.436947
 H   -1.047456    0.830765   -2.075717
 H   -2.090312    2.121658   -1.416869
 H   -1.880717   -3.690064    0.749169
 H   -2.583300   -6.022380    1.237242
 H   -6.638335   -5.010991    0.319125
 H   -5.936666   -2.661531   -0.183866
 H    6.575849    2.596801   -0.699226
 H    3.284225   -2.292738   -1.395916
