39 
6hx1_ligand_dft.xyz
 C   -5.690117   -7.723079   28.312387
 C   -4.902003   -7.382522   27.190563
 C   -4.410305   -8.415728   26.410447
 C   -3.327747   -7.047902   24.660126
 C   -4.476885   -6.531534   23.822338
 C   -4.191383   -5.646507   22.640589
 C   -5.081449  -11.819789   27.014385
 C   -6.781409  -11.304143   30.360033
 C   -7.524990  -12.021738   31.328309
 C   -7.947613  -11.764786   32.630751
 C   -7.783720  -13.927849   29.787874
Cl   -6.291890   -6.415016   29.299499
 N   -3.614115   -8.303492   25.326789
 C   -4.669165   -7.058645   22.426758
 C   -4.773551   -9.737422   26.809331
 N   -4.472312  -10.888537   26.236311
 C   -5.770717  -11.258259   28.079120
 C   -6.555042  -11.897132   29.139246
 N   -8.621279  -12.867164   33.011535
 N   -8.696228  -13.841874   32.096756
 C   -8.022305  -13.331355   31.053990
 C   -7.073112  -13.213612   28.868857
 N   -5.554471   -9.904282   27.929736
 N   -6.036476   -8.909844   28.716131
 H   -4.703268   -6.341873   26.974418
 H   -2.447362   -7.206956   24.028300
 H   -3.036124   -6.310753   25.417182
 H   -5.382209   -6.316907   24.385752
 H   -3.152442   -5.422926   22.412298
 H   -4.876815   -4.831292   22.432618
 H   -4.988892  -12.874411   26.793550
 H   -6.409055  -10.309987   30.572102
 H   -7.823423  -10.914250   33.283721
 H   -8.171629  -14.916117   29.565538
 H   -3.477990   -9.165447   24.815059
 H   -5.682689   -7.213140   22.071430
 H   -3.951121   -7.785023   22.054066
 H   -9.065292  -13.020258   33.904081
 H   -6.904408  -13.640448   27.885024
