19 
6hzp_ligand_xtb.xyz
 C   -1.539285    1.046203   -0.021807
 C    0.900723    0.774473    0.135560
 O    1.077582    0.703901    1.326426
 C    1.901856    0.010901   -0.761240
 N    2.237930   -1.177650    0.048539
 C   -0.185632    1.573857   -0.524961
 C   -1.518330   -0.468022   -0.046101
 O   -0.470734   -1.070208   -0.162245
 O   -2.653183   -1.111014    0.091695
 H   -2.358911    1.445671   -0.620251
 H   -1.691368    1.349618    1.018667
 H    2.786020    0.632482   -0.922138
 H    1.466872   -0.272166   -1.716687
 H    1.421978   -1.812037   -0.001125
 H    3.104343   -1.655225   -0.209811
 H    2.262580   -0.814093    1.030372
 H   -0.082520    2.621700   -0.237704
 H   -0.122359    1.493339   -1.608707
 H   -3.437457   -0.551645    0.191894
