46 
6hzu_ligand_dft.xyz
 C   -3.500317    2.527694    0.081777
 C   -4.568849    0.334933   -0.086700
 C   -3.375183   -0.302889   -0.081411
 C   -2.171304    0.457473    0.012654
 C   -2.213140    1.823225    0.081524
 N    0.932971    3.631533    0.024290
 C    2.260294    3.489724   -0.071257
 C    2.827859    2.235005   -0.128680
 N    4.105259    1.695557   -0.223979
 C    1.945847    1.148809   -0.063471
 C    2.179435   -1.372601   -0.014857
 C    1.199943   -1.676705   -1.157946
 C   -0.144732   -3.150697    0.394777
 O   -3.605881    3.751010    0.146879
 N   -4.602805    1.704972    0.000800
 N   -1.162684    2.724143    0.149141
 C    0.187653    2.518170    0.067469
 C    4.048988    0.310710   -0.211784
 O    4.972407   -0.472694   -0.266151
 N    2.684094   -0.007225   -0.120737
 N    0.634886    1.249475    0.040149
 C    0.516946   -3.034224   -0.982614
 C   -0.908036   -4.477119    0.558023
 C   -2.085132   -4.525600   -0.312800
 N   -3.015631   -4.504490   -1.001706
 C    0.909765   -2.974231    1.489951
 C    1.566847   -1.598488    1.374951
 H   -5.527246   -0.162944   -0.160233
 H   -3.336450   -1.383012   -0.163730
 H   -1.214773   -0.043993    0.023950
 H    2.848651    4.403502   -0.102018
 H    4.980277    2.188863   -0.283559
 H    3.065892   -2.006942   -0.121593
 H    1.739944   -1.641414   -2.110025
 H    0.436513   -0.893408   -1.193975
 H   -0.875962   -2.336415    0.499920
 H   -5.487179    2.195308   -0.004001
 H   -1.464595    3.693070    0.167841
 H    1.253880   -3.844052   -1.087845
 H   -0.224761   -3.172985   -1.777333
 H   -1.246472   -4.599168    1.593266
 H   -0.256816   -5.328651    0.327027
 H    1.666871   -3.766649    1.398306
 H    0.455637   -3.079830    2.482311
 H    0.811618   -0.825638    1.560101
 H    2.348813   -1.479055    2.132422
