37 
6hzy_ligand_dft.xyz
 C    2.933841   -1.165145    0.333465
 C    1.729481   -0.259949    0.211314
 C    3.197718    3.028543   -0.102866
 C    3.042305    1.592199   -0.557510
 C    4.315754    0.767234   -0.389497
 C    4.020919   -0.709066   -0.630484
 O    2.641870   -2.512339    0.079004
 O    5.217497   -1.419626   -0.401501
 O    4.843852    0.955077    0.901581
 O    1.908717    1.061980    0.172141
 N    0.596493   -0.840468    0.268076
 O   -0.456620    0.064077    0.208451
 C   -1.673019   -0.573762    0.124736
 O   -1.833270   -1.762491    0.041561
 N   -2.620850    0.409642    0.147135
 C   -4.016537    0.266634    0.039238
 C   -4.782091    1.437062    0.065516
 C   -6.165005    1.372710   -0.039966
 C   -6.802979    0.142862   -0.173270
 C   -6.036911   -1.017990   -0.197280
 C   -4.650147   -0.971821   -0.091986
 H    3.322866   -1.035376    1.354944
 H    3.993582    3.515373   -0.674256
 H    3.459856    3.057399    0.956434
 H    2.264383    3.574304   -0.261049
 H    2.771117    1.557022   -1.621248
 H    5.026558    1.116832   -1.155631
 H    3.663064   -0.858319   -1.661061
 H    1.687725   -2.634874    0.210179
 H    4.982384   -2.356412   -0.345782
 H    5.507407    0.258626    1.015420
 H   -2.264349    1.349903    0.235262
 H   -4.291231    2.402095    0.169479
 H   -6.743151    2.291727   -0.018319
 H   -7.883733    0.090445   -0.258030
 H   -6.520816   -1.984688   -0.300658
 H   -4.061513   -1.878762   -0.110516
