18 
6i0r_ligand_xtb.xyz
 O    2.262540   -2.481853    0.005086
 C    2.163621   -1.170601   -0.000426
 O    3.144580   -0.457473   -0.007554
 C    0.744471   -0.678504    0.001703
 N   -0.103156   -1.716656    0.003278
 C   -1.398987   -1.547334    0.002489
 C   -1.976488   -0.272535    0.000113
 S   -3.715570   -0.108341   -0.004537
 C   -1.113393    0.812841    0.001266
 C    0.271662    0.644633    0.001513
 C    1.025263    1.974431    0.002268
 O    2.332164    1.986404   -0.009888
 O    0.382204    2.993967    0.012532
 H    1.351008   -2.857628    0.008219
 H   -2.005738   -2.441875    0.003413
 H   -3.731288    1.224782   -0.006016
 H   -1.485324    1.828495    0.001737
 H    2.773770    1.090333   -0.012658
