40 
6i0x_ligand_xtb.xyz
 O   -0.261362    3.026728    0.178344
 C   -1.013362    2.135321   -0.165341
 N   -2.206021    2.332285   -0.741327
 C   -0.657345    0.662741    0.070274
 C   -1.427232    0.135016    1.293674
 C   -1.407617   -1.390811    1.405356
 C   -2.237333   -2.096105    0.321709
 N   -3.614070   -1.654420    0.303785
 C   -4.082888   -0.597793   -0.418605
 C   -5.389177   -0.037910    0.069847
 N   -3.554907   -0.071108   -1.449689
 N    0.767904    0.570350    0.269001
 C    1.500683   -0.414800   -0.296865
 O    0.983700   -1.354606   -0.879976
 C    2.976961   -0.287787   -0.138448
 C    3.784779   -0.912239   -1.084171
 C    3.568046    0.399128    0.917599
 C    4.946341    0.471379    1.009903
 C    5.744138   -0.134601    0.052968
 C    5.161314   -0.830455   -0.993361
 H   -2.490343    3.279035   -0.933869
 H   -2.790506    1.562761   -1.080543
 H   -0.907602    0.075508   -0.817270
 H   -0.972232    0.566458    2.187783
 H   -2.458250    0.490634    1.242858
 H   -1.794634   -1.672899    2.388304
 H   -0.382148   -1.750574    1.327422
 H   -1.784608   -1.930521   -0.656373
 H   -2.224632   -3.173661    0.507237
 H   -4.138913   -1.891178    1.132857
 H   -5.721071    0.741882   -0.607692
 H   -6.141011   -0.823822    0.105586
 H   -5.276733    0.378721    1.070066
 H   -2.716068   -0.536903   -1.784582
 H    1.194859    1.437344    0.570683
 H    3.309781   -1.457409   -1.886008
 H    2.959343    0.859088    1.682280
 H    5.401179    1.002602    1.833235
 H    6.819761   -0.069357    0.127551
 H    5.780925   -1.310933   -1.736093
