44 
6i5i_ligand_dft.xyz
 C    1.515744    2.115373   -0.015923
 C    2.769755    2.752338    0.111061
 C    3.941614    2.011670    0.182724
 N   -1.224969    4.590259   -0.245758
 C    3.780052    0.638215    0.124964
 C    2.508989    0.073902    0.001082
 N    0.447393   -4.280099   -0.064485
 C    2.704588   -1.361687   -0.022200
 C    4.047247   -1.520028    0.085436
 C    1.643040   -2.349006   -0.123188
 C    1.654380   -3.748905    0.079512
 N   -0.350723   -3.236370   -0.357789
 C   -1.761023   -3.452368   -0.634317
 C   -2.612173   -2.305697   -0.136704
 C   -2.550504   -1.915451    1.204728
 N    1.383079    0.785345   -0.072545
 C   -3.305261    3.371485   -0.182555
 N   -1.860508    3.405997   -0.186106
 C    0.063273    4.281086   -0.187760
 C    0.270790    2.886423   -0.087974
 C   -1.011195    2.363514   -0.087747
 O    4.725736   -0.332643    0.177302
 C    0.320563   -2.067090   -0.410245
 C   -3.458826   -1.618885   -1.003591
 C   -4.248165   -0.567652   -0.538575
 C   -4.184585   -0.188893    0.798360
 C   -3.327773   -0.862401    1.669230
 H    2.816445    3.834722    0.160110
 H    4.915254    2.479006    0.281837
 H    4.672049   -2.400017    0.108910
 H    2.488887   -4.385445    0.342502
 H   -2.023283   -4.388701   -0.134647
 H   -1.907454   -3.597179   -1.710697
 H   -1.877595   -2.435762    1.881028
 H   -3.695298    3.692949    0.787678
 H   -3.679129    4.040647   -0.959332
 H   -3.630495    2.349988   -0.386400
 H    0.798045    5.074007   -0.233719
 H   -1.359177    1.342874   -0.018401
 H   -0.158927   -1.122109   -0.611848
 H   -3.504587   -1.906036   -2.051019
 H   -4.911858   -0.047846   -1.223623
 H   -4.801901    0.625977    1.165638
 H   -3.269955   -0.567515    2.712452
