59 
6i5y_ligand_xtb.xyz
 C    4.925662    0.172408    1.271884
 C    6.053413    0.819389    0.804320
 C    6.771981    0.286508   -0.265026
 O    7.856931    0.957235   -0.692925
 C    6.344556   -0.907209   -0.843861
 C    5.214477   -1.545496   -0.372115
 C    4.491048   -1.019813    0.690911
 C    3.217284   -1.672680    1.153942
 C    2.039062   -1.144054    0.322526
 N    2.040811    0.342680    0.391043
 C    0.706424   -1.673856    0.870284
 O    0.598745   -2.167297    1.958335
 N   -0.361443   -1.489612    0.040508
 S   -0.432443   -0.930670   -1.547905
 O   -0.102103   -2.007979   -2.400715
 O    0.342367    0.266042   -1.608025
 O   -1.931661   -0.522362   -1.643297
 C   -2.909801   -1.561028   -1.715253
 C   -3.829016   -1.503927   -0.487237
 O   -3.070049   -1.511129    0.716737
 C   -4.730763   -0.253843   -0.464105
 O   -6.027575   -0.651905   -0.805816
 C   -4.648387    0.247166    1.003163
 O   -5.718555   -0.198609    1.769597
 C   -3.323771   -0.360155    1.503956
 N   -2.207242    0.553117    1.412015
 C   -1.043851    0.413133    2.106728
 N   -0.084203    1.190459    1.689899
 C   -0.636359    1.922630    0.658514
 C   -1.964489    1.518736    0.462594
 N   -2.770521    2.010867   -0.472152
 C   -2.185708    2.916958   -1.236305
 N   -0.956008    3.385047   -1.145336
 C   -0.145258    2.925236   -0.198218
 N    1.122985    3.399555   -0.143561
 H    4.422972    0.566419    2.145884
 H    6.406209    1.730134    1.259653
 H    8.304630    0.482276   -1.404564
 H    6.904805   -1.336715   -1.662010
 H    4.897747   -2.471070   -0.827832
 H    3.027548   -1.461588    2.207259
 H    3.273174   -2.754025    1.038107
 H    2.131441   -1.448546   -0.725294
 H    1.635879    0.711009   -0.490240
 H    1.381164    0.708103    1.165405
 H    3.024253    0.647070    0.526831
 H   -1.259747   -1.810811    0.413645
 H   -2.392026   -2.520972   -1.781543
 H   -3.500918   -1.404491   -2.621012
 H   -4.468896   -2.396563   -0.496346
 H   -4.332688    0.514132   -1.135476
 H   -6.582345    0.123835   -0.954898
 H   -4.606366    1.340029    1.055133
 H   -6.245957   -0.820790    1.241411
 H   -3.413027   -0.685759    2.546942
 H   -0.938615   -0.286624    2.913104
 H   -2.796589    3.341850   -2.019933
 H    1.297181    4.200779   -0.732032
 H    1.594792    3.385679    0.746064
