30 
6i64_ligand_dft.xyz
 C    0.092511    2.765520   -0.459555
 C    2.498809   -0.952287   -1.115974
 C    3.484816   -0.031201    0.882021
 C   -2.662444   -1.126859    1.034584
 C   -3.364111    0.191376   -0.855029
 C    1.356587   -0.200155   -0.888949
 C    2.329840    0.718604    1.092915
 C   -1.520412   -0.350976    1.135896
 C   -2.208954    0.964479   -0.735366
 C    3.571743   -0.869165   -0.226929
 C   -3.594902   -0.855913    0.030415
 C    1.250300    0.650668    0.216317
 C   -1.267988    0.712254    0.258578
 C    0.015267    1.515838    0.426832
 O    4.668300   -1.631569   -0.493136
 O   -4.701186   -1.647340   -0.028881
 H    1.006453    3.322861   -0.233882
 H    0.126357    2.497312   -1.521405
 H   -0.764703    3.427328   -0.294525
 H    2.576592   -1.614656   -1.971848
 H    4.313221    0.036055    1.584537
 H   -2.850265   -1.947058    1.719589
 H   -4.083045    0.411486   -1.641826
 H    0.519523   -0.284136   -1.577483
 H    2.275134    1.370027    1.962378
 H   -0.793211   -0.577967    1.912032
 H   -2.059349    1.776689   -1.439595
 H    0.039392    1.860924    1.469704
 H    5.328193   -1.484852    0.194712
 H   -5.257576   -1.355841   -0.760784
