23 
6i67_ligand_dft.xyz
 C   -2.024117    1.188086   -0.031873
 C   -0.721653    1.658513   -0.048717
 C   -1.164345   -1.060178    0.032706
 C    2.853263    0.366005    0.357255
 C    2.633157   -0.973220   -0.345237
 C    1.784312    1.369374   -0.076658
 C    1.292805   -1.575338    0.076628
 C   -2.246842   -0.188707    0.009159
 C    0.381008    0.797466   -0.025653
 C    0.149118   -0.581330    0.016139
 O   -3.539923   -0.617678    0.023622
 H   -2.873232    1.863041   -0.048349
 H   -0.549057    2.732231   -0.080026
 H   -1.336468   -2.136024    0.064538
 H    3.849817    0.763162    0.135296
 H    2.802113    0.215986    1.444175
 H    3.443498   -1.673496   -0.114676
 H    2.643621   -0.816938   -1.432301
 H    2.000107    1.694604   -1.104752
 H    1.836337    2.271626    0.544436
 H    1.377848   -1.947077    1.107893
 H    1.054115   -2.448145   -0.542807
 H   -3.549550   -1.581576    0.055099
