52 
6i74_ligand_dft.xyz
 C    4.438628    0.022519    0.103203
 C    4.827221   -1.059324    0.895812
 C   -8.959023   -1.813055    0.791625
 C   -7.595044   -1.599585    0.186797
 C   -6.631748   -2.609841    0.210670
 C   -5.380153   -2.423888   -0.367728
 C   -7.272782   -0.390234   -0.436214
 C   -6.027568   -0.194523   -1.021037
 C   -5.071447   -1.211658   -0.982453
 C   -2.653445   -0.135392   -0.286887
 C   -2.661896    1.828140    1.011628
 C   -3.507304    3.084347    1.152992
 C   -1.173305    2.090732    0.787971
 C   -0.488146    0.722134    0.590779
 C    1.897134   -0.098931    0.466643
 C    3.073824    0.555078    0.168603
 C    6.110686   -1.583407    0.860018
 C    7.055953   -1.019832    0.013209
 C    6.702385    0.055206   -0.790905
 C    5.408803    0.561585   -0.746714
 C   -1.138986   -0.062101   -0.551345
 F    3.947033   -1.629414    1.724930
 F    6.438876   -2.614306    1.633785
 F    8.288255   -1.510490   -0.030283
 F    7.601000    0.589309   -1.612233
 F    5.118312    1.569719   -1.558724
 N    0.952838    0.857240    0.384637
 N    2.783760    1.864817   -0.071911
 N    1.510198    2.038877    0.056977
 O   -3.209473    1.135812   -0.104357
 O   -4.848116    2.744501    1.420234
 O   -1.045545    2.926904   -0.328303
 O   -0.561324   -1.347679   -0.545615
 S   -3.464946   -0.934639   -1.706326
 H   -9.677534   -2.130274    0.026601
 H   -9.343818   -0.892705    1.241275
 H   -8.937051   -2.586627    1.564574
 H   -6.861115   -3.557533    0.691073
 H   -4.639470   -3.217103   -0.338183
 H   -8.008938    0.409086   -0.465170
 H   -5.787782    0.745258   -1.508442
 H   -2.822895   -0.763452    0.602578
 H   -2.788989    1.215455    1.919727
 H   -3.403568    3.682130    0.239132
 H   -3.149451    3.678967    1.998559
 H   -0.756260    2.555509    1.695210
 H   -0.614298    0.137667    1.510059
 H    1.660045   -1.123309    0.695882
 H   -0.958912    0.471773   -1.494203
 H   -5.106879    2.115379    0.732729
 H   -0.095860    3.115085   -0.417420
 H   -0.943996   -1.855111   -1.273647
