65 
6i8l_ligand_dft.xyz
 N   -6.189542  -36.277107   -7.289865
 C   -5.936539  -39.494197   -5.812780
 C   -5.563459  -37.405497   -7.298028
 C   -7.541256  -36.602804   -7.023292
 C   -8.604625  -35.714057   -6.921713
 C   -9.874454  -36.214854   -6.636428
 C   -9.000016  -38.477326   -6.566891
 C  -11.761908  -40.343055   -6.663430
 C  -12.770084  -41.431302   -6.394143
 C  -12.085776  -33.551192   -5.516508
 C  -13.846850  -37.418978   -3.329399
 C  -14.130170  -38.563204   -2.597388
 C  -14.897260  -39.567340   -3.191011
 C  -15.093126  -38.260042   -5.220566
 C  -13.818047  -35.975525   -5.201331
 N   -4.229369  -37.517861   -7.580906
 C   -5.514313  -40.861894   -6.371996
 O  -11.354215  -37.979142   -6.162977
 C   -6.414167  -41.035493   -7.597227
 C   -7.741492  -37.967491   -6.848551
 C  -11.573741  -39.271258   -5.619000
 C  -13.049965  -40.384532   -7.436315
 C  -10.770544  -34.104991   -6.042416
 C  -12.549758  -34.139840   -4.182273
 C  -13.080757  -36.181350   -2.945747
 C   -6.379100  -39.646364   -8.240041
 C  -15.382026  -39.413599   -4.489858
 C  -14.310058  -37.276169   -4.634985
 C   -6.410824  -38.649561   -7.041404
 C  -10.081989  -37.601394   -6.454006
 N  -12.805037  -35.557907   -4.234124
 O  -10.972927  -35.422557   -6.515715
 H   -5.140851  -38.996484   -5.248512
 H   -6.779253  -39.614931   -5.125057
 H   -8.438910  -34.652185   -7.062650
 H   -9.136449  -39.544419   -6.426506
 H  -10.871202  -40.637240   -7.213326
 H  -13.329179  -41.375238   -5.463316
 H  -12.536511  -42.440123   -6.720117
 H  -11.964060  -32.469227   -5.381515
 H  -12.857573  -33.682231   -6.283929
 H  -13.760532  -38.682443   -1.582382
 H  -15.122119  -40.473285   -2.635697
 H  -15.465406  -38.143274   -6.234887
 H  -13.367123  -36.092911   -6.191322
 H  -14.652393  -35.248338   -5.278715
 H   -3.712582  -36.650052   -7.559621
 H   -3.739414  -38.314915   -7.203088
 H   -5.614431  -41.665291   -5.636052
 H   -4.463622  -40.841729   -6.692227
 H   -7.435443  -41.281866   -7.278370
 H   -6.079075  -41.826091   -8.275500
 H  -12.489310  -39.174932   -5.030776
 H  -10.760229  -39.528498   -4.927105
 H  -13.790114  -39.625262   -7.204849
 H  -13.006768  -40.671082   -8.482304
 H  -10.010904  -34.108289   -5.247483
 H  -10.401859  -33.464429   -6.857088
 H  -11.771388  -33.963566   -3.427575
 H  -13.447885  -33.576260   -3.848012
 H  -12.147952  -36.392264   -2.407350
 H  -13.704447  -35.543918   -2.284783
 H   -5.440248  -39.522902   -8.793455
 H   -7.200528  -39.459130   -8.935630
 H  -15.980844  -40.200312   -4.939489
