66 
6i8l_ligand_xtb.xyz
 N    4.286867    1.889647   -0.557515
 C    4.704406   -0.821416    1.604225
 C    5.165467    0.880946   -0.241276
 C    2.983844    1.497133   -0.402586
 C    1.821968    2.215535   -0.626527
 C    0.614815    1.571503   -0.400643
 C    1.740451   -0.455043    0.280803
 C   -0.643168   -2.318882   -0.964098
 C   -1.332013   -3.616214   -1.260496
 C   -2.226400    3.873708   -0.273889
 C   -4.112696   -0.354732    1.078116
 C   -4.517324   -1.547118    1.643807
 C   -5.189677   -2.460012    0.841694
 C   -5.047025   -0.975903   -1.055082
 C   -3.836065    1.284390   -0.606157
 N    6.409378    1.059629   -0.318073
 C    5.411283   -2.166447    1.432083
 O   -0.715954   -0.232707    0.315454
 C    4.752435   -2.758563    0.191332
 C    2.942930    0.171656    0.044538
 C   -0.898271   -1.643856    0.361473
 C   -1.734942   -2.373559   -1.990816
 C   -0.737878    3.561043   -0.425761
 C   -2.870769    3.066162    0.851040
 C   -3.386656    0.799060    1.705140
 C    4.636605   -1.556907   -0.743479
 C   -5.451640   -2.178200   -0.489402
 C   -4.374806   -0.072027   -0.257562
 C    4.346936   -0.344967    0.174575
 C    0.560712    0.249814    0.064721
 N   -2.948974    1.622545    0.543585
 O   -0.618192    2.162815   -0.622611
 H    4.603417    2.791619   -0.870453
 H    5.327787   -0.090989    2.119812
 H    3.787125   -0.947879    2.181106
 H    1.855881    3.232110   -0.981683
 H    1.724934   -1.473122    0.633290
 H    0.368551   -2.197942   -1.330005
 H   -2.009346   -4.009738   -0.517847
 H   -0.782528   -4.375375   -1.793431
 H   -2.733888    3.678722   -1.218302
 H   -2.335576    4.934192   -0.048283
 H   -4.316057   -1.765585    2.680721
 H   -5.511764   -3.399298    1.262189
 H   -5.253581   -0.755754   -2.090674
 H   -4.648420    2.014745   -0.675638
 H   -3.267953    1.287488   -1.536673
 H    6.976885    0.260144   -0.061361
 H    5.305668   -2.799609    2.311148
 H    6.475383   -2.013927    1.247844
 H    3.762013   -3.142991    0.440723
 H    5.332604   -3.566874   -0.249539
 H   -0.268833   -2.077775    1.148567
 H   -1.944417   -1.775264    0.649117
 H   -1.463609   -2.276396   -3.030193
 H   -2.689411   -1.933062   -1.744413
 H   -0.184966    3.861185    0.473424
 H   -0.333207    4.109669   -1.283979
 H   -3.884443    3.430261    1.041455
 H   -2.281769    3.183594    1.764310
 H   -2.523937    0.493549    2.297981
 H   -4.065178    1.382368    2.335888
 H    3.859458   -1.679589   -1.497209
 H    5.585131   -1.396931   -1.260037
 H   -5.973510   -2.900693   -1.096254
 H   -1.985306    1.312925    0.265030
