52 
6i8y_ligand_xtb.xyz
 N   -3.719027    0.128007    0.323412
 N    5.625049    1.481399    0.078963
 C    2.399462   -0.098396   -0.058275
 C    2.184117    1.280518   -0.166441
 C    0.906614    1.797550   -0.298168
 C   -0.152514    0.902432   -0.319915
 C   -1.853500    2.568904    0.014161
 C   -3.906192    1.439660    0.981165
 C   -4.838688   -2.019382    0.386099
 C    4.438806    1.063560    0.016472
 C    4.342112   -1.232468    1.243894
 C    3.866272   -0.347529    0.065165
 C    4.496990   -1.368544   -0.914277
 C    4.871262   -2.284285    0.259260
 C    1.342924   -0.981712   -0.073375
 N    3.384474    1.937947   -0.117135
 C    0.052056   -0.479223   -0.194726
 O   -1.100271   -1.253746   -0.185364
 C   -0.923973   -2.655102   -0.210374
 O   -1.473862    1.292676   -0.476250
 C   -3.377790    2.593064    0.131064
 C   -4.007526   -1.034210    1.215098
 C   -4.607129   -1.569200   -1.054675
 C   -4.527385   -0.058732   -0.907212
 H   -2.713748    0.095083    0.029433
 H    6.331938    0.761648    0.177488
 H    0.745426    2.858146   -0.395078
 H   -1.527509    3.358283   -0.672460
 H   -1.389487    2.742577    0.993317
 H   -3.368995    1.420072    1.932689
 H   -4.971971    1.575567    1.183316
 H   -5.895280   -1.934881    0.638069
 H   -4.536163   -3.049311    0.555726
 H    3.539507   -1.563185    1.899670
 H    5.113155   -0.753556    1.844591
 H    5.349688   -0.961685   -1.454538
 H    3.792291   -1.785257   -1.630526
 H    4.321954   -3.222682    0.278969
 H    5.932319   -2.501955    0.349319
 H    1.527859   -2.038902    0.017382
 H    3.522531    2.931884   -0.185251
 H   -0.337453   -2.966524   -1.077927
 H   -0.441825   -3.013607    0.703702
 H   -1.920450   -3.088099   -0.280659
 H   -3.821323    2.565199   -0.863637
 H   -3.669609    3.533243    0.598325
 H   -4.553302   -0.696271    2.095761
 H   -3.062026   -1.470379    1.534560
 H   -5.407672   -1.876711   -1.721830
 H   -3.664901   -1.956215   -1.440525
 H   -4.050073    0.426738   -1.755681
 H   -5.520793    0.366432   -0.747625
