51 
6i8y_ligand_dft.xyz
 N   -7.679481    7.589480   12.445081
 N   -6.874289   16.485314   10.102896
 C   -8.857751   14.126961   12.000546
 C   -7.543847   13.673674   12.042333
 C   -7.211365   12.501164   12.714422
 C   -8.225250   11.785775   13.346549
 C   -6.781295    9.987736   13.937103
 C   -7.987522    7.770073   13.849658
 C   -6.657518    6.428179   10.659252
 C   -7.372286   15.486128   10.892352
 C   -9.581422   16.623732   11.846135
 C   -8.856641   15.401198   11.204643
 C   -9.872619   15.495130   10.026123
 C  -10.783150   16.379377   10.906554
 C   -9.877299   13.422337   12.630553
 N   -6.644576   14.526241   11.357861
 C   -9.563467   12.244607   13.304657
 O  -10.466297   11.454375   13.951109
 C  -11.809210   11.863689   13.938379
 O   -8.034977   10.637844   14.038518
 C   -6.939989    8.617381   14.572715
 C   -6.553833    6.708392   12.168722
 C   -8.137889    6.728082   10.311799
 C   -8.779810    7.041226   11.667348
 H   -5.866770   16.558803   10.091145
 H   -7.364761   17.366682   10.097280
 H   -6.180938   12.168321   12.739376
 H   -6.501649    9.880222   12.881661
 H   -6.007620   10.573198   14.454145
 H   -8.949391    8.287932   13.918321
 H   -8.096524    6.795097   14.366719
 H   -6.376529    5.396655   10.429768
 H   -5.987628    7.082767   10.095401
 H   -9.072444   17.569491   11.626647
 H   -9.749653   16.561250   12.923925
 H  -10.271797   14.543231    9.668347
 H   -9.448617   16.045270    9.179988
 H  -11.237070   17.255683   10.436455
 H  -11.572346   15.800152   11.394542
 H  -10.900859   13.780485   12.591638
 H  -12.361009   11.109666   14.501968
 H  -11.941731   12.841977   14.421425
 H  -12.210435   11.914195   12.916286
 H   -5.964015    8.116903   14.572766
 H   -7.239026    8.735340   15.620211
 H   -6.637419    5.763587   12.743894
 H   -5.605281    7.179208   12.446775
 H   -8.206092    7.599290    9.654671
 H   -8.632063    5.892197    9.809249
 H   -9.600777    7.762688   11.605588
 H   -9.177772    6.113615   12.127504
