69 
6i8z_ligand_dft.xyz
 C    4.841840   22.642231   28.734726
 C    4.334112   21.344275   28.845188
 C    4.692073   20.675833   30.009184
 C    5.207049   24.563903   27.439389
 C    5.010028   26.923706   27.017406
 C    6.598294   24.680646   27.375850
 C    9.000443   24.382350   27.530735
 C   11.492023   30.029720   31.778972
 C   10.543155   30.616294   29.529338
 C   12.948445   33.385175   30.649381
 C   11.574005   31.729715   29.403087
 N    6.813885   22.938219   31.615284
 C    5.911869   22.434379   30.706951
 N    5.563109   23.204529   29.678995
 N    5.490936   21.188735   30.942944
 C    3.482653   20.722077   27.780802
 F    3.114695   19.477827   28.129170
 F    2.359988   21.429736   27.571741
 F    4.125179   20.641717   26.608918
 O    4.562972   23.357608   27.630867
 C    8.694043   25.835523   27.132698
 C    4.412606   25.683753   27.255080
 C    6.394275   27.058499   26.972783
 C    7.182351   25.925896   27.153387
 N   11.986791   32.249155   30.759240
 C   12.521057   31.137429   31.634006
 C   11.066387   29.480361   30.408013
 N   10.099395   28.416737   30.506326
 C    8.210117   26.226309   30.574960
 C    9.490269   26.130120   31.113138
 C    9.850136   24.984536   31.837733
 C    8.940887   23.955969   32.010701
 C    7.648213   24.038058   31.434643
 C    7.293830   25.193846   30.740055
 O    9.181328   22.813195   32.694630
 C   10.465037   22.621412   33.257970
 C   10.529607   27.175096   30.945411
 O   11.718753   26.985830   31.164515
 C    7.659276   23.648663   27.525697
 O    7.511658   22.452708   27.630860
 H    4.331945   19.666924   30.186149
 H    4.376202   27.793030   26.871102
 H    9.706969   23.876785   26.868331
 H    9.401467   24.318663   28.549242
 H   10.614668   30.393647   32.331281
 H   11.936399   29.220034   32.363109
 H    9.607957   31.022890   29.940561
 H   10.315321   30.249046   28.524418
 H   13.178085   33.755387   31.649085
 H   13.858177   33.022580   30.168892
 H   12.499835   34.177906   30.049597
 H   12.492057   31.374338   28.925816
 H   11.192127   32.581315   28.835525
 H    7.151332   22.241279   32.266879
 H    9.145275   26.557661   27.822280
 H    9.071917   26.066910   26.130388
 H    3.334391   25.578496   27.302383
 H    6.847661   28.028287   26.786537
 H   11.139301   32.601935   31.214918
 H   13.433265   30.781178   31.145776
 H   12.789815   31.586392   32.592812
 H   11.954909   29.043323   29.938013
 H    9.129039   28.660344   30.643470
 H    7.905227   27.078483   29.974011
 H   10.855871   24.924384   32.235673
 H    6.312194   25.266224   30.297096
 H   10.436477   21.644523   33.739365
 H   11.239248   22.625147   32.482077
 H   10.687104   23.392120   34.005439
