56 
6ic0_ligand_xtb.xyz
 C    3.308908    1.554393    0.011250
 C    4.311358    2.474010   -0.257759
 N    4.325765    3.833077   -0.108565
 C    3.239063    4.629457    0.382523
 C    5.545087    4.295023   -0.514607
 C    6.335544    3.263460   -0.924969
 C    5.572078    2.076207   -0.771397
 C    5.812487    0.721988   -1.006988
 C    4.821901   -0.187458   -0.728601
 C    3.571840    0.211809   -0.221721
 C    2.529720   -0.785596    0.046127
 C    1.226109   -0.553369   -0.316567
 C    2.838696   -2.015496    0.696417
 N    4.091619   -2.270638    1.111213
 C    4.312331   -3.404594    1.723126
 C    3.284911   -4.338629    1.952761
 N    2.052989   -4.117519    1.580868
 C    1.793282   -2.951767    0.947260
 C    0.474737   -2.676034    0.553060
 C    0.193591   -1.491148   -0.090906
 N   -1.078085   -1.124769   -0.499784
 C   -2.137489   -1.913044   -0.826485
 C   -1.989783   -3.257450   -1.226867
 N   -2.980521   -4.027248   -1.598490
 C   -4.210082   -3.528374   -1.611724
 C   -4.488045   -2.222357   -1.261878
 C   -3.451259   -1.381769   -0.848865
 C   -3.688088    0.033092   -0.481009
 O   -2.829822    0.898345   -0.572865
 N   -4.944702    0.289738   -0.002792
 C   -5.480994    1.509327    0.384544
 C   -6.780485    1.551334    0.900875
 N   -7.354774    2.674162    1.281798
 C   -6.643970    3.781835    1.153886
 N   -5.415837    3.863180    0.678633
 C   -4.829342    2.744679    0.295093
 H    2.359346    1.866396    0.420754
 H    2.372286    4.553860   -0.279942
 H    2.941999    4.298896    1.381071
 H    3.549827    5.671379    0.435818
 H    5.764032    5.345974   -0.479734
 H    7.339929    3.334857   -1.291512
 H    6.764069    0.398927   -1.401932
 H    4.990229   -1.236729   -0.909783
 H    0.971773    0.368104   -0.821096
 H    5.327123   -3.588451    2.049848
 H    3.479002   -5.277522    2.454982
 H   -0.287464   -3.397843    0.796617
 H   -1.274989   -0.126041   -0.533510
 H   -1.005074   -3.697443   -1.288188
 H   -4.989015   -4.203074   -1.936308
 H   -5.499610   -1.855469   -1.360351
 H   -5.561455   -0.502193    0.122294
 H   -7.372338    0.648662    1.007481
 H   -7.114273    4.703729    1.466964
 H   -3.824634    2.830161   -0.090179
