38 
6ic2_ligand_dft.xyz
 C   -2.757392   -0.572965    2.138418
 C   -3.888013   -1.367255    2.232113
 C   -4.518889   -0.712040    0.007972
 C   -3.389195    0.093327   -0.094497
 C   -2.493727    0.164787    0.975512
 C   -0.834417    1.812179    0.005404
 O    2.189187    3.573479    0.636882
 C   -4.768784   -1.437577    1.162886
 F   -5.857091   -2.206511    1.259957
Br   -5.728027   -0.813862   -1.433740
 N   -1.309658    0.915506    0.952835
 N   -1.508237    2.089171   -1.049876
 O   -0.816375    2.927275   -1.909841
 C    0.523197    2.302779    0.327814
 C    1.634722    1.526322    0.802544
 N    2.653107    2.327320    0.976210
 N    0.906976    3.546446    0.243148
 N    1.649739    0.187616    1.103468
 C    2.920125   -0.473927    1.350570
 C    3.759425   -0.660980    0.083512
 N    4.995902   -1.358334    0.441894
 S    6.188878   -1.396485   -0.725014
 O    6.021886   -2.490356   -1.665671
 O    6.320220   -0.035532   -1.207523
 N    7.442035   -1.863422    0.268108
 H   -2.069608   -0.526151    2.978804
 H   -4.100410   -1.938632    3.128759
 H   -3.214547    0.666497   -0.992722
 H   -0.825515    0.957629    1.837663
 H   -1.440306    3.037190   -2.637431
 H    0.957173   -0.354721    0.604703
 H    2.698741   -1.442307    1.812369
 H    3.484531    0.118354    2.075132
 H    4.035601    0.314563   -0.321868
 H    3.180660   -1.203440   -0.678006
 H    4.845152   -2.305417    0.781251
 H    8.165513   -2.313279   -0.284731
 H    7.805010   -1.079719    0.802784
