38 
6ic2_ligand_xtb.xyz
 C   -3.063744    2.379094   -0.105121
 C   -4.411734    2.358344   -0.395317
 C   -4.412549   -0.031221   -0.165582
 C   -3.060658   -0.016418    0.125770
 C   -2.368011    1.193091    0.157446
 C   -0.078516    0.322855    0.670353
 O    2.652642    2.534374    0.878848
 C   -5.088495    1.150819   -0.426314
 F   -6.402957    1.135079   -0.709577
Br   -5.341399   -1.684701   -0.203527
 N   -1.024038    1.292128    0.450017
 N   -0.442040   -0.904129    0.657697
 O    0.506908   -1.908255    0.870847
 C    1.248826    0.922322    0.879507
 C    2.555061    0.422603    1.277793
 N    3.381111    1.448996    1.266925
 N    1.389574    2.203938    0.657613
 N    2.874730   -0.797622    1.720081
 C    4.236922   -1.268574    1.772696
 C    4.662941   -2.044572    0.509768
 N    5.361453   -1.187086   -0.424355
 S    4.488059   -0.211187   -1.445831
 O    4.894077   -0.459929   -2.791623
 O    3.093242   -0.315190   -1.122458
 N    5.117324    1.249632   -1.006576
 H   -2.537835    3.321430   -0.082093
 H   -4.954334    3.267141   -0.600748
 H   -2.535510   -0.932820    0.326786
 H   -0.632750    2.226134    0.423033
 H    0.003697   -2.721107    0.719777
 H    2.175418   -1.502462    1.516507
 H    4.313373   -1.930044    2.640846
 H    4.896863   -0.411773    1.911808
 H    3.769003   -2.479109    0.044280
 H    5.339764   -2.850992    0.795108
 H    6.083266   -1.638613   -0.958568
 H    4.996074    1.945973   -1.722598
 H    4.747582    1.554998   -0.111915
