88 
6idb_ligand_xtb.xyz
 C   -1.077885   -1.123525    0.990993
 C   -1.365280   -1.436974   -0.496218
 C   -2.139618   -2.744128   -0.696690
 C   -3.597607   -2.584712   -0.255428
 C   -4.220446   -1.376262   -0.974318
 C   -3.374422   -0.134888   -0.647870
 C   -3.889008    1.107193   -1.406506
 C   -3.205110    2.416635   -0.942539
 C   -3.504863    2.760755    0.548072
 C   -6.027959   -0.841621    0.637791
 C   -7.528480   -0.928752    0.805904
 N   -5.607296   -1.204185   -0.599466
 O   -1.283794   -0.021532    1.450506
 O   -0.516109   -2.095793    1.656230
 O   -4.366118   -3.717142   -0.592246
 O   -2.029412   -0.342690   -1.071822
 O   -3.733602    0.938257   -2.788283
 O   -1.828443    2.403293   -1.223824
 O   -2.429276    2.535260    1.420567
 O   -5.280401   -0.452521    1.511391
 C    3.780115   -0.833358    0.027870
 C    4.774784   -2.000284    0.046314
 C    4.578832   -2.825220   -1.230626
 C    3.113888   -3.275380   -1.350302
 C    2.174035   -2.068278   -1.185569
 C    0.725046   -2.536545   -1.048721
 O    6.104278   -1.553083    0.084289
 O    5.377460   -3.983263   -1.208101
 O    2.817678   -4.239490   -0.376557
 O    2.462455   -1.327853   -0.021215
 O   -0.120114   -1.404179   -1.160775
 C    0.816750    2.621963    1.179642
 C    2.136309    3.136550    0.564310
 C    3.034194    1.939222    0.201104
 C    3.173665    1.027803    1.433123
 C    1.781508    0.649192    1.961192
 C    1.846446   -0.228675    3.209544
 C    2.229192    4.124218   -1.790926
 C    1.368947    5.011695   -2.662419
 N    1.715118    3.952861   -0.562337
 O    0.051472    3.705881    1.533646
 O    4.322510    2.306591   -0.182550
 O    3.977923   -0.119555    1.203634
 O    1.054581    1.809310    2.305726
 O    0.554463   -0.650887    3.598309
 O    3.273254    3.633660   -2.191128
 H   -1.658268   -3.545122   -0.133727
 H   -2.121478   -2.990089   -1.761174
 H   -3.644230   -2.400903    0.829916
 H   -4.188228   -1.546713   -2.054597
 H   -3.426144    0.038077    0.431376
 H   -4.965261    1.192428   -1.227485
 H   -3.616386    3.218516   -1.567736
 H   -3.709540    3.830186    0.632321
 H   -4.393716    2.207854    0.877451
 H   -7.843855   -1.968555    0.753354
 H   -8.029486   -0.370132    0.019213
 H   -7.804816   -0.521158    1.773652
 H   -6.276088   -1.643346   -1.210960
 H   -0.132897   -1.728318    2.519642
 H   -4.003818   -4.488943   -0.143705
 H   -2.782830    0.946888   -2.968266
 H   -1.467032    1.557729   -0.917036
 H   -2.189860    1.594883    1.439909
 H    3.985880   -0.209635   -0.863594
 H    4.548119   -2.623627    0.925755
 H    4.845050   -2.194848   -2.093099
 H    2.963288   -3.703418   -2.355346
 H    2.273516   -1.417123   -2.068441
 H    0.499996   -3.258127   -1.842160
 H    0.635204   -3.017986   -0.072876
 H    6.135557   -0.776769    0.657253
 H    6.264484   -3.707429   -0.945017
 H    3.594552   -4.816313   -0.324034
 H    0.314275    2.002834    0.406874
 H    2.650996    3.765026    1.303831
 H    2.517494    1.384349   -0.601737
 H    3.720659    1.578190    2.206432
 H    1.255450    0.108900    1.161319
 H    2.434324   -1.122552    3.000547
 H    2.310432    0.339759    4.023008
 H    1.818999    5.090799   -3.647695
 H    1.290947    6.003104   -2.222604
 H    0.371412    4.587133   -2.749173
 H    0.847157    4.429392   -0.348721
 H   -0.880229    3.420921    1.642194
 H    4.224839    2.842647   -1.005210
 H   -0.011872    0.136889    3.564234
