64 
6idg_ligand_xtb.xyz
 O   -0.243752    4.182486    1.403339
 C    1.057590    3.768849    1.046219
 C    1.119027    3.227435   -0.385501
 O    2.384908    2.650096   -0.641280
 C    0.096601    2.120094   -0.689312
 O   -1.168716    2.668951   -0.972312
 C    0.763906    1.419196   -1.868762
 C    2.253963    1.537868   -1.507295
 N    2.790266    0.347075   -0.865610
 C    3.371919   -0.571823   -1.685282
 O    3.565887   -0.399799   -2.863343
 N    3.803991   -1.748321   -1.064300
 C    3.804216   -2.008810    0.261429
 O    4.037275   -3.089397    0.752760
 C    3.536100   -0.790245    1.145399
 C    4.816822    0.052647    1.233509
 O    3.158049   -1.240311    2.419756
 C    2.393980    0.016015    0.487796
 P   -2.440480    2.098437   -0.163018
 O   -1.970116    2.016332    1.352276
 O   -3.648602    2.847032   -0.468091
 O   -2.480228    0.530992   -0.483215
 C   -3.512419    0.072593   -1.345592
 C   -3.975313   -1.324782   -0.929803
 O   -2.996394   -2.298284   -1.255229
 C   -2.447241   -2.855393   -0.097764
 N   -1.196831   -2.167513    0.252859
 C   -0.125447   -2.389184   -0.671839
 O   -0.223245   -3.233054   -1.523201
 N    0.959619   -1.594706   -0.513568
 C    1.114340   -0.802039    0.504020
 C    0.155548   -0.696003    1.541629
 C    0.361735    0.104796    2.788465
 C   -1.018056   -1.363828    1.309749
 C   -3.552338   -2.773682    0.948764
 C   -4.287582   -1.470576    0.573894
 O   -5.678275   -1.544860    0.736885
 H   -0.536780    4.870219    0.792299
 H    1.331375    2.985634    1.756606
 H    1.774391    4.591477    1.151411
 H    0.936267    4.054955   -1.092059
 H    0.016846    1.434371    0.157667
 H    0.464129    0.381381   -1.988405
 H    0.544709    1.966286   -2.785127
 H    2.878514    1.690233   -2.396090
 H    4.022394   -2.506998   -1.701144
 H    5.075644    0.467859    0.264484
 H    5.634519   -0.568496    1.592064
 H    4.659168    0.862789    1.941152
 H    3.432562   -2.173462    2.473754
 H    2.268059    0.951085    1.038318
 H   -1.529327    2.838086    1.622512
 H   -4.347497    0.777617   -1.313477
 H   -3.123476    0.011523   -2.366014
 H   -4.879499   -1.563450   -1.503277
 H   -2.149939   -3.879729   -0.356067
 H    1.339583   -0.117852    3.208849
 H    0.298140    1.173934    2.590477
 H   -0.404526   -0.141364    3.518488
 H   -1.839419   -1.249087    2.000548
 H   -4.238666   -3.605195    0.777915
 H   -3.198984   -2.817001    1.975719
 H   -3.881126   -0.607859    1.119220
 H   -5.897632   -1.519495    1.674671
