50 
6iiu_ligand_dft.xyz
 F   -5.797425    3.089897    0.184838
 C    1.096001   -0.680108   -2.491823
 C    0.020358   -1.586422   -1.874314
 C   -4.942020    2.064439    0.103241
 C   -3.752079    2.130146    0.817708
 C   -2.865778    1.065445    0.739239
 C   -5.276057    0.977178   -0.690378
 C   -4.382535   -0.084557   -0.775386
 C   -3.191175   -0.028683   -0.061258
 S   -2.069408   -1.400835   -0.167306
 O   -1.724345   -1.768240    1.215780
 O   -2.639012   -2.421171   -1.032214
 N   -0.767859   -0.748795   -0.945810
 C    0.687501   -2.799947   -1.206041
 C    1.573533   -2.396113   -0.016821
 C    2.280959   -1.111433   -0.316464
 C    2.116702   -0.354483   -1.440533
 C    2.969952    0.793949   -1.303309
 C    3.613156    0.671358   -0.052051
 C    4.500888    1.637567    0.422316
 C    4.748976    2.734864   -0.388267
 C    4.126457    2.869692   -1.640574
 C    3.241492    1.909423   -2.104379
 N    3.197109   -0.511203    0.537491
 C    3.279727   -0.763974    1.959552
 C    2.345649    0.152428    2.782491
 C    0.914455   -0.020686    2.335934
 O    0.375493    0.694667    1.510773
 O    0.330648   -1.081500    2.881885
 H    1.538686   -1.197373   -3.352946
 H    0.630065    0.235473   -2.872681
 H   -0.669375   -1.930856   -2.647714
 H   -3.535256    3.004012    1.421360
 H   -1.923858    1.091423    1.279794
 H   -6.218419    0.970861   -1.226015
 H   -4.605141   -0.953687   -1.384502
 H   -0.208393   -0.181272   -0.303605
 H   -0.073817   -3.512629   -0.876419
 H    1.292325   -3.304392   -1.968954
 H    2.297331   -3.193682    0.192377
 H    0.956120   -2.303586    0.882981
 H    4.987897    1.537862    1.388313
 H    5.438388    3.502157   -0.049197
 H    4.344078    3.741076   -2.250799
 H    2.762338    2.021338   -3.073100
 H    4.311226   -0.610428    2.290662
 H    3.033608   -1.812986    2.141379
 H    2.441991   -0.100399    3.842182
 H    2.624673    1.196617    2.626603
 H   -0.521097   -1.245803    2.408774
