102 
6iiw_ligand_dft.xyz
 N   -8.369154    2.141232   -0.313333
 C   -7.542093    1.026559   -0.844881
 C   -6.233638    1.095785   -0.048471
 O   -5.823815    2.168708    0.382082
 C   -7.310661    1.096452   -2.368336
 C   -6.680710    2.420145   -2.812239
 C   -8.602649    0.802136   -3.136945
 N   -5.631408   -0.092061    0.142618
 C   -4.295754   -0.253149    0.685015
 C   -3.474250   -0.969454   -0.400588
 O   -4.028827   -1.616290   -1.278395
 C   -4.298387   -1.102922    1.977084
 C   -4.568585   -0.345533    3.283141
 C   -5.856262    0.475361    3.346568
 N   -7.037893   -0.335086    3.088668
 C   -8.135579    0.125617    2.439706
 N   -8.384303    1.380670    2.178900
 N   -8.997714   -0.817962    1.940675
 N   -2.131641   -0.853433   -0.295376
 C   -1.236731   -1.655221   -1.097833
 C    0.096928   -1.724368   -0.346577
 O    0.253793   -1.128288    0.722777
 C   -1.075962   -1.085957   -2.525466
 O   -0.395647   -2.100930   -3.253736
 C   -0.335795    0.245089   -2.563661
 N    1.057808   -2.455545   -0.938701
 C    2.385445   -2.631192   -0.364152
 C    3.269414   -1.413684   -0.709106
 O    4.224629   -1.452262   -1.484831
 C    2.944786   -3.986883   -0.810304
 C    4.419887   -4.259274   -0.483840
 C    4.886522   -3.875195    0.935546
 C    6.311986   -3.335296    0.951084
 N    6.362575   -1.987642    0.309634
 N    2.895838   -0.281725   -0.077936
 C    3.468534    1.006365   -0.390899
 C    4.864696    1.182470    0.233274
 O    5.324961    0.433602    1.098422
 C    2.518339    2.105821    0.097706
 N    5.537884    2.245878   -0.229653
 C    6.807620    2.708568    0.293997
 C    7.061901    4.054131   -0.384692
 O    6.291266    4.560095   -1.164428
 C    7.970040    1.716414    0.065006
 C    8.234063    0.785359    1.221991
 O    8.321405    1.434779    2.377232
 O    8.429514   -0.412149    1.129538
 O    8.212601    4.591379    0.004924
 H   -7.801728    2.994746   -0.301147
 H   -8.583359    1.876235    0.768462
 H   -9.219087    2.295863   -0.855519
 H   -8.075985    0.104310   -0.592941
 H   -6.599510    0.288054   -2.584833
 H   -5.769675    2.655432   -2.254599
 H   -7.379443    3.257635   -2.694744
 H   -6.427054    2.369441   -3.874389
 H   -9.349429    1.596510   -3.009793
 H   -8.396387    0.739745   -4.208727
 H   -9.053740   -0.146623   -2.828436
 H   -5.944653   -0.889096   -0.401066
 H   -3.889637    0.745663    0.874403
 H   -5.028554   -1.909061    1.840349
 H   -3.322843   -1.591504    2.080255
 H   -4.554115   -1.072089    4.105166
 H   -3.742394    0.347445    3.481645
 H   -5.819048    1.263612    2.589624
 H   -5.924662    0.961698    4.327620
 H   -7.082919   -1.245045    3.524270
 H   -7.778747    2.009486    2.696522
 H   -9.968055   -0.540088    1.906076
 H   -8.845120   -1.790051    2.164867
 H   -1.701034   -0.419714    0.514280
 H   -1.647671   -2.665645   -1.208969
 H   -2.092224   -0.965863   -2.918645
 H   -0.331970   -1.840644   -4.180322
 H   -0.304122    0.640982   -3.583716
 H    0.696234    0.127393   -2.213386
 H   -0.843593    0.984349   -1.936050
 H    0.884732   -2.750236   -1.897180
 H    2.243191   -2.627068    0.722063
 H    2.823474   -4.083785   -1.895110
 H    2.305154   -4.750234   -0.354184
 H    4.610302   -5.324645   -0.644861
 H    5.020467   -3.736081   -1.232250
 H    4.843643   -4.741083    1.602664
 H    4.237310   -3.118517    1.393949
 H    6.694893   -3.210593    1.965594
 H    6.995633   -3.985672    0.400252
 H    5.802790   -1.279544    0.821924
 H    5.957612   -1.984044   -0.636600
 H    7.316039   -1.586257    0.301365
 H    2.075740   -0.322828    0.523354
 H    3.589933    1.074469   -1.478938
 H    2.407661    2.063719    1.185978
 H    1.534275    1.972725   -0.360545
 H    2.885621    3.099328   -0.168748
 H    5.129786    2.862633   -0.925701
 H    6.721546    2.906001    1.369013
 H    8.899135    2.279812   -0.076157
 H    7.794896    1.127035   -0.836612
 H    8.537982    0.793820    3.074609
 H    8.317101    5.449580   -0.440047
