102 
6iiw_ligand_xtb.xyz
 N   -8.654463    1.260412   -1.296292
 C   -7.677724    0.174483   -1.240444
 C   -6.403012    0.709431   -0.592680
 O   -6.074490    1.883633   -0.646801
 C   -7.312097   -0.456215   -2.612026
 C   -6.863078    0.605695   -3.614700
 C   -8.484407   -1.262585   -3.166813
 N   -5.707178   -0.205332    0.104313
 C   -4.375699    0.022486    0.626989
 C   -3.521392   -1.157055    0.127735
 O   -4.048164   -2.168320   -0.289648
 C   -4.372801    0.036702    2.171764
 C   -4.408763    1.429082    2.809957
 C   -5.618525    2.282439    2.430961
 N   -6.855247    1.622578    2.813537
 C   -7.972806    1.584244    2.092409
 N   -8.194641    2.396201    1.070808
 N   -8.924814    0.694294    2.417100
 N   -2.196391   -0.975609    0.197052
 C   -1.245375   -2.021442   -0.095569
 C    0.102896   -1.580787    0.469628
 O    0.237132   -0.486794    1.006312
 C   -1.165922   -2.324046   -1.612465
 O   -0.375206   -3.490011   -1.748459
 C   -0.587322   -1.150388   -2.399905
 N    1.081237   -2.474089    0.326182
 C    2.421994   -2.323015    0.867380
 C    3.275582   -1.420315   -0.047593
 O    4.313974   -1.764654   -0.598038
 C    2.972682   -3.730782    1.140836
 C    4.477598   -3.851305    1.394713
 C    5.038170   -2.906724    2.466367
 C    6.478900   -2.515146    2.153145
 N    6.475957   -1.556747    1.029150
 N    2.770053   -0.189897   -0.163233
 C    3.481430    0.870066   -0.846302
 C    4.814192    1.126528   -0.133436
 O    5.046743    0.691210    0.985175
 C    2.636350    2.139704   -0.841576
 N    5.707230    1.822835   -0.850486
 C    6.889582    2.411735   -0.260287
 C    6.612411    3.906791   -0.031891
 O    5.583951    4.427963   -0.359697
 C    8.129614    2.227215   -1.136208
 C    8.631508    0.802045   -1.173898
 O    9.523829    0.635470   -2.126540
 O    8.276649   -0.078953   -0.425190
 O    7.626892    4.515001    0.555403
 H   -8.264856    2.016940   -1.853779
 H   -8.687584    2.025936    0.217246
 H   -9.505597    0.943148   -1.748630
 H   -8.092366   -0.612498   -0.598725
 H   -6.477848   -1.143621   -2.431481
 H   -6.107195    1.259070   -3.183924
 H   -7.703270    1.213299   -3.945319
 H   -6.439622    0.126529   -4.492904
 H   -9.337013   -0.622844   -3.385954
 H   -8.189910   -1.747774   -4.093003
 H   -8.797140   -2.032117   -2.464550
 H   -5.900128   -1.193739   -0.031825
 H   -3.994861    0.966658    0.226136
 H   -5.223254   -0.558045    2.509745
 H   -3.469887   -0.462004    2.528359
 H   -4.377771    1.305331    3.894652
 H   -3.514790    1.982563    2.520245
 H   -5.619787    2.443894    1.351119
 H   -5.542995    3.252699    2.932774
 H   -6.819868    1.102555    3.678645
 H   -7.457288    3.038559    0.816586
 H   -9.828166    0.771491    1.980297
 H   -8.870334    0.156873    3.265355
 H   -1.779433   -0.144057    0.602441
 H   -1.557917   -2.953434    0.394221
 H   -2.192087   -2.526510   -1.947127
 H   -0.427650   -3.803732   -2.657950
 H   -0.618276   -1.363112   -3.465995
 H    0.447302   -0.974504   -2.111860
 H   -1.168353   -0.252207   -2.211061
 H    0.891532   -3.280146   -0.259968
 H    2.315313   -1.769737    1.810607
 H    2.742207   -4.358988    0.277712
 H    2.423787   -4.129066    1.996102
 H    4.676321   -4.882954    1.687382
 H    4.987118   -3.691161    0.445881
 H    4.997410   -3.386249    3.443108
 H    4.448858   -1.991879    2.526931
 H    6.949545   -2.044046    3.016864
 H    7.059698   -3.396560    1.876784
 H    6.041202   -0.645744    1.301952
 H    5.850324   -1.890925    0.262913
 H    7.402643   -1.337798    0.638893
 H    1.941386    0.058843    0.374447
 H    3.702126    0.545907   -1.871837
 H    2.389675    2.414567    0.181509
 H    1.714619    1.976837   -1.394169
 H    3.172830    2.969282   -1.293492
 H    5.405130    2.241200   -1.719465
 H    7.047641    1.935560    0.714138
 H    8.940701    2.842278   -0.737634
 H    7.944472    2.555510   -2.160415
 H    9.898214   -0.260893   -2.151709
 H    7.448590    5.458890    0.706125
