68 
6ijl_ligand_dft.xyz
 C   -5.034119    0.216943    0.924292
 C   -4.003821   -0.447420   -1.240738
 C   -3.500687   -1.741306   -0.606056
 C   -4.506123   -1.098339    1.508557
 C   -2.090487   -1.374500    1.439033
 C   -0.872060   -1.951180    0.763585
 C    0.274070   -1.196806    0.757279
 C    1.468076   -1.708903    0.193486
 C    1.475258   -3.024061   -0.344538
 C    0.287595   -3.796677   -0.299286
 C   -0.856699   -3.272045    0.239468
 C    3.691446   -1.387926   -0.315265
 C    3.792283   -2.680361   -0.895725
 C    2.688041   -3.488886   -0.905053
 C   -4.169034    1.425035    1.288724
 C   -6.128440    0.698015   -1.259664
 C   -8.110302    1.964027   -1.133466
 C   -8.918247    2.690056   -0.073799
 C   -8.114180    3.758211    0.665558
 C    4.860766   -0.464413   -0.261049
 C    4.632860    0.909542   -0.108792
 C    5.692787    1.799042   -0.042116
 C    7.009254    1.332559   -0.119454
 C    7.245629   -0.034568   -0.265784
 C    6.179539   -0.923382   -0.338125
 C    8.144935    2.284363    0.037329
 C    9.325438    2.350689   -0.882375
 C    8.346620    3.498328   -0.817642
 N   -5.166127    0.052003   -0.527016
 N   -3.300897   -1.557611    0.827872
 N    2.573604   -0.919057    0.196971
 N    8.459189    2.473523    1.505646
 O   -1.968181   -0.808852    2.516433
 O   -7.042274    1.281154   -0.462963
 O   -6.165241    0.729403   -2.473873
 H   -6.038494    0.368367    1.321484
 H   -3.192748    0.295957   -1.233187
 H   -4.293572   -0.615975   -2.278285
 H   -4.237309   -2.540077   -0.755926
 H   -2.568957   -2.037348   -1.087862
 H   -5.270797   -1.875298    1.389647
 H   -4.277355   -0.979185    2.567133
 H    0.286220   -0.204929    1.195562
 H    0.298959   -4.809457   -0.692076
 H   -1.761577   -3.870585    0.285940
 H    4.717458   -3.016842   -1.349964
 H    2.730679   -4.480212   -1.347638
 H   -4.115857    1.543375    2.374649
 H   -4.599289    2.332856    0.855144
 H   -3.143673    1.313541    0.922855
 H   -8.715264    1.231489   -1.676516
 H   -7.685672    2.659614   -1.864312
 H   -9.781417    3.146726   -0.572485
 H   -9.316100    1.956164    0.636939
 H   -7.729301    4.510431   -0.032641
 H   -7.260407    3.313246    1.185746
 H   -8.733274    4.272654    1.406459
 H    3.608269    1.257239   -0.041874
 H    5.497579    2.865242    0.052415
 H    8.264450   -0.409047   -0.333903
 H    6.387086   -1.983490   -0.436267
 H    9.301800    1.692831   -1.744257
 H   10.316992    2.507842   -0.465441
 H    8.683294    4.424743   -0.359202
 H    7.644270    3.631918   -1.633121
 H    9.226825    3.132921    1.671121
 H    8.711717    1.573959    1.929757
 H    7.628250    2.819452    1.998722
