29 
6ikm_ligand_dft.xyz
 N   23.808990   24.667734    3.499227
 C   23.256896   24.442246    2.163180
 C   21.779877   24.046701    2.191554
 C   20.828044   25.098096    2.777009
 C   20.777374   25.200000    4.308007
 N   20.340844   23.975231    4.983039
 C   21.390134   23.170912    5.583484
 C   20.804769   22.029830    6.416887
 C   19.808075   21.159201    5.648679
 N   20.329502   20.793697    4.329403
 H   24.787412   24.932755    3.426827
 H   23.783631   23.799430    4.027766
 H   23.356344   25.382687    1.605694
 H   23.808439   23.676880    1.588119
 H   21.485963   23.850038    1.152200
 H   21.649939   23.091473    2.718785
 H   21.082449   26.086216    2.368842
 H   19.810983   24.877544    2.421220
 H   21.764061   25.485447    4.682091
 H   20.082012   26.011864    4.565281
 H   19.838017   23.390390    4.320797
 H   22.087705   22.737067    4.844850
 H   21.987001   23.817324    6.237292
 H   21.632388   21.406246    6.783815
 H   20.294566   22.439719    7.295795
 H   19.537087   20.291886    6.273842
 H   18.886758   21.731239    5.491617
 H   19.656864   20.212811    3.837552
 H   21.170877   20.232334    4.435145
