32 
6ikm_ligand_xtb.xyz
 N    5.668900   -0.267284   -0.019927
 C    4.409475    0.528930    0.003347
 C    3.167606   -0.366960   -0.006411
 C    1.880762    0.476067    0.016403
 C    0.635688   -0.416752    0.009229
 N   -0.628888    0.383477    0.013702
 C   -1.865425   -0.448895    0.012623
 C   -3.151749    0.390967   -0.006320
 C   -4.379928   -0.531489    0.010575
 N   -5.660989    0.226161   -0.024007
 H    6.490660    0.356004   -0.011088
 H    5.739776   -0.886344    0.801049
 H    5.731223   -0.851394   -0.866818
 H    4.407081    1.185363   -0.869453
 H    4.417926    1.150842    0.901061
 H    3.180375   -1.022953    0.865711
 H    3.170578   -0.989860   -0.902582
 H    1.874158    1.130719   -0.857233
 H    1.885336    1.101114    0.911489
 H    0.632808   -1.061952    0.890316
 H    0.633924   -1.048996   -0.881236
 H   -0.628384    1.000311   -0.811341
 H   -0.626384    0.995295    0.842484
 H   -1.847619   -1.080565    0.904140
 H   -1.833784   -1.098007   -0.865862
 H   -3.174594    1.010205   -0.906211
 H   -3.177944    1.046905    0.867130
 H   -4.374004   -1.144561    0.914860
 H   -4.358326   -1.198621   -0.854358
 H   -6.460187   -0.427794   -0.004875
 H   -5.761880    0.853435    0.788506
 H   -5.752478    0.793158   -0.880735
