78 
6ilq_ligand_dft.xyz
 C    0.245216    2.470216   -0.370328
 C   -0.473227    4.574983    0.434169
 C    1.267853   -0.714750   -0.643777
 C   -1.172887   -3.571204   -0.612065
 C   -2.515179   -3.268349   -0.414763
 C   -2.904107   -2.456963    0.655744
 C   -0.609411   -2.396730    1.407884
 C   -5.410387   -2.606262    0.873934
 C   -6.796981   -0.685220    0.435934
 C    8.181044   -1.938326   -0.659678
 C    6.751492   -2.012638   -1.191569
 C    5.706487   -1.786030   -0.097883
 C    4.272824   -1.843456   -0.623852
 C    3.220934   -1.654937    0.477079
 C    2.828968    0.737747    0.519484
 C    1.885850    0.589339   -0.460280
 C    1.269074    1.741515   -1.209242
 C    0.096188    5.972713    0.525784
 C    1.256817   -3.112067   -0.116638
 C   -0.207363   -3.072079    0.256339
 C   -1.947377   -2.086040    1.605476
 C   -4.263040   -1.849453    0.652097
 C   -6.672737   -2.026865    0.776041
 C   -5.659266    0.080277    0.196839
 C   -4.392478   -0.489052    0.307088
 C   -3.157718    0.370765    0.088801
 C   -2.877255    2.089313   -1.480836
 C    3.294230    2.079074    1.041992
 C    2.562174    2.401089    2.356295
 C    4.817138    2.163187    1.201657
 N    3.315609   -0.369052    1.141821
 N    1.856765   -1.781507   -0.026575
 N   -2.322243   -0.077730   -1.119433
 N   -3.441443    1.727913   -0.292716
 O   -0.678318    1.916498    0.206169
 O    0.469958    3.772713   -0.308525
 O    0.205925   -0.863987   -1.287150
 O   -2.397812    0.927327   -2.098797
 O   -2.785440    3.151256   -2.009262
 H   -1.425830    4.554819   -0.103714
 H   -0.613726    4.121889    1.419861
 H   -0.871400   -4.122264   -1.498264
 H   -3.260462   -3.600248   -1.133541
 H    0.137919   -2.032663    2.107565
 H   -5.306254   -3.656830    1.127339
 H   -7.777924   -0.230178    0.349487
 H    8.383451   -0.959851   -0.209446
 H    8.909990   -2.094700   -1.460023
 H    8.357054   -2.701540    0.106585
 H    6.611483   -1.263995   -1.982131
 H    6.580654   -2.990890   -1.658735
 H    5.891443   -0.806983    0.366107
 H    5.841036   -2.538235    0.693427
 H    4.118916   -1.077184   -1.393464
 H    4.090891   -2.815431   -1.100718
 H    3.359781   -2.424812    1.243532
 H    2.012060    2.449946   -1.580311
 H    0.734779    1.339534   -2.076262
 H    0.237395    6.402602   -0.469104
 H    1.058476    5.966589    1.045423
 H   -0.592018    6.613728    1.084081
 H    1.817797   -3.760604    0.564416
 H    1.373278   -3.519594   -1.127362
 H   -2.249918   -1.510151    2.476318
 H   -7.558045   -2.626380    0.961445
 H   -5.758513    1.124282   -0.079471
 H   -2.467182    0.339025    0.931331
 H    2.995630    2.832488    0.308647
 H    1.476610    2.344280    2.227490
 H    2.820237    3.409939    2.691848
 H    2.843721    1.698386    3.147950
 H    5.106154    3.191733    1.435137
 H    5.186551    1.538388    2.024003
 H    5.333929    1.866282    0.283607
 H    4.066217   -0.256155    1.804885
 H   -1.281049   -0.240563   -0.941617
 H   -2.702374   -0.929885   -1.542731
 H   -3.437333    2.438619    0.424892
