50 
6ilz_ligand_dft.xyz
 C   65.815129    2.256117   59.042520
 C   67.449821    1.376812   60.339599
 C   66.743138    1.599587   61.516688
 C   65.483010    2.194385   61.418375
 C   65.015629    2.527308   60.142214
 C   64.914619    2.317286   63.852006
 C   63.771501    2.622009   64.754167
 C   64.005974    3.034458   66.096048
 C   61.751083    3.238976   66.481138
 C   61.390110    2.802614   65.201218
 C   62.445500    2.494207   64.348071
 C   59.974181    2.667078   64.789068
 C   59.032069    3.630763   65.148654
 C   57.707214    3.479324   64.746852
 C   57.314229    2.391646   63.983861
 C   58.243312    1.403759   63.616886
 C   59.568564    1.557188   64.037766
 C   58.855762   -0.535984   62.253961
 C   58.256052   -1.413038   61.160584
 C   56.121686   -1.342114   62.234819
 C   56.699221   -0.465916   63.337721
 N   67.021102    1.687641   59.114857
 N   64.647513    2.464836   62.508234
 N   62.994782    3.349097   66.924180
 N   65.254655    3.171324   66.603331
 N   57.824877    0.317582   62.825374
 N   57.173000   -2.207989   61.720259
 O   66.014310    1.972513   64.269565
 H   65.463611    2.511127   58.044984
 H   68.433244    0.914672   60.394471
 H   67.157390    1.329101   62.476291
 H   64.042413    2.991829   60.005919
 H   60.973197    3.485031   67.202509
 H   62.213972    2.130771   63.349215
 H   59.336275    4.508610   65.710805
 H   56.975314    4.237607   65.009677
 H   56.287306    2.317836   63.640582
 H   60.298464    0.784197   63.822022
 H   59.322564   -1.184538   63.016465
 H   59.633651    0.097284   61.816672
 H   59.030175   -2.084155   60.774693
 H   57.923748   -0.757694   60.334506
 H   55.687836   -0.685842   61.457815
 H   55.319100   -1.960828   62.649235
 H   55.925372    0.206053   63.712486
 H   57.025457   -1.108337   64.173316
 H   63.777937    2.920241   62.275134
 H   65.312391    3.343866   67.594575
 H   66.015192    2.708869   66.125545
 H   56.797346   -2.831169   61.013071
