51 
6ilz_ligand_xtb.xyz
 C    3.913817    4.086162    0.040969
 C    5.717263    2.905043   -0.643169
 C    5.055952    1.692208   -0.532070
 C    3.731947    1.706877   -0.101781
 C    3.151416    2.942722    0.190119
 C    3.312356   -0.749090   -0.074324
 C    2.196944   -1.703500    0.124155
 C    2.479936   -3.032398    0.557696
 C    0.254094   -3.571194    0.566494
 C   -0.140841   -2.325298    0.066700
 C    0.871521   -1.388960   -0.137932
 C   -1.545692   -2.042635   -0.235081
 C   -2.354900   -3.031172   -0.791832
 C   -3.682190   -2.771143   -1.072738
 C   -4.226950   -1.530044   -0.801973
 C   -3.431077   -0.527973   -0.254277
 C   -2.097136   -0.787429    0.023218
 C   -3.447278    1.608636    0.999381
 C   -4.566776    2.446076    1.622756
 C   -5.818807    2.265571   -0.478849
 C   -4.662486    1.441424   -1.042756
 N    5.170045    4.075859   -0.367815
 N    2.946705    0.566059    0.041582
 N    1.497690   -3.909774    0.796927
 N    3.728016   -3.454065    0.781933
 N   -4.040761    0.718162    0.038252
 N   -5.270822    3.195708    0.546543
 O    4.457180   -1.104752   -0.291651
 H    3.498956    5.061491    0.259565
 H    6.746205    2.937705   -0.973775
 H    5.549676    0.765774   -0.766919
 H    2.126304    3.002072    0.530256
 H   -0.481165   -4.330751    0.797479
 H    0.612827   -0.430379   -0.570207
 H   -1.935327   -3.997933   -1.019435
 H   -4.302780   -3.542952   -1.500744
 H   -5.271408   -1.344624   -1.001533
 H   -1.470186   -0.022482    0.457333
 H   -2.971643    1.023797    1.786822
 H   -2.691358    2.282621    0.556215
 H   -4.167886    3.148567    2.355383
 H   -5.287100    1.785436    2.107254
 H   -6.539974    1.606387    0.006357
 H   -6.316054    2.836754   -1.263476
 H   -3.949034    2.115740   -1.551476
 H   -5.041269    0.739047   -1.783814
 H    1.998200    0.747757    0.338084
 H    4.498669   -2.869981    0.487543
 H    3.865403   -4.415056    1.040976
 H   -4.592393    3.818165    0.087017
 H   -6.018889    3.773923    0.944116
