82 
6im4_ligand_dft.xyz
 N    1.062753   -2.386314    2.140849
 C    0.096299   -1.482167    2.806962
 C   -1.165847   -1.457103    1.935398
 O   -1.312828   -2.322278    1.080607
 N   -2.037064   -0.470604    2.178089
 C   -3.084329   -0.103325    1.235540
 C   -3.270083    1.407305    1.398087
 O   -3.051582    1.934801    2.484642
 C   -4.437125   -0.796900    1.481265
 C   -4.477545   -2.250768    1.009895
 S   -4.364223   -2.330050   -0.811910
 C   -3.547528   -3.936267   -1.015357
 N   -3.698564    2.108806    0.320971
 C   -3.646810    1.662022   -1.071527
 C   -2.211940    1.506779   -1.600124
 O   -1.997716    1.005619   -2.695805
 C   -4.396051    2.778513   -1.814417
 C   -4.035886    4.031933   -1.008989
 C   -4.023180    3.540797    0.441570
 N   -1.216628    1.949988   -0.787550
 C    0.191202    1.709256   -1.068551
 C    0.451971    0.214262   -0.812874
 O    0.758973   -0.200453    0.299581
 C    1.040091    2.595597   -0.162919
 C    2.540586    2.483490   -0.423667
 C    3.330978    3.419209    0.497606
 N    4.760387    3.378985    0.249667
 C    5.548964    2.316586    0.595854
 N    5.173851    1.273534    1.270465
 N    6.845390    2.414461    0.169100
 N    0.281951   -0.591542   -1.892673
 C    0.142996   -2.030360   -1.710209
 C    1.369252   -2.680476   -1.080021
 O    1.249631   -3.618337   -0.295082
 N    2.566927   -2.192974   -1.464498
 C    3.814688   -2.602791   -0.838106
 C    4.165610   -1.558076    0.234352
 O    3.393634   -1.292188    1.155487
 C    4.904760   -2.829313   -1.876161
 O    5.305459   -0.963636    0.057351
 H    1.860644   -1.882849    1.677759
 H    0.576997   -2.898445    1.371415
 H    1.467158   -3.074937    2.774384
 H    0.537848   -0.489862    2.890793
 H   -0.137610   -1.863549    3.803679
 H   -1.867249    0.229623    2.893815
 H   -2.731778   -0.371673    0.235308
 H   -5.221337   -0.227201    0.966201
 H   -4.663448   -0.742704    2.551710
 H   -5.409482   -2.716976    1.340655
 H   -3.639043   -2.812161    1.428065
 H   -4.182331   -4.746565   -0.648893
 H   -2.587078   -3.946194   -0.493819
 H   -3.382946   -4.081403   -2.085489
 H   -4.128531    0.690149   -1.214581
 H   -5.470954    2.581299   -1.760586
 H   -4.108521    2.825742   -2.866123
 H   -3.042632    4.393582   -1.296840
 H   -4.744725    4.848309   -1.159052
 H   -4.999349    3.648124    0.925191
 H   -3.285403    4.044088    1.071414
 H   -1.448579    2.307590    0.126791
 H    0.372073    1.945618   -2.122425
 H    0.831285    2.321856    0.879050
 H    0.711214    3.632275   -0.306011
 H    2.866736    1.450298   -0.259735
 H    2.768438    2.740930   -1.464898
 H    3.107499    3.193689    1.550863
 H    3.011016    4.451887    0.332701
 H    5.233124    4.258319    0.105510
 H    4.248658    1.358114    1.677949
 H    7.024039    2.840133   -0.728039
 H    7.435618    1.629227    0.401383
 H   -0.254639   -0.177673   -2.651154
 H   -0.021856   -2.479249   -2.693777
 H   -0.706710   -2.269596   -1.067016
 H    2.575536   -1.382419   -2.069010
 H    3.586400   -3.535390   -0.314607
 H    5.830715   -3.150535   -1.394445
 H    5.121612   -1.910883   -2.429654
 H    4.585535   -3.601947   -2.580008
 H    5.365604   -0.115646    0.685239
