34 
6im6_ligand_xtb.xyz
 C   -0.420177   -0.978583   -0.205475
 C    0.809523   -0.321124   -0.240484
 C    0.853041    1.055730   -0.116254
 C   -2.968940   -2.238097   -0.120723
 C    2.057291   -1.141209   -0.441816
 C    3.227735    0.951382   -0.853302
 C    2.166800    1.790535   -0.140654
 C   -2.785536    3.132447    0.414092
 C   -4.450607   -2.571875   -0.045739
 C    4.249481   -0.803254    0.524572
 N    3.262920   -0.363286   -0.268952
 C   -1.602649   -0.284036   -0.039587
 C   -0.336055    1.765320    0.052048
 C   -1.557804    1.123928    0.094759
 O   -2.763388    1.736777    0.256419
 O   -2.841501   -0.837070    0.007225
 O    4.268905   -1.868172    1.095741
 H   -0.426186   -2.052244   -0.306886
 H   -2.553963   -2.570100   -1.083164
 H   -2.423731   -2.743896    0.688754
 H    2.045525   -1.574875   -1.452847
 H    2.100307   -1.965041    0.276734
 H    4.213868    1.413197   -0.767989
 H    2.972222    0.857771   -1.914906
 H    2.492545    1.980597    0.887115
 H    2.052728    2.754983   -0.638834
 H   -2.220807    3.448577    1.297729
 H   -2.392042    3.645617   -0.470091
 H   -3.833747    3.396388    0.544980
 H   -4.856601   -2.239136    0.905273
 H   -4.984163   -2.064289   -0.844416
 H   -4.594930   -3.644255   -0.142478
 H    5.083076   -0.077721    0.590974
 H   -0.279293    2.838171    0.149021
