18 
6ior_ligand_xtb.xyz
 N    0.747976    1.718325    0.088333
 C    0.693433    0.453181    0.854858
 C    1.348522   -0.677011    0.026806
 O    0.992837   -1.812365    0.079837
 C   -0.763464    0.076615    1.150850
 C   -1.574738    0.071607   -0.136674
 O   -1.325182    0.890058   -1.031511
 N   -2.550255   -0.810179   -0.242276
 O    2.341516   -0.204874   -0.715896
 H    0.632145    2.546866    0.674286
 H   -0.140789    1.589968   -0.605883
 H    1.622886    1.783926   -0.441115
 H    1.264811    0.530876    1.787919
 H   -1.212156    0.797622    1.838136
 H   -0.783965   -0.906374    1.620418
 H   -2.742080   -1.499161    0.466416
 H   -3.112114   -0.821432   -1.082768
 H    2.791323   -0.908212   -1.214278
