42 
6iql_ligand_xtb.xyz
 C    4.961856    1.501350    1.883289
 C   -1.256943   -1.911417    0.867588
 C   -0.545352    0.325431    0.173166
 C    0.808851   -0.324280    0.467055
 C   -2.922921   -0.224387    0.157045
 C   -4.010751   -0.997769    0.583537
 C   -5.311544   -0.559712    0.435064
 C   -5.567974    0.673879   -0.136240
 C   -4.514628    1.468603   -0.553033
 C   -3.215612    1.026974   -0.406075
 C    5.424415    2.352401    0.887251
 C    4.384870    0.285409    1.534015
 C    4.306697   -0.004331    0.187963
 C    4.818378    0.940598   -0.743774
 C    4.093520   -0.666076   -1.976739
 C    3.807466   -1.106329   -0.615555
 C    3.148647   -2.218086   -0.236485
 C   -0.035859   -2.547046    0.170514
 N    5.361438    2.092679   -0.411118
 N    4.660767    0.488553   -2.051032
 N    0.942090   -1.561765   -0.272006
 N   -1.615011   -0.660494    0.240313
Cl   -7.199611    1.224391   -0.319306
 H    5.053483    1.786415    2.920187
 H   -1.043554   -1.766434    1.937271
 H   -2.082893   -2.613782    0.783798
 H   -0.507206    0.740099   -0.841776
 H   -0.727342    1.150770    0.875552
 H    0.922077   -0.545562    1.530315
 H    1.612096    0.355171    0.174172
 H   -3.864807   -1.956442    1.053463
 H   -6.127839   -1.178483    0.773560
 H   -4.707050    2.434342   -0.993256
 H   -2.425774    1.674250   -0.747124
 H    5.874581    3.302822    1.142459
 H    4.016501   -0.398352    2.287158
 H    3.863987   -1.230304   -2.864657
 H    3.035912   -2.468675    0.804184
 H    2.894673   -2.981413   -0.951430
 H   -0.359853   -3.135506   -0.689001
 H    0.451015   -3.225717    0.880202
 H    0.831697   -1.361924   -1.261473
