38 
6isd_ligand_xtb.xyz
 O    2.651405   -2.136145    0.282546
 C    2.300050   -1.151756   -0.652425
 C    3.237925   -1.273235   -1.855759
 C    4.675051   -0.978822   -1.441473
 C    4.795232    0.425508   -0.834540
 C    3.845182    0.524686    0.324288
 O    4.191883    0.721122    1.465896
 C    2.401023    0.278567   -0.063322
 C    1.458355    0.490428    1.149831
 O    1.796758   -0.363044    2.220104
 C    0.019473    0.262078    0.757459
 C   -0.675925    1.200599   -0.005602
Cl    0.088796    2.667254   -0.505738
 C   -1.996185    0.990064   -0.368262
 C   -2.620964   -0.172748    0.033301
 S   -4.348221   -0.422759   -0.398901
 O   -4.674249    0.429816   -1.507673
 O   -4.595339   -1.831803   -0.522628
 C   -5.217809    0.187082    1.074702
 C   -1.958963   -1.121845    0.785442
 C   -0.641478   -0.898922    1.144524
 H    2.253225   -1.896018    1.135540
 H    1.257037   -1.307260   -0.983252
 H    2.911259   -0.586661   -2.638494
 H    3.171190   -2.292517   -2.236415
 H    4.981209   -1.717246   -0.699252
 H    5.339674   -1.060241   -2.302279
 H    4.530410    1.173237   -1.584973
 H    5.813049    0.610282   -0.489085
 H    2.123496    0.982426   -0.851258
 H    1.567956    1.539887    1.468457
 H    2.694387   -0.107788    2.492754
 H   -2.540128    1.703349   -0.966985
 H   -4.951566    1.226416    1.214677
 H   -6.281540    0.086849    0.897863
 H   -4.913527   -0.417721    1.918650
 H   -2.474341   -2.026850    1.064135
 H   -0.109250   -1.618975    1.744913
