58 
6iuo_ligand_xtb.xyz
 C   -5.519351   -1.147785   -2.883107
 C   -6.611325   -0.950351   -1.831077
 C   -5.993876   -0.460587   -0.533515
 O   -5.984232    0.702141   -0.190801
 N   -5.440136   -1.447636    0.211077
 C   -4.673535   -1.177389    1.409600
 C   -3.193737   -1.286372    1.148318
 C   -2.604123   -0.446044    0.209364
 C   -1.255838   -0.536064   -0.073644
 C   -0.474976   -1.466068    0.604458
 C   -1.057821   -2.328258    1.525559
 C   -2.410920   -2.236525    1.790335
 N    0.898076   -1.598537    0.342038
 C    1.798964   -0.631957   -0.004555
 C    2.989461   -1.301548   -0.271592
 C    2.693044   -2.665826   -0.021352
 N    1.434357   -2.813618    0.346198
 C    3.691746   -3.728803   -0.144795
 N    4.909192   -3.228977   -0.511714
 N    5.173195   -1.914317   -0.905362
 C    4.328605   -0.861896   -0.638362
 O    3.546882   -4.914806    0.064869
 N    4.816267    0.307012   -0.766229
 C    1.517227    0.785305    0.035770
 C    0.916435    1.545767    1.002064
 C    0.977350    2.893419    0.520859
 C    1.634850    2.827720   -0.720466
 O    1.965482    1.547961   -1.009937
 C    0.347473    1.108800    2.304388
 C    0.552216    4.126078    1.014032
 C    0.789769    5.260540    0.265022
 C    1.449513    5.162789   -0.969622
 C    1.880690    3.958413   -1.482718
 C    0.354362    6.610609    0.750576
 H   -5.001702   -0.209074   -3.065374
 H   -4.787902   -1.884880   -2.556302
 H   -5.955880   -1.487308   -3.819375
 H   -7.146086   -1.886579   -1.660797
 H   -7.319486   -0.196658   -2.175765
 H   -5.399217   -2.383389   -0.159854
 H   -4.977865   -1.869028    2.200396
 H   -4.929616   -0.154689    1.704150
 H   -3.214101    0.282292   -0.303306
 H   -0.816098    0.105545   -0.820701
 H   -0.440422   -3.066285    2.012202
 H   -2.859587   -2.906531    2.508901
 H    5.638422   -3.896085   -0.723547
 H    6.151892   -1.667571   -0.958681
 H    4.144054    1.056024   -0.661910
 H   -0.741441    1.074954    2.254192
 H    0.710281    0.121506    2.579544
 H    0.628268    1.816874    3.081833
 H    0.044467    4.185742    1.964764
 H    1.624214    6.067245   -1.533110
 H    2.389710    3.889448   -2.430330
 H   -0.151461    6.535867    1.709514
 H    1.215447    7.268550    0.861320
 H   -0.324806    7.070362    0.033896
