53 
6iup_ligand_xtb.xyz
 C    3.960260   -3.388035   -0.020236
 C    4.333979   -0.439006   -0.191928
 C    1.719410   -0.529951   -0.075834
 C    1.269686    0.842473   -0.011647
 C    1.541064    4.147504   -1.241228
 C   -0.020945    5.182574    0.317535
 C   -0.261625    3.973290    0.937419
 C   -8.076995   -0.952728   -0.501539
 C   -7.016281   -1.624692   -0.078304
 C   -5.644413   -1.142364   -0.377016
 C   -3.287870   -1.822300    0.081839
 C   -2.656647   -0.837753   -0.676468
 C   -1.278241   -0.760158   -0.705327
 C   -0.511781   -1.651938    0.035493
 C    2.837942   -2.449432   -0.036580
 C    3.011183   -1.045815   -0.139221
 C    1.287581    2.939543   -0.611426
 C    0.876027    5.254437   -0.759183
 C   -0.709356    6.433960    0.774410
 C    0.397960    2.836517    0.472830
 C    0.407465    1.456669    0.855577
 C   -0.344086    0.861273    1.991964
 C   -1.134770   -2.656055    0.770455
 C   -2.509372   -2.738090    0.792626
 N   -4.672536   -1.951124    0.155487
 N    0.891400   -1.611478    0.025734
 N    1.558817   -2.758699    0.062756
 N    5.157979   -2.734502   -0.093520
 N    5.335693   -1.370321   -0.339943
 N    4.694440    0.780946   -0.139869
 O   -5.419466   -0.138821   -1.019050
 O    3.919740   -4.596633    0.077690
 O    1.818305    1.729023   -0.899905
 H    2.230813    4.209564   -2.067169
 H   -0.950034    3.902244    1.765939
 H   -7.944065   -0.045157   -1.067690
 H   -9.085011   -1.274168   -0.304474
 H   -7.113688   -2.538979    0.491145
 H   -3.250852   -0.142499   -1.244844
 H   -0.802757   -0.009774   -1.316467
 H    1.048455    6.214734   -1.222203
 H   -1.325913    6.242855    1.648660
 H    0.022202    7.201126    1.023562
 H   -1.344978    6.825808   -0.018836
 H   -1.390650    0.714672    1.722955
 H    0.076283   -0.099405    2.279026
 H   -0.305044    1.533139    2.847420
 H   -0.525235   -3.364530    1.307994
 H   -2.988911   -3.517877    1.366976
 H   -4.987173   -2.747654    0.692966
 H    5.988609   -3.301393   -0.195463
 H    6.267336   -1.018795   -0.166551
 H    3.930357    1.444244   -0.132613
