31 
6iyw_ligand_dft.xyz
 C    2.308316   -0.526272    1.675971
 C   -1.555628   -0.520908    0.391635
 C    2.187140   -0.908029    0.206937
 C    0.743383   -0.725615   -0.309245
 C   -0.847605    0.786000    0.122276
 O    1.921683   -1.225669    2.585319
 C    3.231996   -0.112621   -0.615821
 O    3.119036    1.278465   -0.397590
 C    3.219873   -0.447713   -2.106758
 N    0.357323    0.696163   -0.270724
 C   -1.530720    2.103341    0.332050
 O   -2.548293    2.211678    0.972197
 O   -0.884845    3.125749   -0.235673
 S   -2.720448   -0.827934   -0.994340
 C   -3.709267   -2.141742   -0.232506
 C   -0.362658   -1.487781    0.452059
 H    2.781475    0.454239    1.871531
 H   -2.142254   -0.473430    1.312610
 H    2.408001   -1.980892    0.137269
 H    0.735616   -1.013279   -1.367957
 H    4.217754   -0.381823   -0.215562
 H    2.189389    1.519129   -0.553896
 H    4.069739    0.038829   -2.592317
 H    2.309082   -0.076828   -2.588796
 H    3.290722   -1.527961   -2.278652
 H   -1.391530    3.925075   -0.018556
 H   -4.449273   -2.457038   -0.971417
 H   -3.089518   -3.002879    0.032740
 H   -4.230290   -1.771950    0.654572
 H   -0.579296   -2.457585   -0.001069
 H   -0.063333   -1.653556    1.490401
