27 
6j0g_ligand_dft.xyz
 P    1.891827   -0.528458   -0.037603
 O    2.430084   -1.402732    1.190723
 O    2.840745    0.405658   -0.672095
 O    0.665202    0.269986    0.654235
 P    0.063750    1.641462   -0.033113
 O   -0.475637    1.395915   -1.387801
 O    1.257197    2.670312    0.121997
 O   -0.977986    2.111468    1.053306
 C   -1.840548   -1.397794    1.606897
 C   -1.154921   -1.786483   -0.801063
 C    0.153907   -2.464868   -0.543463
 O    1.263272   -1.624205   -0.976363
 C   -2.008282   -1.316804    0.114956
 C   -3.223404   -0.536196   -0.348385
 O   -2.983156    0.871587   -0.341635
 H    2.939127   -0.871534    1.818310
 H    2.059476    2.289636   -0.293032
 H   -1.867670    1.759508    0.794951
 H   -2.643278   -2.002214    2.046889
 H   -0.882792   -1.816702    1.919523
 H   -1.915197   -0.396147    2.044427
 H   -1.375422   -1.623347   -1.854536
 H    0.259355   -3.364047   -1.152676
 H    0.299906   -2.742094    0.502467
 H   -4.069905   -0.697865    0.325150
 H   -3.524786   -0.850941   -1.354512
 H   -2.330751    1.049633   -1.048806
