27 
6j0k_ligand_dft.xyz
 P   -1.891823   -0.528453   -0.037557
 O   -2.840805    0.405612   -0.672046
 O   -2.429940   -1.402862    1.190731
 O   -0.665302    0.270072    0.654367
 P   -0.063782    1.641450   -0.033144
 O    0.475650    1.395710   -1.387776
 O   -1.257193    2.670370    0.121798
 O    0.977943    2.111527    1.053269
 C    1.840431   -1.397686    1.606910
 C    1.154923   -1.786462   -0.801081
 C   -0.153910   -2.464834   -0.543534
 O   -1.263248   -1.624084   -0.976440
 C    2.008237   -1.316775    0.114983
 C    3.223433   -0.536254   -0.348326
 O    2.983299    0.871551   -0.341606
 H   -2.938643   -0.871729    1.818650
 H   -2.059537    2.289609   -0.293038
 H    1.867653    1.759623    0.794960
 H    1.914232   -0.395918    2.044304
 H    0.882997   -1.817333    1.919530
 H    2.643621   -2.001379    2.047064
 H    1.375541   -1.623413   -1.854541
 H   -0.299973   -2.742149    0.502359
 H   -0.259382   -3.363926   -1.152865
 H    4.069896   -0.697990    0.325240
 H    3.524826   -0.851035   -1.354438
 H    2.330921    1.049580   -1.048801
