51 
6j0o_ligand_xtb.xyz
 F  -32.400500    5.738693   -9.539620
 C  -32.655069    4.501247   -9.056807
 C  -33.749581    3.816932   -9.551741
 C  -31.844029    3.961417   -8.063780
 C  -32.150022    2.687048   -7.598758
 C  -33.238862    1.970753   -8.083216
 C  -33.554609    0.634943   -7.592089
 C  -33.250942   -0.014836   -6.357193
 C  -32.482563    0.373306   -5.171104
 C  -32.967591    0.003291   -3.916453
 C  -32.214560    0.313564   -2.798499
 N  -31.317692    0.996857   -5.319693
 C  -30.585964    1.283743   -4.253189
 C  -29.263851    1.945763   -4.490357
 C  -31.003826    0.963344   -2.963825
 N  -33.827091   -1.210453   -6.317900
 N  -34.462112   -1.364816   -7.469222
 C  -34.338127   -0.288438   -8.265119
 C  -34.042851    2.559508   -9.062819
 C  -30.699989    4.691359   -7.493808
 C  -29.757887    5.312190   -8.310119
 C  -28.660670    5.940644   -7.749648
 C  -28.521691    5.960221   -6.377096
 C  -29.465196    5.386412   -5.548410
 C  -30.552321    4.744161   -6.108011
 S  -27.059048    6.676662   -5.637215
 O  -26.269082    7.310962   -6.660433
 O  -27.440249    7.465623   -4.495092
 C  -26.099116    5.246152   -5.008212
 C  -25.690339    4.373655   -6.173299
 O  -26.823985    3.643811   -6.594579
 H  -34.363934    4.280657  -10.307721
 H  -31.517786    2.228886   -6.852819
 H  -33.909390   -0.514267   -3.840250
 H  -32.564615    0.048634   -1.810990
 H  -29.196165    2.328583   -5.504224
 H  -29.114028    2.761149   -3.786568
 H  -28.463061    1.222098   -4.341300
 H  -30.385913    1.215226   -2.115338
 H  -34.911451    2.041504   -9.438069
 H  -29.875139    5.285355   -9.382779
 H  -27.906138    6.416833   -8.355741
 H  -29.340129    5.457428   -4.479434
 H  -31.297725    4.282806   -5.477917
 H  -26.737670    4.708462   -4.314830
 H  -25.241641    5.669442   -4.494365
 H  -24.886844    3.684915   -5.871226
 H  -25.317545    5.024279   -6.975182
 H  -26.611249    3.164174   -7.401560
 H  -34.951690   -2.225168   -7.659988
 H  -34.781477   -0.257707   -9.239396
