58 
6j1l_ligand_xtb.xyz
 C    6.208322   -1.293882    1.108102
 C    6.625966    0.022267    1.180944
 C    6.756391    0.757494    0.017721
 C    6.496939    0.195152   -1.215935
 C    6.080712   -1.123578   -1.285894
 C    5.925442   -1.877179   -0.124993
 C    5.394691   -3.278303   -0.180422
 C    3.915873   -3.311060    0.226507
 C    1.825952   -2.074002   -0.325706
 C    1.332897   -1.013078   -1.084177
 C    0.006277   -0.647757   -1.001262
 C   -0.865866   -1.338451   -0.161803
 C   -0.367461   -2.401615    0.588900
 C    0.961002   -2.768061    0.516107
 C   -2.284624   -0.968894   -0.072777
 C   -2.705226    0.359493   -0.011769
 C   -4.036303    0.721582    0.065832
 C   -5.001706   -0.276275    0.084859
 C   -4.618885   -1.609597    0.030491
 C   -3.281145   -1.942716   -0.043646
 C   -6.479035    0.077683    0.139682
 C   -6.906462    0.679432   -1.226322
 C   -6.764146    1.105274    1.268457
 C    5.722756    3.330450    0.672588
 C    4.633058    3.101641   -0.348138
 F   -1.795024    1.351595   -0.002672
 F   -8.076109    1.132067    1.547464
 F   -6.407767    2.355260    0.973713
 F   -6.136818    0.768966    2.395136
 F   -6.232691    1.773589   -1.573904
 F   -8.210137    0.996874   -1.221681
 F   -6.731393   -0.217865   -2.197637
 N    3.180333   -2.386977   -0.451824
 O   -7.239462   -1.064879    0.373762
 O    7.568057    2.943299   -1.203776
 O    8.238682    2.621565    1.150244
 O    3.483837   -4.079756    1.050063
 S    7.244273    2.484632    0.120560
 H    6.096740   -1.879340    2.008251
 H    6.867504    0.485150    2.124678
 H    6.634798    0.796971   -2.100285
 H    5.890901   -1.573686   -2.250801
 H    5.932400   -3.930308    0.508208
 H    5.480608   -3.688676   -1.188746
 H    1.997873   -0.471820   -1.743060
 H   -0.356932    0.168835   -1.605181
 H   -1.024867   -2.934429    1.259007
 H    1.335707   -3.585059    1.109178
 H   -4.279996    1.770957    0.105994
 H   -5.375410   -2.375929    0.046095
 H   -2.996336   -2.981586   -0.101326
 H    5.483483    2.929691    1.653275
 H    5.990625    4.380179    0.759589
 H    5.004471    3.378566   -1.332152
 H    4.339049    2.053735   -0.367160
 H    3.754201    3.701888   -0.123017
 H    3.687028   -1.797046   -1.099950
 H   -8.184509   -0.855682    0.421001
