66 
6j6m_ligand_xtb.xyz
 C   -4.374454   -0.391111    1.907241
 C   -4.680487   -1.880362    1.743380
 C   -6.050627   -2.567077   -0.130954
 C    0.954677    3.691625   -1.097488
 C    0.265901    2.624292   -0.388431
 C   -1.027056    2.809512    0.117659
 C   -3.037438    3.875199    0.860300
 C   -3.663537    2.479874    0.780697
 C   -2.686326    1.424916    1.312294
 C   -3.115294   -0.039352    1.116005
 C   -6.153497   -2.840437   -1.625533
 C   -7.564552   -3.278816   -1.997262
 C   -3.644781   -1.921135   -0.432352
 C   -3.322422   -0.425916   -0.349295
 C    0.558739    1.267483   -0.072222
 C    1.776211    0.495118   -0.307037
 C    3.034116    1.020366   -0.018119
 C    4.176862    0.270687   -0.219480
 C    1.687579   -0.808526   -0.789969
 C    2.824042   -1.562572   -0.994554
 C    4.077274   -1.028732   -0.707371
 C    6.284114   -1.749459   -0.197464
 C    6.223803   -1.528332    1.174352
 C    7.385725   -1.556069    1.923585
 C    8.605950   -1.809154    1.320921
 C    8.661380   -2.044001   -0.042977
 C    7.508278   -2.014227   -0.803523
 N    2.075739    3.359512   -1.783935
 N   -1.840491    3.883855    0.055479
 N   -4.827715   -2.214773    0.341098
 N   -1.417744    1.641662    0.656674
 N   -0.460757    0.699218    0.546960
 O   -7.006639   -2.680452    0.612106
 O    5.170631   -1.802278   -0.995217
 O    0.529452    4.841897   -1.092089
 H   -4.239734   -0.162767    2.965419
 H   -5.225074    0.182620    1.535760
 H   -5.614787   -2.142027    2.242492
 H   -3.864801   -2.477691    2.165714
 H   -2.823321    4.130455    1.909632
 H   -3.729019    4.621157    0.462457
 H   -4.583716    2.455358    1.361774
 H   -3.896080    2.271822   -0.263690
 H   -2.550308    1.583757    2.394241
 H   -2.281413   -0.640021    1.496376
 H   -5.893595   -1.932140   -2.174374
 H   -5.440883   -3.623936   -1.893688
 H   -8.279882   -2.506368   -1.728270
 H   -7.830239   -4.182359   -1.455590
 H   -7.633533   -3.471127   -3.065302
 H   -3.775845   -2.222499   -1.469230
 H   -2.807394   -2.492310   -0.012475
 H   -2.419716   -0.216294   -0.923157
 H   -4.154448    0.134562   -0.779097
 H    3.117061    2.018866    0.385819
 H    5.148232    0.689559    0.000396
 H    0.713593   -1.223008   -0.998064
 H    2.764131   -2.570103   -1.375747
 H    5.270273   -1.346991    1.648941
 H    7.332563   -1.384279    2.988540
 H    9.508572   -1.829203    1.912396
 H    9.608623   -2.248692   -0.519301
 H    7.533279   -2.197556   -1.866442
 H    2.543388    4.080452   -2.306174
 H    2.404654    2.412528   -1.841878
 H   -1.376426    4.745809   -0.204217
