47 
6j7e_ligand_dft.xyz
 P    3.731495    0.299037   -0.090953
 S    5.378960   -0.834821   -0.631271
 O    3.638028    1.295999   -1.313046
 O    3.719032    0.893245    1.263616
 P    1.622730   -1.653250    0.640378
 O    2.014085   -3.072271    0.544041
 O    1.686319   -1.026283    2.075139
 O    2.424990   -0.656830   -0.339635
 P   -0.594374   -2.324306   -1.052365
 O   -0.102864   -1.999047   -2.389570
 O   -0.448219   -3.802307   -0.484737
 O    0.108186   -1.413450    0.138222
 O   -2.126155   -1.978147   -0.830826
 C   -2.934927   -2.465818    0.246925
 C   -3.891146   -1.377334    0.701762
 O   -3.201520   -0.425048    1.527242
 C   -4.541804   -0.563465   -0.419126
 O   -5.796423   -0.120110    0.035454
 C   -3.589679    0.627674   -0.561727
 O   -4.274014    1.726484   -1.087073
 C   -3.140157    0.820392    0.901202
 N   -1.757524    1.293024    0.993899
 C   -0.776666    0.788101    1.792640
 N    0.394517    1.351997    1.617760
 C    0.168966    2.299046    0.636415
 C    0.974414    3.236598   -0.023618
 N    2.339245    3.317894    0.164633
 N    0.426027    4.053399   -0.924983
 C   -0.876166    3.928865   -1.199544
 N   -1.743247    3.066706   -0.672540
 C   -1.170888    2.279208    0.244370
 H    5.277475   -1.646146    0.436091
 H    3.167991    2.118075   -1.014095
 H    1.569197   -0.037750    2.065225
 H    0.470287   -3.957951   -0.166294
 H   -3.494507   -3.329082   -0.124070
 H   -2.311679   -2.781684    1.087679
 H   -4.668827   -1.840231    1.316825
 H   -4.623304   -1.132820   -1.353882
 H   -5.969497    0.714347   -0.426681
 H   -2.726905    0.342582   -1.173828
 H   -3.617188    2.443820   -1.171057
 H   -3.792065    1.542950    1.404804
 H   -0.976987   -0.029274    2.468282
 H    2.703615    2.885095    1.011247
 H    2.724570    4.230752   -0.048723
 H   -1.269676    4.613613   -1.944851
