47 
6j7e_ligand_xtb.xyz
 P    3.496293    0.087838   -0.478363
 S    4.041875   -1.627875   -1.472962
 O    3.501980    1.195520   -1.588359
 O    4.214590    0.385920    0.759509
 P    1.458533   -1.030505    1.044992
 O    2.086711   -2.344718    0.958255
 O    1.632176   -0.293424    2.392587
 O    1.882959   -0.048850   -0.136432
 P   -0.521774   -2.120433   -0.415582
 O    0.166879   -1.800607   -1.647677
 O   -0.279366   -3.525302    0.256674
 O   -0.129198   -1.080423    0.809441
 O   -2.079323   -1.989627   -0.533036
 C   -3.038937   -2.205026    0.495342
 C   -4.051844   -1.046946    0.516699
 O   -3.586569    0.033403    1.320880
 C   -4.313238   -0.452848   -0.874802
 O   -5.609103    0.069941   -0.929657
 C   -3.251066    0.657424   -0.948694
 O   -3.624697    1.674475   -1.824576
 C   -3.184426    1.114447    0.527754
 N   -1.849894    1.514701    0.907315
 C   -1.290350    1.358230    2.135137
 N   -0.042992    1.730774    2.193679
 C    0.258699    2.162749    0.924915
 C    1.451232    2.584719    0.308551
 N    2.584182    2.827157    0.977922
 N    1.419906    2.773447   -1.020560
 C    0.275546    2.641105   -1.679281
 N   -0.903296    2.302984   -1.202892
 C   -0.868177    2.016827    0.103911
 H    3.794260   -2.391521   -0.412887
 H    2.756317    1.848311   -1.571086
 H    1.076002    0.520434    2.525775
 H    0.655379   -3.610711    0.495465
 H   -3.553108   -3.143010    0.271986
 H   -2.551972   -2.274483    1.469333
 H   -4.987872   -1.393132    0.966142
 H   -4.158566   -1.200176   -1.662743
 H   -5.595126    0.800004   -1.565137
 H   -2.291164    0.213088   -1.232692
 H   -2.824566    2.195150   -2.007813
 H   -3.870031    1.965414    0.687438
 H   -1.845291    0.954584    2.957698
 H    2.672785    2.483209    1.919997
 H    3.436761    2.955878    0.456188
 H    0.324128    2.831480   -2.742276
