57 
6j81_ligand_xtb.xyz
 C   -1.362452   -0.567094    0.680569
 C   -2.736246   -0.745927    0.720090
 C   -3.385143   -1.308731   -0.384464
 C   -0.610478   -0.926437   -0.432597
 C    1.339973    0.535171    0.026074
 C    0.835071   -0.668465   -0.469429
 C   -1.261351   -1.498519   -1.521163
 C    3.072885   -1.337738   -1.068515
 C    2.694868    0.801693   -0.027906
 O    5.524479    1.613656   -0.674582
 S    5.307726    0.192488   -0.607649
 O    5.929137   -0.626093   -1.614922
 C    5.889343   -0.384684    1.021862
 C    7.376207   -0.098994    1.086936
 O    7.874184   -0.523309    2.338097
 C    3.547941   -0.137760   -0.575742
 C    1.716482   -1.600244   -1.018311
 C   -4.869170   -1.540005   -0.402436
 C   -5.211954   -2.937742    0.128618
 C   -6.715589   -3.179728    0.144684
 C   -2.628501   -1.685176   -1.486491
 C   -3.528907   -0.287533    1.891583
 C   -3.054265    0.784247    2.813866
 C   -4.147249    1.107293    1.834466
 C   -3.832304    1.941960    0.659291
 N   -2.547387    2.111013    0.358916
 C   -2.231811    2.806275   -0.716691
 C   -3.168553    3.383827   -1.558173
 C   -4.509411    3.224320   -1.242757
 C   -4.849390    2.492581   -0.120130
 H   -0.857513   -0.156153    1.540027
 H    0.656941    1.267300    0.429581
 H   -0.701898   -1.764570   -2.405768
 H    3.772639   -2.037092   -1.498338
 H    3.105317    1.734808    0.325087
 H    5.346848    0.163081    1.786531
 H    5.685203   -1.448689    1.093516
 H    7.870787   -0.631608    0.263654
 H    7.530316    0.979120    0.945529
 H    8.817899   -0.337396    2.376126
 H    1.334622   -2.537838   -1.393367
 H   -5.236438   -1.455037   -1.427704
 H   -5.379602   -0.786882    0.198760
 H   -4.811205   -3.051612    1.138219
 H   -4.725788   -3.685799   -0.501171
 H   -7.127685   -3.089711   -0.858107
 H   -7.213329   -2.453839    0.784475
 H   -6.938437   -4.176254    0.518856
 H   -3.127882   -2.115559   -2.343239
 H   -4.165067   -1.051196    2.325332
 H   -2.103709    1.250728    2.615185
 H   -3.312770    0.712113    3.859653
 H   -5.161122    1.212412    2.201611
 H   -1.171022    2.904149   -0.911824
 H   -2.860222    3.942375   -2.427846
 H   -5.277171    3.661614   -1.865178
 H   -5.883994    2.345060    0.152230
