57 
6j81_ligand_dft.xyz
 C   -1.361765   -0.635851    0.643200
 C   -2.741776   -0.804954    0.676381
 C   -3.389143   -1.375339   -0.434298
 C   -0.597585   -0.996148   -0.467673
 C    1.336421    0.506516    0.014436
 C    0.855633   -0.706709   -0.496942
 C   -1.243937   -1.581929   -1.557358
 C    3.123658   -1.325762   -1.093932
 C    2.691358    0.805462   -0.018921
 O    5.474810    1.708014   -0.564173
 S    5.317191    0.255369   -0.605693
 O    5.933114   -0.531023   -1.673007
 C    5.904913   -0.401632    0.963909
 C    7.404187   -0.181881    1.110862
 O    7.757188   -0.728126    2.365675
 C    3.574979   -0.117136   -0.571996
 C    1.766171   -1.614541   -1.050883
 C   -4.884441   -1.580591   -0.459525
 C   -5.312436   -2.925748    0.146245
 C   -6.828706   -3.102576    0.164410
 C   -2.619640   -1.769174   -1.529322
 C   -3.546028   -0.327204    1.842641
 C   -3.062788    0.702308    2.818300
 C   -4.122541    1.097116    1.830878
 C   -3.787356    1.990879    0.688154
 N   -2.501547    2.309728    0.493022
 C   -2.192305    3.053043   -0.569904
 C   -3.127476    3.529163   -1.481150
 C   -4.464427    3.209820   -1.268692
 C   -4.799220    2.428618   -0.171801
 H   -0.866500   -0.201768    1.505165
 H    0.630922    1.230527    0.412727
 H   -0.679543   -1.850499   -2.446131
 H    3.829922   -2.021208   -1.535864
 H    3.064280    1.754708    0.352236
 H    5.358593    0.109061    1.761404
 H    5.666737   -1.468446    0.985817
 H    7.927027   -0.681725    0.284116
 H    7.621209    0.893531    1.055917
 H    8.706248   -0.608408    2.483259
 H    1.406346   -2.561702   -1.441618
 H   -5.239550   -1.532062   -1.496474
 H   -5.384676   -0.764550    0.075972
 H   -4.915586   -3.011809    1.165820
 H   -4.845895   -3.736147   -0.427541
 H   -7.244688   -3.045264   -0.848043
 H   -7.307930   -2.319602    0.763767
 H   -7.111968   -4.070633    0.589663
 H   -3.116086   -2.204788   -2.393360
 H   -4.233742   -1.064227    2.251766
 H   -2.090593    1.156655    2.659387
 H   -3.354442    0.587352    3.857289
 H   -5.143990    1.189360    2.190806
 H   -1.135879    3.279600   -0.698686
 H   -2.814710    4.131544   -2.327239
 H   -5.233623    3.559490   -1.950994
 H   -5.831508    2.151583    0.020699
