45 
6j9w_ligand_xtb.xyz
 C    0.776036   -0.710083   -0.923323
 C    1.266518   -1.855183   -0.027734
 C    2.213814   -1.271621    1.020352
 C    3.358999   -0.530978    0.318362
 C    2.790769    0.506478   -0.663931
 C    3.884319    1.112384   -1.548001
 O    0.034917    0.179091   -0.130310
 O    0.163123   -2.489204    0.551134
 O    2.696356   -2.325722    1.816663
 O    4.143543    0.063540    1.322107
 O    1.849811   -0.070483   -1.556874
 O    4.815170    1.793410   -0.732381
 C   -0.948952    0.911589   -0.833517
 C   -1.551725    1.888761    0.189815
 C   -2.330996    1.082489    1.235652
 C   -3.365297    0.185944    0.546618
 C   -2.665588   -0.696951   -0.492200
 C   -3.686616   -1.467576   -1.336618
 O   -0.562119    2.677777    0.795678
 O   -3.003006    1.934159    2.136059
 O   -3.997494   -0.650670    1.478239
 O   -1.911528    0.099514   -1.415132
 O   -4.456047   -0.610173   -2.134591
 H    0.149514   -1.104666   -1.732477
 H    1.832425   -2.561428   -0.657400
 H    1.657783   -0.553102    1.642327
 H    3.953964   -1.269841   -0.246805
 H    2.318826    1.309457   -0.078037
 H    3.407426    1.793905   -2.261261
 H    4.370995    0.304460   -2.109442
 H    0.497999   -3.021505    1.285383
 H    3.427518   -1.972665    2.338450
 H    4.685623    0.751358    0.908541
 H    5.459624    2.236273   -1.294179
 H   -0.483238    1.455988   -1.669655
 H   -2.230054    2.580022   -0.321319
 H   -1.621677    0.439205    1.783279
 H   -4.105616    0.825760    0.039392
 H   -2.003150   -1.400236    0.027605
 H   -4.373234   -1.988346   -0.668663
 H   -3.150891   -2.198438   -1.957653
 H    0.132953    2.080138    1.102067
 H   -2.419316    2.680715    2.321891
 H   -4.296425   -0.087398    2.203379
 H   -3.840545   -0.041075   -2.613009
