45 
6jad_ligand_dft.xyz
 C    1.751400   -0.970992   -1.174509
 C    3.088311   -1.499879   -0.642341
 C    3.497556   -0.729871    0.609978
 C    3.492503    0.766360    0.344368
 C    2.100086    1.157616   -0.149936
 C    1.996617    2.627457   -0.486415
 O    3.035451   -2.884707   -0.383045
 O    4.796145   -1.086637    1.032781
 O    3.780070    1.495578    1.514489
 O    1.785346    0.424846   -1.328772
 O    0.625727    2.935162   -0.712658
 O   -4.099510    1.338313   -0.367432
 C   -4.637198   -0.948465   -0.417911
 O   -5.487240   -0.948101    0.716226
 C   -3.522119    0.068479   -0.241507
 O   -2.538573   -0.162706   -1.232026
 C   -2.786199   -0.051517    1.115313
 O   -2.676311   -1.378537    1.572285
 C   -1.410557    0.487897    0.741010
 O   -1.533297    1.899738    0.762369
 C   -1.224928   -0.037048   -0.689539
 C   -0.567098   -1.416732   -0.753925
 O    0.774344   -1.415310   -0.276563
 H    1.546822   -1.360593   -2.179034
 H    3.853531   -1.349556   -1.410616
 H    2.764119   -0.934948    1.406772
 H    4.228311    0.985545   -0.447362
 H    1.376137    0.930166    0.644026
 H    2.588128    2.832195   -1.388065
 H    2.400536    3.205797    0.352152
 H    2.180221   -3.032029    0.049710
 H    4.812914   -2.052543    1.079188
 H    4.545211    1.064964    1.920192
 H    0.550569    3.860574   -0.970521
 H   -3.410037    1.971081   -0.098342
 H   -4.206152   -1.947376   -0.495627
 H   -5.183014   -0.725974   -1.343461
 H   -5.801119   -0.038441    0.814000
 H   -3.259083    0.592906    1.864350
 H   -3.582885   -1.662664    1.762821
 H   -0.632595    0.130255    1.426408
 H   -0.761226    2.282972    0.303292
 H   -0.658394    0.676267   -1.295704
 H   -1.119040   -2.107327   -0.113850
 H   -0.600426   -1.782197   -1.789089
