45 
6jan_ligand_xtb.xyz
 C    0.940311   -0.530584   -1.173111
 C    1.753619   -1.800983   -0.867129
 C    2.519773   -1.584897    0.435722
 C    3.395126   -0.331430    0.311530
 C    2.506861    0.861011   -0.075305
 C    3.319641    2.126240   -0.362648
 O   -0.018164   -0.382654   -0.171580
 O    0.866703   -2.886584   -0.774498
 O    3.289098   -2.735408    0.691703
 O    4.041352   -0.152015    1.545984
 O    1.779847    0.587449   -1.266732
 O    4.009299    2.510101    0.808960
 C   -3.988790    0.640811    0.364019
 C   -3.720353   -0.799087   -0.113098
 C   -2.245075   -1.141783    0.115880
 C   -1.352905   -0.079819   -0.541850
 C   -1.755433    1.319510   -0.051238
 C   -1.024631    2.428300   -0.813610
 O   -3.850354    0.720283    1.752143
 O   -4.554432   -1.655963    0.626023
 O   -2.013339   -2.424977   -0.405850
 O   -3.144855    1.547053   -0.268157
 O   -1.196393    3.678691   -0.208000
 H    0.472370   -0.619937   -2.162613
 H    2.474741   -1.965784   -1.682250
 H    1.796288   -1.423958    1.250152
 H    4.138620   -0.497592   -0.488348
 H    1.812076    1.056578    0.754080
 H    2.625738    2.908052   -0.690097
 H    4.023800    1.917824   -1.179363
 H    1.346788   -3.598373   -0.329803
 H    3.919863   -2.499597    1.383310
 H    4.294986    0.779842    1.617768
 H    4.389410    3.384772    0.677820
 H   -5.004197    0.944682    0.061122
 H   -3.938325   -0.873040   -1.188658
 H   -2.037633   -1.128057    1.198908
 H   -1.472990   -0.134336   -1.632467
 H   -1.531592    1.395434    1.021327
 H   -1.404485    2.439408   -1.845832
 H    0.047346    2.226676   -0.830092
 H   -4.266670   -0.073375    2.115537
 H   -4.249397   -2.556386    0.454543
 H   -1.052934   -2.571420   -0.461081
 H   -2.142762    3.797042   -0.058894
