50 
6jaw_ligand_xtb.xyz
 C    1.850624   -1.832905    1.673254
 C   -1.268957    1.449478    1.570263
 C   -1.636012    3.912491    1.682566
 C   -5.664912   -0.861068   -0.247841
 C    3.091494   -2.469130    1.760498
 C    4.068212   -2.133736    0.872068
 C    3.861557   -1.110551   -0.076590
 C    4.904971   -0.809481   -0.977071
 C    4.767084    0.188040   -1.894665
 C    3.599069    0.954900   -1.892600
 C    2.560559    0.709162   -1.027734
 C    2.626396   -0.391329   -0.120857
 C    1.592848   -0.848249    0.750447
 C    0.155723   -0.355657    0.716991
 C    1.423274    1.702373   -1.054007
 C   -1.201072    2.792484    2.227464
 C   -4.363134   -0.585323    0.547111
 C   -4.457266   -0.707077   -2.244419
 C   -3.113149   -0.562288   -1.484299
 N    0.058653    0.851009    1.517389
 N   -3.208849   -1.135265   -0.148801
 O   -0.696069   -1.386330    1.174347
 O    1.866521    2.935066   -1.599918
 O   -5.369301   -1.470202   -1.486008
 H    1.048841   -2.149416    2.321431
 H   -1.625606    1.553571    0.540888
 H   -1.988443    0.817230    2.120190
 H   -1.576387    4.857787    2.194273
 H   -2.080382    3.931107    0.700264
 H   -6.224455    0.071873   -0.414244
 H   -6.309222   -1.570647    0.273225
 H    3.250324   -3.236195    2.503798
 H    5.021458   -2.643015    0.877066
 H    5.816079   -1.387744   -0.917486
 H    5.555545    0.413191   -2.597539
 H    3.514091    1.791449   -2.567571
 H   -0.128526   -0.098389   -0.311352
 H    0.601818    1.314344   -1.680815
 H    1.054347    1.850945   -0.034874
 H   -0.755019    2.798921    3.212903
 H   -4.412044   -1.033160    1.540480
 H   -4.200650    0.490582    0.658351
 H   -4.330767   -1.250984   -3.181134
 H   -4.890916    0.280461   -2.462220
 H   -2.850145    0.494441   -1.376201
 H   -2.305989   -1.068824   -2.014952
 H    0.392034    0.657200    2.456815
 H   -3.343967   -2.140884   -0.242768
 H   -1.590245   -1.243953    0.810534
 H    1.216537    3.608834   -1.380021
