45 
6jb0_ligand_xtb.xyz
 C    0.775820   -0.709131   -0.922290
 C    1.266582   -1.854327   -0.026888
 C    2.214570   -1.271163    1.020786
 C    3.359508   -0.530365    0.318608
 C    2.791207    0.506961   -0.663772
 C    3.884502    1.111899   -1.548919
 O    0.034768    0.180090   -0.129283
 O    0.163379   -2.488035    0.552710
 O    2.697421   -2.325683    1.816483
 O    4.143939    0.064492    1.322228
 O    1.849429   -0.069539   -1.556237
 O    4.817465    1.791205   -0.734221
 C   -0.949256    0.912287   -0.832634
 C   -1.552983    1.888694    0.190829
 C   -2.332313    1.081483    1.235950
 C   -3.366100    0.185374    0.545679
 C   -2.665461   -0.697082   -0.492833
 C   -3.685737   -1.467913   -1.338008
 O   -0.564150    2.678195    0.797358
 O   -3.004570    1.932148    2.136999
 O   -3.999392   -0.651426    1.476293
 O   -1.911140    0.099927   -1.415007
 O   -4.454037   -0.610697   -2.137228
 H    0.149105   -1.103734   -1.731209
 H    1.831925   -2.560699   -0.656826
 H    1.658923   -0.552883    1.643407
 H    3.954543   -1.269096   -0.246564
 H    2.319971    1.310347   -0.077621
 H    3.407896    1.794320   -2.261533
 H    4.369578    0.303244   -2.110907
 H    0.498720   -3.020512    1.286611
 H    3.428423   -1.972844    2.338681
 H    4.686695    0.751594    0.908513
 H    5.462506    2.232599   -1.296536
 H   -0.483243    1.457190   -1.668242
 H   -2.231489    2.579819   -0.320351
 H   -1.622939    0.437882    1.783138
 H   -4.105739    0.825675    0.037844
 H   -2.003112   -1.400382    0.027313
 H   -4.373409   -1.987930   -0.670385
 H   -3.149681   -2.199313   -1.957992
 H    0.131734    2.081051    1.102843
 H   -2.421088    2.678659    2.323766
 H   -4.298328   -0.088562    2.201744
 H   -3.837916   -0.042148   -2.615485
