45 
6jbb_ligand_xtb.xyz
 C    0.781871    0.085321   -1.218815
 C    1.107833   -1.407884   -1.383282
 C    1.785069   -1.912165   -0.104995
 C    2.996332   -1.027448    0.222252
 C    2.525899    0.427144    0.323147
 C    3.658094    1.419885    0.582423
 O   -0.212304    0.171805   -0.221997
 O   -0.048612   -2.166204   -1.641701
 O    2.227948   -3.242451   -0.243115
 O    3.582818   -1.412176    1.436083
 O    1.912303    0.824099   -0.902442
 O    3.165534    2.675931    0.955022
 C   -0.683042    2.555701   -0.752048
 C   -1.204200    1.178749   -0.313986
 C   -2.396884    0.639801   -1.139129
 C   -3.066397   -0.298053   -0.123367
 C   -2.699833    0.334962    1.234874
 C   -2.174246   -0.713694    2.216291
 O    0.303137    3.038394    0.109995
 O   -1.729880    1.339934    0.976498
 O   -1.968895   -0.009596   -2.307017
 O   -4.442604   -0.376823   -0.364402
 O   -3.198483   -1.671169    2.384743
 H    0.416087    0.483637   -2.173197
 H    1.814481   -1.515299   -2.221792
 H    1.059671   -1.842595    0.721391
 H    3.723848   -1.117151   -0.601515
 H    1.796078    0.501205    1.140993
 H    4.273118    1.054176    1.406787
 H    4.269471    1.491153   -0.328744
 H   -0.765380   -1.553996   -1.869977
 H    1.526148   -3.729875   -0.691048
 H    3.682154   -2.372742    1.405017
 H    2.426545    2.895057    0.367561
 H   -0.242103    2.509466   -1.748332
 H   -1.550780    3.231370   -0.773496
 H   -3.085516    1.462304   -1.372628
 H   -2.601010   -1.291428   -0.204916
 H   -3.578869    0.829166    1.665885
 H   -1.266797   -1.165335    1.795505
 H   -1.921803   -0.226089    3.165566
 H    0.000056    2.907708    1.018038
 H   -2.753215   -0.353315   -2.753692
 H   -4.831696   -0.930341    0.323401
 H   -2.901163   -2.334949    3.015661
