47 
6jdi_ligand_dft.xyz
 P    3.731496    0.299039   -0.090953
 S    5.378964   -0.834816   -0.631269
 O    3.638028    1.295999   -1.313047
 O    3.719030    0.893248    1.263615
 P    1.622732   -1.653251    0.640377
 O    2.014085   -3.072273    0.544042
 O    1.686320   -1.026283    2.075138
 O    2.424994   -0.656833   -0.339636
 P   -0.594372   -2.324305   -1.052366
 O   -0.102863   -1.999046   -2.389572
 O   -0.448218   -3.802306   -0.484739
 O    0.108188   -1.413450    0.138221
 O   -2.126153   -1.978145   -0.830827
 C   -2.934925   -2.465818    0.246923
 C   -3.891145   -1.377336    0.701762
 O   -3.201521   -0.425050    1.527242
 C   -4.541804   -0.563467   -0.419126
 O   -5.796424   -0.120113    0.035454
 C   -3.589681    0.627673   -0.561726
 O   -4.274017    1.726483   -1.087071
 C   -3.140158    0.820390    0.901202
 N   -1.757526    1.293023    0.993899
 C   -0.776667    0.788100    1.792640
 N    0.394516    1.351996    1.617759
 C    0.168964    2.299045    0.636415
 C    0.974411    3.236598   -0.023618
 N    2.339242    3.317894    0.164631
 N    0.426023    4.053399   -0.924983
 C   -0.876170    3.928865   -1.199543
 N   -1.743251    3.066706   -0.672538
 C   -1.170891    2.279207    0.244371
 H    5.277482   -1.646139    0.436095
 H    3.167988    2.118075   -1.014097
 H    1.569197   -0.037750    2.065224
 H    0.470287   -3.957951   -0.166295
 H   -3.494504   -3.329082   -0.124073
 H   -2.311677   -2.781685    1.087677
 H   -4.668827   -1.840234    1.316824
 H   -4.623304   -1.132821   -1.353882
 H   -5.969499    0.714345   -0.426680
 H   -2.726906    0.342582   -1.173828
 H   -3.617191    2.443820   -1.171054
 H   -3.792066    1.542948    1.404805
 H   -0.976987   -0.029276    2.468281
 H    2.703613    2.885095    1.011245
 H    2.724567    4.230752   -0.048725
 H   -1.269681    4.613613   -1.944849
