47 
6jdl_ligand_dft.xyz
 P    3.731496    0.299038   -0.090953
 S    5.378962   -0.834819   -0.631270
 O    3.638028    1.295999   -1.313046
 O    3.719030    0.893246    1.263616
 P    1.622731   -1.653251    0.640377
 O    2.014085   -3.072272    0.544042
 O    1.686320   -1.026283    2.075138
 O    2.424992   -0.656832   -0.339635
 P   -0.594373   -2.324305   -1.052366
 O   -0.102863   -1.999045   -2.389571
 O   -0.448218   -3.802306   -0.484739
 O    0.108187   -1.413450    0.138222
 O   -2.126154   -1.978146   -0.830827
 C   -2.934926   -2.465818    0.246924
 C   -3.891145   -1.377335    0.701762
 O   -3.201521   -0.425049    1.527242
 C   -4.541804   -0.563466   -0.419126
 O   -5.796423   -0.120111    0.035455
 C   -3.589680    0.627674   -0.561727
 O   -4.274016    1.726484   -1.087071
 C   -3.140157    0.820391    0.901202
 N   -1.757525    1.293023    0.993899
 C   -0.776666    0.788100    1.792640
 N    0.394517    1.351997    1.617759
 C    0.168965    2.299046    0.636415
 C    0.974413    3.236598   -0.023618
 N    2.339244    3.317894    0.164632
 N    0.426025    4.053399   -0.924983
 C   -0.876168    3.928865   -1.199543
 N   -1.743249    3.066706   -0.672539
 C   -1.170889    2.279207    0.244370
 H    5.277478   -1.646142    0.436094
 H    3.167990    2.118075   -1.014096
 H    1.569197   -0.037751    2.065225
 H    0.470288   -3.957950   -0.166295
 H   -3.494506   -3.329082   -0.124072
 H   -2.311678   -2.781685    1.087677
 H   -4.668827   -1.840233    1.316825
 H   -4.623304   -1.132820   -1.353881
 H   -5.969498    0.714346   -0.426679
 H   -2.726906    0.342582   -1.173828
 H   -3.617190    2.443820   -1.171055
 H   -3.792065    1.542949    1.404805
 H   -0.976986   -0.029275    2.468281
 H    2.703614    2.885096    1.011246
 H    2.724568    4.230752   -0.048725
 H   -1.269678    4.613613   -1.944850
