97 
6jij_ligand_dft.xyz
 C    7.242450   -0.918411   -0.397928
 C    7.915669   -1.660328   -1.314467
 C    9.337041   -2.066710   -1.472067
 O    7.056429   -2.087751   -2.261713
 N    5.795226   -1.630373   -1.982474
 C    5.908161   -0.937499   -0.876061
 C    4.730810   -0.268717   -0.241345
 O    4.877628    0.392321    0.779633
 N    3.562952   -0.442231   -0.898453
 C    2.295408    0.041424   -0.390591
 C    1.455678   -1.180110   -0.003389
 O    1.420705   -2.174826   -0.730309
 C    1.571121    0.893083   -1.433856
 N    0.781624   -1.091356    1.161770
 C    0.055854   -2.224497    1.724252
 C   -1.367663   -2.266128    1.136413
 O   -2.369110   -1.947400    1.779208
 C    0.127720   -2.224817    3.260549
 C   -0.443296   -0.969790    3.931893
 C   -0.516911   -3.495989    3.822095
 N   -1.396227   -2.653954   -0.158671
 C   -2.573492   -2.639403   -1.030878
 C   -2.904823   -1.186467   -1.417485
 O   -2.785959   -0.792012   -2.567938
 C   -3.794860   -3.408490   -0.506283
 C   -3.608433   -4.920652   -0.269213
 C   -2.836762   -5.260969    1.011604
 C   -2.998979   -5.634850   -1.478453
 C   -3.073951    1.055874   -0.454615
 C   -1.830116    1.383258    0.329533
 C   -1.556396    2.490145    1.021572
 C   -0.216780    2.653610    1.622791
 C   -4.319846    1.850295   -0.060693
 C   -5.532239    1.442758   -0.886052
 C   -5.415510    1.647007   -2.402353
 C   -6.871684    1.854110   -2.851195
 N   -7.467935    2.461443   -1.674282
 C   -6.788720    2.229690   -0.512532
 O   -7.129675    2.577259    0.601750
 N   -3.282795   -0.383412   -0.380048
 O    0.597989    1.762809    1.801423
 C    1.386714    4.242629    2.303028
 O    0.027674    3.929068    1.926479
 C    2.065215    5.215283    0.089010
 C    2.868138    5.238089   -1.045215
 C    3.906117    4.317229   -1.181949
 C    4.130962    3.372495   -0.185733
 C    3.317002    3.343439    0.944415
 C    2.284923    4.268014    1.092685
 H    7.613744   -0.427677    0.487239
 H    9.923973   -1.698426   -0.628512
 H    9.427314   -3.156401   -1.514389
 H    9.757376   -1.657855   -2.396287
 H    3.536355   -1.116718   -1.654029
 H    2.515053    0.647343    0.489480
 H    0.646522    1.303874   -1.019482
 H    2.212118    1.728789   -1.726772
 H    1.323492    0.297565   -2.318576
 H    0.745122   -0.188602    1.628881
 H    0.577586   -3.118596    1.363752
 H    1.202568   -2.264816    3.483826
 H    0.044348   -0.050550    3.590285
 H   -1.514739   -0.881675    3.743817
 H   -0.282909   -1.034063    5.013489
 H   -0.106053   -4.396276    3.350034
 H   -1.598736   -3.486312    3.662750
 H   -0.332234   -3.569867    4.898535
 H   -0.487292   -2.759426   -0.607960
 H   -2.249323   -3.095673   -1.967727
 H   -4.572788   -3.275702   -1.270129
 H   -4.165853   -2.944249    0.410989
 H   -4.626857   -5.311777   -0.137690
 H   -3.217699   -4.697096    1.868940
 H   -1.770059   -5.039025    0.907206
 H   -2.931318   -6.329334    1.235876
 H   -1.943623   -5.367661   -1.610691
 H   -3.530057   -5.386952   -2.405021
 H   -3.043134   -6.721091   -1.345988
 H   -2.847941    1.253383   -1.510647
 H   -1.062859    0.611905    0.284698
 H   -2.243029    3.325826    1.106457
 H   -4.123213    2.919151   -0.212311
 H   -4.544018    1.714511    1.003118
 H   -5.754039    0.386461   -0.679902
 H   -4.841653    2.559948   -2.605899
 H   -4.921082    0.816574   -2.910898
 H   -7.354717    0.898495   -3.098505
 H   -6.953053    2.513084   -3.720415
 H   -8.404441    2.835041   -1.649202
 H   -3.245761   -0.802762    0.547784
 H    1.303397    5.227604    2.765733
 H    1.733245    3.519139    3.043729
 H    1.256502    5.933986    0.196762
 H    2.689009    5.977471   -1.820253
 H    4.537564    4.337599   -2.065578
 H    4.928604    2.643200   -0.275758
 H    3.488079    2.583432    1.701169
