109 
6jjm_ligand_dft.xyz
 C    2.815914    2.458961   -0.054931
 C    2.877553    3.116614    1.327329
 C    3.439130    4.540677    1.166343
 C    4.720195    4.524046    0.326657
 C    4.510507    3.813895   -1.003184
 C    5.782133    3.679797   -1.825233
 C    1.083396    3.501230    3.041996
 C   -0.316319    3.074963    3.432446
 N    1.513750    3.036870    1.845762
 O    2.491502    1.125143    0.114555
 O    3.819165    5.159707    2.363495
 O    5.143830    5.842342    0.080958
 O    4.046866    2.498819   -0.727679
 O    5.549341    3.083473   -3.084483
 O    1.741655    4.246513    3.766736
 C    1.269442   -2.144128   -0.185276
 C    0.532378   -0.982615    0.480500
 C    0.453267    0.127714   -0.562413
 C    1.872738    0.500653   -0.999364
 C    2.650727   -0.738141   -1.466387
 C    4.123458   -0.491615   -1.816177
 O   -0.742371   -1.393922    0.888869
 O   -0.187110    1.297923   -0.050525
 O    2.590641   -1.776075   -0.500095
 O    4.948325   -0.238434   -0.717764
 C    2.865527   -6.511002    0.100475
 C    2.802056   -5.035328    0.450308
 C    1.399551   -4.502926    0.161066
 C    0.304262   -5.393454    0.774183
 C   -1.111991   -5.039022    0.318759
 C    1.737922   -7.255267    0.806814
 O    1.731910   -8.602401    0.480824
 O    4.083227   -7.100635    0.497657
 O    3.797399   -4.391272   -0.307545
 O    1.278020   -3.193844    0.705421
 O    0.506549   -6.733778    0.373129
 O   -1.604232   -3.945155    1.071019
 C   -1.277427    1.913933   -2.117438
 C   -1.437133    1.582982   -0.612294
 C   -2.055872    2.747579    0.133215
 C   -3.518439    2.946016   -0.256947
 C   -4.315582    1.634344   -0.071365
 C   -3.600457    0.407088   -0.679148
 C   -3.983475   -0.949132   -0.023658
 C   -5.392798   -1.468422   -0.333001
 C   -6.393161   -1.136224    0.773232
 C   -6.695798    2.345801   -0.154813
 C   -8.034544    1.962637   -0.750124
 N   -5.634030    1.698860   -0.695565
 O   -1.960036    1.465650   -3.002928
 O   -0.292282    2.805581   -2.327607
 O   -3.986963    3.981158    0.561158
 O   -2.203554    0.438473   -0.451278
 O   -3.067357   -1.941912   -0.434595
 O   -5.855737   -0.976019   -1.583655
 O   -7.667886   -1.495255    0.264835
 O   -6.593076    3.169846    0.752017
 H    2.052037    2.974462   -0.664347
 H    3.561090    2.535689    1.960225
 H    2.685521    5.141713    0.625837
 H    5.479586    3.963861    0.897185
 H    3.748632    4.357156   -1.588199
 H    6.251322    4.667551   -1.911567
 H    6.472822    3.018239   -1.293822
 H   -0.588598    2.100723    3.016723
 H   -1.035339    3.820709    3.076708
 H   -0.376721    3.039836    4.521026
 H    0.917509    2.365364    1.371524
 H    3.111761    4.993542    3.023826
 H    5.083241    6.291919    0.937188
 H    5.149492    3.749099   -3.655898
 H    0.737283   -2.433629   -1.112914
 H    1.131134   -0.640491    1.334598
 H   -0.110272   -0.249875   -1.424895
 H    1.820604    1.204702   -1.837972
 H    2.151046   -1.080388   -2.392215
 H    4.497851   -1.405301   -2.289265
 H    4.167170    0.317945   -2.560253
 H   -0.684291   -2.317776    1.212962
 H    4.806186    0.686285   -0.468218
 H    2.705919   -6.628584   -0.982499
 H    2.991606   -4.920234    1.530062
 H    1.261990   -4.468968   -0.928969
 H    0.348748   -5.302318    1.872035
 H   -1.109788   -4.815536   -0.757797
 H   -1.731753   -5.929982    0.477288
 H    1.828509   -7.111005    1.901129
 H    2.660595   -8.866254    0.412132
 H    4.789608   -6.545300    0.140592
 H    3.721850   -3.430872   -0.177633
 H   -2.358570   -3.550281    0.598672
 H   -1.495630    3.671321   -0.031828
 H   -2.012016    2.504476    1.198598
 H   -3.593022    3.218962   -1.324035
 H   -4.430020    1.496028    1.014927
 H   -3.781095    0.364814   -1.757469
 H   -3.895900   -0.803684    1.066567
 H   -5.308280   -2.560792   -0.394067
 H   -6.359103   -0.069469    1.029971
 H   -6.138186   -1.715372    1.671263
 H   -8.222113    0.893713   -0.595555
 H   -8.819068    2.549964   -0.273438
 H   -8.044897    2.150998   -1.828466
 H   -5.846723    0.928786   -1.326797
 H   -0.297739    3.003184   -3.278979
 H   -4.948835    3.864402    0.696867
 H   -2.178829   -1.591216   -0.202971
 H   -6.771852   -1.282287   -1.658524
 H   -8.338084   -1.303269    0.929717
