109 
6jjm_ligand_xtb.xyz
 C    3.702426    0.005849   -0.202662
 C    4.052692    0.182620    1.282750
 C    5.336243    1.014379    1.439238
 C    6.428509    0.496907    0.482922
 C    5.895546    0.401503   -0.949269
 C    6.947950   -0.159501   -1.916680
 C    2.687692    0.879942    3.233546
 C    1.313820    1.370555    3.617008
 N    2.892851    0.802859    1.901693
 O    2.693265   -0.953171   -0.276735
 O    5.884413    0.950864    2.726328
 O    7.535009    1.357987    0.505834
 O    4.772083   -0.457650   -0.978473
 O    6.746430    0.248228   -3.243479
 O    3.552925    0.614944    4.050303
 C   -0.508954   -2.256391   -0.352690
 C   -0.082365   -0.943056    0.320343
 C    0.513149   -0.061759   -0.786926
 C    1.755220   -0.801556   -1.325414
 C    1.318666   -2.185447   -1.854545
 C    2.513156   -3.047622   -2.315630
 O   -1.158655   -0.321312    0.957590
 O    0.875237    1.219785   -0.284009
 O    0.610566   -2.924769   -0.885905
 O    3.334354   -3.477104   -1.281159
 C   -2.210402   -6.592655    0.164122
 C   -1.216770   -5.450008    0.390661
 C   -1.927681   -4.105305    0.167067
 C   -3.252456   -4.041900    0.956615
 C   -4.069500   -2.788506    0.618389
 C   -3.467386   -6.370478    1.019735
 O   -4.406940   -7.362238    0.806603
 O   -1.660782   -7.838305    0.506510
 O   -0.148980   -5.653386   -0.497245
 O   -1.102631   -3.036970    0.614547
 O   -4.067433   -5.150918    0.669667
 O   -3.548640   -1.679079    1.312863
 C    0.442804    2.649107   -2.187427
 C    0.085539    2.293736   -0.725984
 C    0.421767    3.492445    0.170043
 C   -0.620477    4.612201    0.014225
 C   -1.997963    3.998253    0.321150
 C   -2.274666    2.868468   -0.676949
 C   -3.608061    2.125028   -0.361690
 C   -4.642657    2.385848   -1.467305
 C   -5.976335    1.709623   -1.135797
 C   -3.362532    5.736232    1.343471
 C   -4.605464    6.572158    1.181923
 N   -3.061969    4.975316    0.268925
 O   -0.340114    3.021853   -3.016256
 O    1.746278    2.512661   -2.418827
 O   -0.299135    5.690265    0.844282
 O   -1.253297    1.888968   -0.630726
 O   -3.447713    0.737627   -0.249327
 O   -4.834606    3.774393   -1.616607
 O   -6.889108    2.088068   -2.146597
 O   -2.661251    5.746530    2.340791
 H    3.356502    0.981418   -0.596805
 H    4.225331   -0.807278    1.727667
 H    5.106978    2.064137    1.176194
 H    6.719652   -0.511742    0.817467
 H    5.596880    1.411895   -1.278198
 H    7.938550    0.139315   -1.556285
 H    6.867463   -1.247532   -1.918057
 H    0.552325    0.988892    2.941851
 H    1.308461    2.459168    3.585531
 H    1.097063    1.061303    4.635672
 H    2.120118    1.005647    1.280781
 H    5.160043    0.824029    3.378018
 H    7.723058    1.535061    1.437840
 H    6.916625    1.195047   -3.305713
 H   -1.222610   -2.030214   -1.176563
 H    0.709286   -1.181592    1.045911
 H   -0.222485    0.060561   -1.588860
 H    2.205620   -0.236363   -2.149739
 H    0.660934   -2.000710   -2.723538
 H    2.121549   -3.953130   -2.786577
 H    3.074633   -2.466329   -3.063203
 H   -1.747415   -1.015679    1.319312
 H    3.639293   -2.699117   -0.792157
 H   -2.511692   -6.586639   -0.896362
 H   -0.860808   -5.479367    1.433810
 H   -2.139828   -3.999407   -0.905221
 H   -3.001686   -4.008185    2.029029
 H   -4.053281   -2.620801   -0.464531
 H   -5.104522   -2.987346    0.923777
 H   -3.166695   -6.341360    2.089509
 H   -3.923479   -8.185622    0.655741
 H   -0.772571   -7.867810    0.127841
 H    0.414635   -4.863050   -0.508256
 H   -3.885712   -0.864958    0.906498
 H    1.418296    3.864219   -0.065192
 H    0.417009    3.144767    1.204572
 H   -0.611614    4.983227   -1.022117
 H   -1.959137    3.589220    1.342899
 H   -2.326657    3.296196   -1.686507
 H   -4.007781    2.522773    0.586073
 H   -4.262809    1.959191   -2.407484
 H   -6.325635    2.056572   -0.153432
 H   -5.831930    0.625722   -1.104355
 H   -5.428780    5.965281    0.814841
 H   -4.867684    7.017703    2.136873
 H   -4.410719    7.365403    0.463495
 H   -3.690654    4.928997   -0.521705
 H    1.961825    2.776994   -3.330363
 H   -0.909077    5.708653    1.604683
 H   -2.525791    0.563954    0.039114
 H   -5.639388    3.873335   -2.145226
 H   -7.717123    1.616122   -2.018088
