52 
6jki_ligand_xtb.xyz
 N    0.730318    3.368694    1.007506
 C    1.742213    2.887220    0.063313
 C    0.960219    2.364512   -1.142371
 O    1.114146    3.132058   -2.198297
 O    0.264048    1.374830   -1.118504
 C    2.519347    1.751785    0.739693
 C    3.515103    1.060147   -0.193764
 C    4.143574   -0.187782    0.447412
 N    4.651960   -1.100172   -0.635287
 C    3.277742   -1.009991    1.408670
 C    1.947603   -1.606911    0.922044
 O    0.837464   -0.935656    1.517302
 C    1.572674   -1.560423   -0.575822
 O    2.384017   -2.355361   -1.392076
 C    0.097499   -1.994933   -0.501287
 O    0.065619   -3.385208   -0.551943
 C   -0.317239   -1.432459    0.902153
 N   -1.319895   -0.401240    0.789479
 C   -1.275859    0.894730    1.090195
 N   -2.450494    1.461001    0.838004
 C   -3.313722    0.507165    0.341699
 C   -4.661544    0.427445   -0.105119
 N   -5.527996    1.436008   -0.145415
 N   -5.077642   -0.767985   -0.527183
 C   -4.286064   -1.815016   -0.523398
 N   -3.018819   -1.860321   -0.122550
 C   -2.579929   -0.687758    0.305338
 H    1.184882    3.679405    1.861468
 H    0.256710    4.180849    0.622870
 H   -2.653876    2.438488    0.993363
 H    2.425320    3.671982   -0.293080
 H    0.595189    2.847889   -2.971062
 H    1.783847    1.032978    1.095111
 H    3.048590    2.161903    1.600531
 H    4.309436    1.763323   -0.452125
 H    3.012266    0.791379   -1.123102
 H    5.012625    0.136019    1.030113
 H    3.847226   -1.650064   -1.058530
 H    5.120610   -0.567107   -1.375691
 H    5.321537   -1.778242   -0.255720
 H    3.043090   -0.398446    2.279537
 H    3.898624   -1.829909    1.773588
 H    1.910915   -2.663539    1.229593
 H    1.594940   -0.536712   -0.949950
 H    2.020518   -3.257043   -1.391590
 H   -0.505366   -1.538629   -1.292169
 H   -0.840963   -3.700965   -0.651706
 H   -0.758597   -2.254533    1.490723
 H   -0.417784    1.435802    1.455093
 H   -6.459786    1.228941   -0.472490
 H   -5.323789    2.362572    0.184644
 H   -4.710229   -2.739924   -0.885701
