52 
6jmf_ligand_dft.xyz
 C    2.906645   -0.946736    0.026883
 C    0.197695   -1.571614    0.033827
 C    1.142375   -2.619529   -0.002832
 C    2.493135   -2.268466   -0.014994
 C   -1.508492    3.899311    2.130946
 C    0.684857   -3.968837   -0.009317
 C    4.342312   -0.539827    0.013297
 C    1.881233    0.046384    0.007789
 N    0.577461   -0.292113    0.011890
 N    2.164774    1.363078   -0.039385
 N   -1.148731   -1.807331    0.048062
 C    1.154520    2.360282   -0.122094
 C    0.361207    2.639861    0.991683
 C   -0.679764    3.566498    0.916331
 C   -0.906125    4.214128   -0.307366
 C   -0.096715    3.957041   -1.412769
 C    0.934112    3.022713   -1.328155
 C   -2.096572   -0.875145    0.665129
 C   -3.236238   -1.656475    1.335354
 C   -4.142253   -2.362828    0.319961
 C   -4.696614   -1.375326   -0.709489
 C   -3.571262   -0.591927   -1.394511
 C   -2.709377    0.110874   -0.351312
 N   -1.617334    0.912753   -1.017934
 N    0.221474   -5.033032   -0.008747
 O    4.684804    0.600764   -0.294182
 N    5.260748   -1.488280    0.325856
 H    3.224884   -3.068031   -0.072531
 H   -1.498192    3.086529    2.862672
 H   -1.110694    4.791286    2.627121
 H   -2.548158    4.113430    1.865232
 H    3.149926    1.579737   -0.208988
 H   -1.408432   -2.785384    0.085596
 H    0.564507    2.120249    1.923690
 H   -1.702289    4.950204   -0.382554
 H   -0.269629    4.485613   -2.345071
 H    1.560918    2.802349   -2.186696
 H   -1.555835   -0.296192    1.423929
 H   -3.832960   -0.948853    1.923526
 H   -2.806997   -2.368925    2.047346
 H   -3.596030   -3.162986   -0.197383
 H   -4.963383   -2.853490    0.850216
 H   -5.377151   -0.670862   -0.213407
 H   -5.285235   -1.901845   -1.465643
 H   -2.937927   -1.279006   -1.972263
 H   -3.989495    0.143408   -2.092056
 H   -3.316878    0.827189    0.210663
 H   -0.663622    0.611987   -0.624078
 H   -1.702607    1.923623   -0.859792
 H   -1.601385    0.758343   -2.027664
 H    6.222559   -1.180193    0.356351
 H    5.028864   -2.312115    0.856882
