52 
6jmf_ligand_xtb.xyz
 C    1.736944   -2.354449    0.000112
 C   -0.874491   -1.349525    0.198520
 C   -0.647894   -2.742442    0.207939
 C    0.658081   -3.216545    0.093378
 C    0.793147    4.094794    1.926994
 C   -1.746779   -3.618606    0.325314
 C    3.147157   -2.820261   -0.123942
 C    1.470422   -0.953047   -0.032338
 N    0.182481   -0.523037    0.058453
 N    2.445199   -0.070673   -0.185821
 N   -2.097764   -0.827416    0.294405
 C    2.392087    1.331254   -0.115209
 C    1.614598    1.991882    0.832390
 C    1.612438    3.378575    0.899670
 C    2.402098    4.095927    0.005741
 C    3.194900    3.440423   -0.919365
 C    3.198840    2.058772   -0.983196
 C   -2.438407    0.543229    0.649060
 C   -3.882436    0.554291    1.159683
 C   -4.871934    0.204927    0.047816
 C   -4.699527    1.132061   -1.151501
 C   -3.256844    1.115478   -1.653906
 C   -2.316056    1.537138   -0.528464
 N   -0.911059    1.639872   -0.964691
 N   -2.665143   -4.297535    0.422672
 O    4.045183   -2.058933   -0.467035
 N    3.403682   -4.106223    0.152394
 H    0.795618   -4.286590    0.072233
 H    0.106373    3.419546    2.431303
 H    1.446792    4.537048    2.677462
 H    0.226671    4.905558    1.472676
 H    3.359159   -0.521399   -0.390332
 H   -2.858775   -1.491777    0.357623
 H    1.046651    1.425117    1.555589
 H    2.408538    5.173965    0.052787
 H    3.818856    4.007891   -1.591539
 H    3.820893    1.540108   -1.695487
 H   -1.757513    0.868340    1.447741
 H   -4.106134    1.550438    1.543004
 H   -3.983292   -0.147839    1.989273
 H   -4.739995   -0.830569   -0.273993
 H   -5.886357    0.292988    0.435935
 H   -4.967746    2.151117   -0.866389
 H   -5.369653    0.824241   -1.953622
 H   -2.990616    0.113992   -1.999660
 H   -3.155211    1.804462   -2.494583
 H   -2.651563    2.507823   -0.145579
 H   -0.080377    0.476736   -0.241505
 H   -0.509533    2.538359   -0.720826
 H   -0.840872    1.534386   -1.971383
 H    4.360526   -4.412704    0.068483
 H    2.726269   -4.757953    0.503005
