53 
6joe_ligand_xtb.xyz
 C    6.170978    1.324153   -1.318017
 C    7.338957    1.171121   -0.259572
 C    7.514666   -0.252671    0.078647
 N    9.231620   -0.171528    2.469617
 C    6.266026   -0.877383    0.553097
 C    5.145664   -0.675396   -0.541725
 N    4.973550    0.711176   -0.839876
 C    3.269950    1.039211   -2.073320
 C    2.264347    0.447760   -1.293255
 C    1.579216    1.178364   -0.295465
 C    0.672876    0.569533    0.535771
 C    1.980814   -0.932766   -1.391063
 C    1.066862   -1.532305   -0.554329
 C    0.409691   -0.798205    0.427732
 C   -0.606421   -1.441970    1.331664
 N   -1.937803   -0.952675    1.034912
 C   -2.839067   -1.699558    0.394102
 O   -2.675455   -2.870672    0.089057
 C   -4.149198   -1.031180    0.081858
 C   -4.619158    0.317317    0.266400
 C   -3.987365    1.528292    0.815393
 O   -2.849641    1.588890    1.246588
 N   -4.773571    2.670405    0.830644
 C   -5.968828    2.689041    0.396170
 N   -6.613937    1.615770   -0.127888
 C   -5.923184    0.439513   -0.185134
 S   -6.585757   -1.023221   -0.821456
 C   -5.101852   -1.820683   -0.484107
 H    6.475672    0.832434   -2.244259
 H    6.001917    2.383363   -1.515865
 H    7.044546    1.750683    0.619338
 H    8.238734    1.614311   -0.684517
 H    8.111329   -0.838653   -0.609689
 H    9.220331   -1.110752    2.850769
 H   10.174672    0.004051    2.142082
 H    8.616369   -0.175143    1.636610
 H    5.905347   -0.402098    1.468962
 H    6.373337   -1.946305    0.733032
 H    4.201229   -1.097254   -0.189866
 H    5.451579   -1.195585   -1.452116
 H    4.602356    1.205524   -0.032768
 H    3.657463    0.511319   -2.927334
 H    3.364164    2.111524   -2.095579
 H    1.773619    2.237665   -0.201242
 H    0.151403    1.150858    1.282798
 H    2.478282   -1.513468   -2.154706
 H    0.854347   -2.587144   -0.655782
 H   -0.384688   -1.210666    2.379765
 H   -0.616647   -2.525248    1.190894
 H   -2.113806    0.042714    1.185048
 H   -6.526542    3.615129    0.439100
 H   -7.564051    1.663612   -0.467235
 H   -4.986943   -2.860250   -0.720250
