46 
6jon_ligand_dft.xyz
 P    5.465477   -0.237903    0.009501
 O    5.467273   -0.374060    1.579721
 O    4.999792   -1.393923   -0.779719
 O    6.925175    0.250349   -0.347464
 P    3.014472    1.345609   -0.055552
 O    2.614661    1.891713    1.246236
 O    2.617266    2.142204   -1.357067
 O    4.587666    1.116879   -0.295791
 P    2.204421   -1.439764    0.544313
 O    2.981514   -1.379728    1.798592
 O    2.537002   -2.579495   -0.495385
 O    2.380166   -0.114740   -0.381233
 O    0.647663   -1.532735    0.789506
 C   -0.349390   -1.441452   -0.239650
 C   -0.455134   -0.050550   -0.892561
 O   -1.686288   -0.006384   -1.607949
 C   -0.504701    1.100298    0.110999
 O   -0.017543    2.275553   -0.550819
 C   -1.996632    1.199034    0.406975
 C   -2.638135    0.772304   -0.919324
 N   -3.839979   -0.025573   -0.719529
 C   -4.132355   -1.283494   -1.200939
 N   -5.326674   -1.704839   -0.878805
 C   -5.860619   -0.659720   -0.152078
 C   -7.106207   -0.465027    0.475575
 N   -8.066462   -1.412836    0.474012
 N   -7.338221    0.694238    1.107321
 C   -6.367504    1.617575    1.121611
 N   -5.153183    1.562184    0.579713
 C   -4.961000    0.394191   -0.046638
 H    4.617063   -0.776470    1.901377
 H    7.270150    0.915626    0.264619
 H    1.647644    2.324285   -1.303196
 H    3.466912   -2.442524   -0.800358
 H   -1.288398   -1.675486    0.265626
 H   -0.164563   -2.200087   -1.004924
 H    0.343932    0.098883   -1.619252
 H    0.095049    0.904452    1.003651
 H    0.058500    2.967985    0.120217
 H   -2.270036    0.492007    1.196219
 H   -2.321483    2.191332    0.722776
 H   -2.902633    1.634745   -1.539373
 H   -3.411211   -1.830533   -1.790186
 H   -8.974598   -1.179245    0.841645
 H   -7.953532   -2.237356   -0.092925
 H   -6.611435    2.537040    1.648321
