46 
6jon_ligand_xtb.xyz
 P   -5.421325    0.079869   -0.105318
 O   -5.935047    0.709153    1.234691
 O   -4.820150    0.954832   -1.107635
 O   -6.683248   -0.680603   -0.643222
 P   -2.926870   -1.375524    0.242829
 O   -2.275044   -1.693682    1.501514
 O   -2.864653   -2.444940   -0.906457
 O   -4.484034   -1.150629    0.376066
 P   -2.466327    1.381336    0.192132
 O   -3.435310    1.439561    1.282146
 O   -2.604628    2.352790   -1.027076
 O   -2.381718   -0.071074   -0.503553
 O   -1.010437    1.654620    0.732384
 C    0.139929    1.684878   -0.097312
 C    0.466455    0.316390   -0.720959
 O    1.754994    0.350397   -1.308570
 C    0.465089   -0.801129    0.333853
 O   -0.107895   -1.970364   -0.218498
 C    1.953841   -0.965417    0.657138
 C    2.651382   -0.497101   -0.630164
 N    3.880276    0.203821   -0.362369
 C    4.093397    1.545243   -0.191995
 N    5.325652    1.854161    0.066706
 C    5.997028    0.656364    0.079579
 C    7.336409    0.284733    0.294042
 N    8.303926    1.171811    0.581500
 N    7.651385   -1.011481    0.225237
 C    6.701858   -1.894989   -0.035850
 N    5.417044   -1.682599   -0.252294
 C    5.098962   -0.389156   -0.191587
 H   -5.208366    1.203233    1.644014
 H   -7.142963   -1.177448    0.034287
 H   -1.952143   -2.628285   -1.148298
 H   -3.470696    2.201003   -1.433944
 H    0.956690    1.992244    0.562443
 H    0.013761    2.424368   -0.891049
 H   -0.255603    0.089748   -1.510551
 H   -0.113927   -0.498876    1.211135
 H   -0.329145   -2.549923    0.521514
 H    2.234155   -0.315876    1.486515
 H    2.214148   -1.992382    0.900262
 H    2.913768   -1.353099   -1.270775
 H    3.299063    2.257134   -0.294467
 H    9.250761    0.848962    0.665318
 H    8.088207    2.151725    0.568749
 H    7.023388   -2.927128   -0.076047
