70 
6jpj_ligand_dft.xyz
 O    5.509865   -2.630432   -0.794990
 C    4.591507   -2.554646   -0.002919
 C    3.645383   -3.747158    0.118681
 N    2.317519   -3.335228    0.647574
 C    1.341276   -4.452589    0.697791
 C    2.536042   -2.678300    1.965943
 C    3.246222   -1.354827    1.734648
 N    4.297812   -1.442849    0.730506
 C    4.954297   -0.181666    0.365420
 C    3.934153    0.871295   -0.013663
 C    3.884018    2.089887    0.671815
 C    2.939596    0.653270   -0.967065
 C    2.742703   -0.608356   -1.783922
 O    1.753914   -1.455882   -1.186381
 N    1.964668    1.539788   -1.164806
 C    1.855063    2.641820   -0.429301
 C    2.862805    3.011330    0.485828
 C    2.793125    4.301536    1.266040
 C    1.363905    4.841395    1.323388
 C    0.741396    4.783918   -0.066840
 N    0.677253    3.401273   -0.555192
 C   -0.611820    2.818204   -0.629093
 O   -1.593707    3.383399   -0.190143
 N   -0.628861    1.583432   -1.237087
 C   -1.501264    0.538787   -0.982736
 C   -2.808840    0.716380   -0.562881
 N   -0.928468   -0.671396   -1.199330
 C   -1.695984   -1.739423   -1.000255
 C   -3.008575   -1.689261   -0.558538
 C   -3.736211   -2.893714   -0.326436
 N   -4.339334   -3.861656   -0.111365
 C   -3.607594   -0.415071   -0.319076
 N   -4.872046   -0.328311    0.124199
 C   -5.611329    0.912547    0.266320
 C   -6.923336    0.608008    0.969708
 O   -7.540452   -0.432980    0.257646
 C   -8.737538   -0.881049    0.853220
 H    4.062625   -4.524362    0.765569
 H    3.516891   -4.152085   -0.885997
 H    1.971064   -2.595636   -0.032128
 H    1.252250   -4.887412   -0.298539
 H    1.691144   -5.207510    1.404737
 H    0.374442   -4.060766    1.017353
 H    1.568592   -2.504814    2.440626
 H    3.113841   -3.370024    2.585477
 H    2.512502   -0.608517    1.413624
 H    3.673398   -1.011449    2.683737
 H    5.557728    0.170691    1.209335
 H    5.640445   -0.417777   -0.450334
 H    4.646371    2.309619    1.417153
 H    2.409097   -0.321567   -2.785545
 H    3.656783   -1.193347   -1.890076
 H    0.843114   -1.058479   -1.280571
 H    3.200356    4.151071    2.271251
 H    3.441157    5.040451    0.776277
 H    0.750787    4.246312    2.009653
 H    1.362941    5.871502    1.690177
 H    1.336033    5.367517   -0.778979
 H   -0.274974    5.172020   -0.063966
 H    0.274866    1.286476   -1.606164
 H   -3.186436    1.721391   -0.440853
 H   -1.238133   -2.706034   -1.198866
 H   -5.457018   -1.156488    0.090746
 H   -5.037083    1.626416    0.865938
 H   -5.805264    1.362411   -0.716049
 H   -6.731454    0.303478    2.011499
 H   -7.551648    1.511008    0.988798
 H   -9.484385   -0.076363    0.898773
 H   -9.119950   -1.690392    0.229899
 H   -8.560845   -1.259455    1.870431
