41 
6jsg_ligand_dft.xyz
 C   -0.700507   -2.683980   -0.313539
 C   -2.051037   -3.012038   -0.300149
 C   -2.994159   -2.061818    0.041807
 C   -2.654588   -0.751845    0.385435
 C   -1.297194   -0.441299    0.366725
 C   -3.714714    0.293071    0.783459
 C   -4.455904   -0.177326    2.043370
 N   -1.645465    3.275748    0.693501
 N    1.013181   -0.947756    0.032015
 C   -2.546415    2.483698    0.255076
 N    3.276364    0.452137    0.183403
 C   -4.055012    1.006338   -1.636011
 C   -4.720465    0.519235   -0.358981
 C    2.139095   -1.669970   -0.208365
 C    3.401328   -0.846191   -0.105495
 C    4.377078    1.190270    0.275514
 C    5.647435    0.649289    0.082080
 C    5.782826   -0.700842   -0.216448
 F   -4.294657   -2.440626    0.035318
 S   -3.182640    2.594393   -1.410060
 N   -3.115803    1.577963    1.122640
 C   -0.321748   -1.383337    0.022403
 O    2.188974   -2.859534   -0.482852
 C    4.628760   -1.466529   -0.312894
Cl    7.046027    1.672507    0.215641
 H    0.048156   -3.417229   -0.577693
 H   -2.382809   -4.012758   -0.554792
 H   -0.980942    0.564954    0.624503
 H   -4.954592   -1.131203    1.865502
 H   -3.750415   -0.311868    2.870892
 H   -5.199323    0.570190    2.335041
 H   -1.347333    3.937996   -0.019743
 H    1.184943    0.029867    0.243019
 H   -4.801614    1.192808   -2.412034
 H   -3.348184    0.262633   -2.014075
 H   -5.236607   -0.420532   -0.567605
 H   -5.462307    1.249248   -0.018247
 H    4.252846    2.243849    0.508902
 H    6.764240   -1.136974   -0.368234
 H   -2.649663    1.616172    2.022261
 H    4.656895   -2.525138   -0.542498
