57 
6jsn_ligand_xtb.xyz
 C    3.621534    0.250509   -2.617233
 C    2.672058    0.399080   -1.411342
 C    2.532725    2.908326   -1.500871
 C    4.553258    1.423029   -0.105111
 C    3.417951    0.406016   -0.023956
 C    3.998517   -0.992070    0.267425
 C    4.751042   -1.109850    1.577967
 N    1.974580    1.671223   -1.569124
 N    1.962311    3.874577   -2.071534
 O    2.473253   -1.708163    2.794084
 C    2.979997    0.869905    2.472205
 O    4.268196   -0.732780    4.172169
 N   -1.993633   -0.936613   -0.701578
 C    2.402869    0.785425    1.073615
 C    1.602747   -0.690229   -1.432518
 C    0.297576   -0.394126   -1.056152
 C   -0.720193   -1.345711   -1.077717
 C   -3.154791   -1.643749   -0.702769
 C   -4.309533   -0.798450   -0.269899
 C   -5.088807    1.228810    0.402918
 F    3.084150   -2.406674   -2.198978
 C    1.847152   -2.004703   -1.824276
 S    3.569349   -0.786330    2.917510
 S    3.985579    3.120563   -0.465096
 C    0.853864   -2.967380   -1.845030
 C   -0.435976   -2.649046   -1.476627
 O   -3.288841   -2.807406   -1.017053
 C   -5.594364   -1.320206   -0.202305
 N   -6.630370   -0.575914    0.160513
 C   -6.389938    0.693074    0.461570
 N   -4.074065    0.484357    0.039222
 O   -7.401439    1.485169    0.826567
 C   -8.671938    0.892298    0.855871
 F   -9.534266    1.850367    1.247759
 H    3.037228   -0.002377   -3.500120
 H    4.374133   -0.517316   -2.479563
 H    4.118869    1.197992   -2.815098
 H    5.080405    1.520112    0.841731
 H    5.278281    1.141989   -0.868518
 H    3.171696   -1.702458    0.325722
 H    4.655486   -1.301071   -0.547532
 H    5.121112   -2.122251    1.719931
 H    5.570737   -0.409190    1.697448
 H    1.248098    1.654270   -2.274458
 H    2.372516    4.786381   -1.922835
 H    3.818440    1.550756    2.575796
 H    2.211960    1.139043    3.193018
 H   -2.100544    0.030004   -0.408348
 H    1.935928    1.740335    0.822883
 H    1.624524    0.020463    1.098794
 H    0.055853    0.607793   -0.735707
 H   -4.896916    2.261540    0.651384
 H    1.110788   -3.967455   -2.155244
 H   -1.215562   -3.391071   -1.494584
 H   -5.794454   -2.353064   -0.446325
 H   -8.970900    0.542079   -0.142932
 H   -8.711106    0.068840    1.583686
