28 
6jtc_ligand_xtb.xyz
 O   -1.951134    1.806156    0.208753
 C   -0.785169    1.882144   -0.180264
 O   -0.281073    3.063781   -0.433497
 C    0.065159    0.682494   -0.309173
 C    1.434042    0.772050   -0.071001
 C    2.194959   -0.378779    0.017456
 N    3.617289   -0.264450    0.274422
 O    4.073904    0.855129    0.309789
 O    4.231650   -1.289928    0.434536
 C    1.610997   -1.637714   -0.115797
 C    0.265657   -1.740071   -0.378372
 C   -0.527952   -0.591315   -0.511630
 N   -1.836875   -0.676336   -0.887621
 C   -2.778169   -1.671904   -0.448238
 C   -3.950053   -0.981906    0.263466
 N   -3.442558   -0.062955    1.313052
 H    0.630492    3.062020   -0.763649
 H    1.929628    1.717197    0.107279
 H    2.235680   -2.513849   -0.029299
 H   -0.177184   -2.711486   -0.526215
 H   -2.251381    0.154804   -1.282493
 H   -2.274707   -2.365397    0.228066
 H   -3.175249   -2.244913   -1.293073
 H   -4.612929   -1.729473    0.701126
 H   -4.518312   -0.387011   -0.453772
 H   -4.209319    0.450498    1.756368
 H   -2.929611   -0.574558    2.036923
 H   -2.775702    0.677236    0.864443
