27 
6jtc_ligand_dft.xyz
 O   39.357575   22.014839  -37.750580
 C   40.067638   23.172146  -37.844919
 O   39.570754   24.215287  -37.487454
 C   41.434773   23.027825  -38.395450
 C   42.148619   24.226245  -38.458955
 C   43.435893   24.256528  -38.950763
 N   44.157289   25.515939  -39.010224
 O   43.588093   26.524716  -38.617010
 O   45.299134   25.496008  -39.454029
 C   44.057616   23.081187  -39.380900
 C   43.376950   21.890967  -39.323256
 C   42.043014   21.812940  -38.845392
 N   41.374115   20.633956  -38.846248
 C   41.837208   19.353513  -39.337100
 C   42.492055   18.472932  -38.268244
 N   43.767303   19.025809  -37.832413
 H   38.497562   22.268024  -37.378655
 H   41.672395   25.137265  -38.117466
 H   45.076943   23.120814  -39.745259
 H   43.888862   20.982574  -39.605445
 H   40.443693   20.653188  -38.458344
 H   40.963623   18.826823  -39.738121
 H   42.519066   19.500225  -40.181486
 H   41.821038   18.436109  -37.403209
 H   42.558935   17.445265  -38.665378
 H   44.029951   18.657596  -36.924679
 H   44.506905   18.765281  -38.478022
