49 
6jut_ligand_xtb.xyz
 C   10.883968   -0.043187   12.760593
 C   11.410706    1.238261    8.654769
 C   11.962015    1.626353    6.292137
 C   12.213917    1.663312    3.672296
 C   13.447606    2.817251    2.082693
 C   10.301224   -0.046635    6.840191
Br    7.570287    1.716057   10.856292
 C    8.038022    3.221049   11.907921
 C    8.290339    3.040190   13.258181
 C    8.702905    4.132379   13.995265
 S    9.338450    3.817219   15.640295
 N   10.908308    3.313660   15.224856
 C   10.948475    2.181055   14.409804
 C   10.647884    0.929241   14.936092
 C   10.617403   -0.178307   14.110080
 F   10.860335   -1.139367   11.983766
 C   11.173555    1.196691   12.183021
 N   11.401438    1.355019   10.817330
 C   10.860238    0.659302    9.780783
 C   11.223137    0.938125    7.249027
 C   11.739060    1.282886    4.967674
 C   10.786094    0.264326    4.685251
 N   10.758983    0.114763    3.346957
 N   11.623519    0.962030    2.732748
 O   13.131292    2.604881    3.444807
 N   10.072031   -0.393368    5.593152
 N   12.246543    2.227268    9.078845
 N   12.234473    2.295079   10.340269
 C   11.200573    2.294132   13.041841
 F   11.419210    3.529875   12.549927
 O    9.477795    5.033365   16.370210
 O    8.668615    2.699773   16.220496
 C    8.844946    5.383909   13.429036
 C    8.556843    5.551067   12.083340
 C    8.170749    4.465871   11.313003
 H   12.670812    2.384661    6.584401
 H   14.193279    3.609093    2.065357
 H   13.848389    1.904991    1.634726
 H   12.557762    3.117221    1.524191
 H    9.714992   -0.579379    7.575806
 H    8.175000    2.081778   13.739869
 H   11.433244    4.099923   14.864507
 H   10.418794    0.852687   15.984939
 H   10.390582   -1.157790   14.498605
 H   10.153831   -0.129356    9.915966
 H   10.203163   -0.517957    2.797847
 H    9.179176    6.201251   14.047670
 H    8.656950    6.521384   11.623356
 H    7.982085    4.581967   10.256808
