50 
6k04_ligand_xtb.xyz
 C    1.934643   -0.430921    1.582518
 C    2.468056   -0.434360    0.293529
 C    1.644423   -0.813893   -0.765088
 C    0.328939   -1.194035   -0.565568
 C   -0.170322   -1.213807    0.740074
 C    0.631533   -0.823088    1.804702
 C   -0.560323   -1.532312   -1.748028
 C   -0.804903   -3.046640   -1.845806
 C   -1.154268   -3.686137   -0.490529
 C   -1.993307   -2.803432    0.357589
 C   -2.531714   -1.155051    1.654906
 C   -2.477339    0.097219    2.440413
 C    3.845486   -0.044436    0.052514
 C    4.687679    0.693864    0.871135
 C    4.649347   -0.332555   -1.071798
 C    7.043228    1.488334    0.682938
 C   -2.031606    0.435959   -1.284692
 C   -3.303618    0.831792   -0.853947
 C   -3.543848    2.123698   -0.438705
 C   -2.509673    3.046726   -0.443768
 C   -1.248090    2.683451   -0.882040
 C   -1.010575    1.389855   -1.304388
 N   -1.473292   -1.680592    0.955349
 N   -3.242702   -2.940746    0.685076
 N   -3.578389   -1.908471    1.484741
 N    5.866010    0.803685    0.234119
 N    5.853548    0.180359   -0.938868
 N   -1.845682   -0.857915   -1.705453
Cl   -2.798235    4.666904    0.103000
 H    2.551432   -0.139839    2.418300
 H    2.035428   -0.792592   -1.771865
 H    0.233173   -0.848347    2.807267
 H   -0.038842   -1.209609   -2.662549
 H    0.088841   -3.531232   -2.241298
 H   -1.616924   -3.211015   -2.556667
 H   -1.685166   -4.624546   -0.646137
 H   -0.229260   -3.895003    0.055704
 H   -3.483432    0.495127    2.531666
 H   -1.838050    0.827000    1.945826
 H   -2.090894   -0.092071    3.441829
 H    4.522872    1.152261    1.825165
 H    4.404142   -0.901051   -1.946082
 H    7.805884    1.369105   -0.083641
 H    6.839150    2.550729    0.829330
 H    7.402738    1.062912    1.621807
 H   -4.104740    0.107186   -0.834671
 H   -4.526927    2.412723   -0.102420
 H   -0.450275    3.409644   -0.894395
 H   -0.025488    1.125454   -1.651999
 H   -2.642597   -1.459841   -1.556689
