54 
6k05_ligand_dft.xyz
 C   -3.804301    1.288238   -1.348383
 C   -3.347120   -0.092970   -1.850072
 C   -1.890609    0.019972   -2.313861
 C   -1.000292    0.721340   -1.316200
 C   -1.523288    1.442970   -0.315814
 C   -2.993380    1.700340   -0.121718
 C    0.499102    0.500683   -1.473202
 C    1.285800    1.791969   -1.818503
 C    0.874845    3.051867   -1.029495
 C    0.492647    2.737279    0.373199
 C   -0.609604    1.830565    2.016071
 C   -1.607258    1.048576    2.799070
 C   -3.517071   -1.144582   -0.780702
 C   -4.704546   -1.662051   -0.299412
 C   -2.535574   -1.781264    0.014024
 C   -5.291446   -3.339075    1.484443
 C    2.348350   -0.571125   -0.206436
 C    3.046524   -0.334208    0.984143
 C    4.371235   -0.725466    1.121803
 C    5.020205   -1.335607    0.054669
 C    4.353110   -1.559262   -1.143306
 C    3.021403   -1.183236   -1.270038
 N   -0.651599    2.029838    0.653530
 N    1.161702    2.969837    1.468781
 N    0.465432    2.392029    2.508078
 N   -4.393540   -2.525173    0.695941
 N   -3.072378   -2.612868    0.901571
 N    0.991366   -0.227575   -0.295191
Cl    6.696324   -1.817734    0.216104
 H   -4.870501    1.273833   -1.099231
 H   -3.667036    2.023889   -2.151191
 H   -3.960073   -0.369041   -2.716482
 H   -1.844931    0.544498   -3.278840
 H   -1.480708   -0.981879   -2.492573
 H   -3.351927    1.142965    0.752134
 H   -3.138929    2.763676    0.102259
 H    0.629004   -0.173654   -2.325918
 H    2.347785    1.581655   -1.654888
 H    1.166973    1.998193   -2.888463
 H    1.694714    3.772761   -1.007640
 H    0.023599    3.532430   -1.525963
 H   -2.555214    1.586967    2.901954
 H   -1.814496    0.078481    2.333152
 H   -1.196428    0.882713    3.796324
 H   -5.730939   -1.483271   -0.589048
 H   -1.458904   -1.665334   -0.023383
 H   -5.126347   -4.398197    1.271751
 H   -5.115030   -3.155780    2.546432
 H   -6.320858   -3.074633    1.236072
 H    2.550328    0.180791    1.803447
 H    4.901398   -0.538569    2.049274
 H    4.867183   -2.034809   -1.971721
 H    2.502693   -1.384198   -2.202117
 H    0.671862    0.185662    0.570255
