47 
6k1s_ligand_xtb.xyz
 C    2.935707    0.336546    0.132197
 C    3.926464   -0.652891   -0.067045
 C    5.051072   -0.245142   -0.808495
 N    5.119496    1.011926   -1.257195
 N    3.009362    1.587088   -0.335786
 C    7.978148   -0.332696   -0.006003
 C    7.215338   -1.197061   -0.946406
 N    5.989432   -1.140036   -1.204507
 C    4.119002    1.835789   -1.007410
 C    3.467622   -1.824287    0.590108
 C    2.261299   -1.514618    1.138305
 N    1.928022   -0.210230    0.858107
 C    0.744883    0.488309    1.299942
 O   -0.197455   -0.438713    1.761691
 C    0.071546    1.278483    0.151869
 O    0.515770    2.591479    0.039648
 C   -1.407198    1.244530    0.574680
 O   -1.722041    2.326234    1.404251
 C   -1.520056   -0.063104    1.369144
 C   -2.121516   -1.235793    0.557409
 O   -1.303191   -1.526634   -0.549325
 C   -3.522993   -0.910310    0.111494
 C   -4.554954   -0.889041    1.042019
 C   -5.843416   -0.570586    0.657402
 C   -6.102193   -0.275590   -0.672117
Cl   -7.712358    0.118958   -1.158912
 C   -5.087458   -0.300315   -1.613825
 C   -3.800787   -0.616324   -1.215966
 H    7.331265    0.410370    0.453463
 H    8.771993    0.172175   -0.554689
 H    8.445834   -0.944811    0.764176
 H    7.773087   -1.982996   -1.448402
 H    4.225830    2.839950   -1.395638
 H    3.972894   -2.767490    0.635943
 H    1.591946   -2.113948    1.722530
 H    1.019236    1.192773    2.107308
 H    0.202790    0.721318   -0.788152
 H    1.477956    2.549676   -0.162707
 H   -2.070148    1.232706   -0.300664
 H   -1.178933    3.071691    1.106140
 H   -2.116509    0.116450    2.269612
 H   -2.152541   -2.106316    1.234004
 H   -0.416561   -1.700924   -0.209337
 H   -4.352357   -1.128351    2.075099
 H   -6.643941   -0.553783    1.379985
 H   -5.301991   -0.074411   -2.646465
 H   -3.001694   -0.651946   -1.938966
