78 
6k2n_ligand_dft.xyz
 C    3.775890   -0.844741    0.232416
 C    4.712716    0.233295    0.798306
 C    5.958137    0.344077   -0.102082
 C    6.535156   -1.038812   -0.407002
 C    5.468120   -1.973629   -0.948983
 C    5.950839   -3.393214   -1.189806
 C    4.319541    2.650684    1.335674
 C    3.244073    3.703848    1.493091
 N    3.907192    1.451717    0.869598
 O    7.026675    1.053871    0.464841
 O    7.578053   -0.926837   -1.345613
 O    4.435681   -2.066454    0.029941
 O    4.893256   -4.220343   -1.616823
 O    5.493762    2.915666    1.601478
 O    1.114230    0.629136   -0.300033
 C    0.329052    1.784304   -0.451905
 O    0.150075    2.388660    0.789276
 C   -0.990698    1.378089   -1.137928
 N   -1.833589    2.492843   -1.554655
 C   -1.723301    0.371360   -0.247842
 O   -2.913474   -0.030244   -0.917406
 C   -0.822799   -0.843519   -0.007204
 O   -0.631181   -1.551593   -1.213266
 C    0.532774   -0.382036    0.525648
 C    1.539604   -1.519446    0.591958
 O    2.753300   -1.048586    1.145943
 C   -2.606265    3.232174   -0.717099
 O   -2.445822    3.222826    0.503740
 C   -3.717486    4.018225   -1.368622
 C   -4.056441   -0.005978   -0.128707
 C   -5.255364   -0.140429   -1.054898
 C   -6.527059   -0.132429   -0.223925
 C   -6.453206   -1.224124    0.845125
 C   -5.137915   -1.132565    1.629549
 C   -4.928261   -2.300518    2.594940
 O   -5.335164    0.932398   -1.975675
 O   -7.663900   -0.404537   -1.016157
 O   -6.551088   -2.493540    0.229978
 O   -4.012302   -1.080780    0.767520
 O   -4.674621   -3.523139    1.964698
 H    3.370738   -0.490033   -0.731818
 H    5.028629   -0.073308    1.803570
 H    5.640668    0.797731   -1.058351
 H    6.904023   -1.458192    0.543619
 H    5.053521   -1.572327   -1.887892
 H    6.709116   -3.389837   -1.974916
 H    6.413699   -3.773313   -0.265169
 H    3.427953    4.496066    0.760566
 H    2.226318    3.325096    1.368689
 H    3.349232    4.150448    2.485016
 H    2.909352    1.311917    0.751624
 H    6.655639    1.849448    0.904096
 H    8.127306   -0.195296   -1.027607
 H    4.188371   -4.096183   -0.967143
 H    0.913799    2.429999   -1.118973
 H   -0.754958    2.758855    0.856132
 H   -0.703242    0.851610   -2.051312
 H   -2.051179    2.542589   -2.537645
 H   -1.978633    0.826930    0.712173
 H   -1.300224   -1.483972    0.747801
 H   -1.510686   -1.827031   -1.504838
 H    0.388173    0.030309    1.531636
 H    1.152925   -2.307172    1.245996
 H    1.695540   -1.946426   -0.402901
 H   -4.018538    4.829439   -0.705792
 H   -4.568738    3.342426   -1.515587
 H   -3.425866    4.427481   -2.340577
 H   -4.112141    0.950510    0.424881
 H   -5.173178   -1.104739   -1.573233
 H   -6.619721    0.850413    0.264665
 H   -7.282671   -1.081929    1.554686
 H   -5.188629   -0.203880    2.225748
 H   -4.055865   -2.079942    3.217164
 H   -5.808427   -2.341780    3.259731
 H   -4.531505    0.892680   -2.509994
 H   -7.588526    0.132722   -1.816289
 H   -7.260997   -2.422458   -0.425612
 H   -5.358988   -3.640514    1.289505
