78 
6k2n_ligand_xtb.xyz
 C    3.648257   -0.879875    0.169713
 C    4.565477    0.144825    0.857100
 C    5.806412    0.413319   -0.009476
 C    6.431943   -0.915995   -0.473900
 C    5.377601   -1.816348   -1.116260
 C    5.948716   -3.184608   -1.499163
 C    4.113631    2.353413    1.883223
 C    3.038985    3.380299    2.130289
 N    3.760309    1.336771    1.073260
 O    6.822151    1.107289    0.663897
 O    7.461389   -0.671371   -1.393411
 O    4.324782   -2.054471   -0.197260
 O    4.969884   -4.006782   -2.072144
 O    5.233003    2.452507    2.363467
 O    1.098532    0.605958   -0.479037
 C    0.359557    1.781357   -0.668523
 O    0.227644    2.456276    0.536669
 C   -0.982185    1.405087   -1.338322
 N   -1.767780    2.533364   -1.808417
 C   -1.758778    0.524365   -0.351083
 O   -3.012930    0.203119   -0.947303
 C   -0.922049   -0.742348   -0.084857
 O   -0.813191   -1.504855   -1.259016
 C    0.478909   -0.332712    0.397262
 C    1.397394   -1.559643    0.490656
 O    2.641455   -1.222166    1.065763
 C   -2.439463    3.388946   -1.005192
 O   -2.241967    3.453680    0.197087
 C   -3.451200    4.252875   -1.711346
 C   -4.066777    0.073611   -0.053472
 C   -5.340134   -0.130625   -0.885854
 C   -6.526512   -0.295413    0.065894
 C   -6.233827   -1.459957    1.027035
 C   -4.874633   -1.241661    1.718913
 C   -4.456176   -2.446629    2.580443
 O   -5.578985    0.968629   -1.730887
 O   -7.703152   -0.611855   -0.634548
 O   -6.238937   -2.673152    0.317997
 O   -3.837548   -1.019174    0.787404
 O   -4.092631   -3.562132    1.832098
 H    3.229577   -0.408621   -0.740927
 H    4.891184   -0.260592    1.824375
 H    5.490781    0.983759   -0.902971
 H    6.829815   -1.425324    0.419277
 H    4.978808   -1.321694   -2.016417
 H    6.737303   -3.049357   -2.239795
 H    6.370195   -3.650573   -0.598200
 H    2.883459    3.465185    3.203626
 H    3.389506    4.347139    1.774916
 H    2.102703    3.125692    1.644514
 H    2.810554    1.287222    0.731229
 H    6.415288    1.662804    1.365512
 H    7.994807    0.042422   -1.017205
 H    4.221204   -4.016754   -1.462646
 H    0.966001    2.376701   -1.373848
 H   -0.653123    2.891152    0.589315
 H   -0.735665    0.789662   -2.208373
 H   -2.011055    2.521878   -2.785630
 H   -1.930699    1.057156    0.590483
 H   -1.410380   -1.330063    0.705407
 H   -1.710842   -1.737749   -1.529028
 H    0.385881    0.126537    1.391313
 H    0.933321   -2.294205    1.151434
 H    1.520648   -1.992208   -0.504526
 H   -3.634745    5.145364   -1.119790
 H   -4.386985    3.700192   -1.793921
 H   -3.115112    4.532071   -2.705959
 H   -4.171518    0.998907    0.556477
 H   -5.216148   -1.053663   -1.471990
 H   -6.654727    0.638289    0.634498
 H   -7.018120   -1.477889    1.800603
 H   -4.980609   -0.354253    2.367280
 H   -3.578077   -2.172215    3.170205
 H   -5.288784   -2.673748    3.265071
 H   -4.782778    1.097599   -2.259333
 H   -7.806031    0.035884   -1.341889
 H   -7.017024   -2.654465   -0.257262
 H   -4.763214   -3.688871    1.145600
