37 
6k3l_ligand_xtb.xyz
 C   -1.277672   -0.252981   -0.023305
 C   -2.325453    0.698894   -0.017607
 C   -3.648715    0.241017   -0.030149
 C   -3.932795   -1.102959   -0.028946
 C   -2.895280   -2.048682   -0.030909
 C   -1.583893   -1.620814   -0.041457
 C   -0.575346    2.431044   -0.012104
 C   -1.947624    2.088709   -0.013232
 N    0.032213    0.092671   -0.013272
 C    0.393813    1.341566   -0.006763
 C   -1.251622    4.731108   -0.017762
 N   -2.543501    4.414919   -0.014533
 C   -2.873108    3.148423   -0.012732
 C   -0.243836    3.793235   -0.015851
 N    1.716334    1.660103    0.008376
 C    2.839345    0.842572    0.019637
 C    2.774247   -0.547822    0.002296
 C    3.949091   -1.278876    0.017487
 C    5.190976   -0.664905    0.048848
 C    5.246108    0.718537    0.064084
 C    4.087563    1.469168    0.049823
Cl    3.854133   -3.003251   -0.003109
 C   -3.152401   -3.519237   -0.048595
 O   -4.316182   -3.926285    0.494669
 O   -2.379016   -4.313716   -0.504479
 H   -4.464172    0.947103   -0.043736
 H   -4.967781   -1.416531   -0.069868
 H   -0.782578   -2.342249   -0.059084
 H   -1.032269    5.790110   -0.021705
 H   -3.936495    2.955716   -0.011445
 H    0.780723    4.135009   -0.019243
 H    1.933032    2.646263    0.017784
 H    1.815105   -1.034354   -0.023204
 H    6.091885   -1.256230    0.060664
 H    6.204332    1.214652    0.087590
 H    4.147193    2.548653    0.062316
 H   -4.823359   -3.194700    0.870677
