18 
6k4x_ligand_dft.xyz
 O   -2.746871    0.077939   -0.461449
 C   -1.963304   -0.750507   -0.069074
 O   -2.420331   -1.948690    0.366593
 C   -0.491024   -0.545650   -0.035369
 C    0.389083   -1.633041   -0.113385
 C    0.053456    0.753309    0.026847
 S   -1.007231    2.176938    0.076372
 C    1.438024    0.911210    0.053404
 C    2.305037   -0.185596   -0.003713
 N    3.672678   -0.002048    0.069398
 C    1.760123   -1.475140   -0.100546
 H   -1.721152   -2.414469    0.842852
 H   -0.008714   -2.638204   -0.230878
 H   -0.017429    3.023133    0.416171
 H    1.865335    1.908925    0.111897
 H    4.019341    0.913047   -0.177601
 H    4.245319   -0.750806   -0.290901
 H    2.413492   -2.339801   -0.169409
