18 
6k4x_ligand_xtb.xyz
 O   -2.670578    0.224199   -0.035049
 C   -1.929068   -0.730726   -0.004704
 O   -2.450665   -1.971181    0.032691
 C   -0.468859   -0.583911   -0.004248
 C    0.432210   -1.652954   -0.015619
 C    0.046797    0.726817    0.002978
 S   -1.058797    2.079140    0.003569
 C    1.417465    0.931014    0.004670
 C    2.305238   -0.141973   -0.002571
 N    3.652747    0.069160    0.059082
 C    1.789280   -1.446590   -0.016401
 H   -1.771447   -2.655868    0.073501
 H    0.078330   -2.675986   -0.032483
 H   -0.066412    2.998965    0.034688
 H    1.809072    1.938385    0.012418
 H    3.999448    0.992121   -0.136854
 H    4.265148   -0.696880   -0.161182
 H    2.468950   -2.285303   -0.026544
