43 
6kdz_ligand_xtb.xyz
 C   -5.659892   -2.920634    0.554812
 C   -4.401844   -2.403281    0.294938
 C   -6.764705   -2.070505    0.610076
 C   -4.320899   -1.032015    0.100446
 C   -5.516381   -0.268618    0.180385
 C   -3.269357   -0.101502   -0.188736
 C    2.342906    0.210755    0.380427
 C    4.087329   -0.817587   -0.185986
 C    6.656413   -0.119024    0.178241
 C   -1.796354    2.076059   -0.731378
 C    5.705371    0.749736    0.653232
 C   -3.188949    2.329182   -0.539171
 C    6.268197   -1.314309   -0.465069
 C   -1.260076    0.815623   -0.645369
 C    5.985247    2.037714    1.348625
 C    7.299884   -2.263490   -0.978833
 C    0.904001    0.528530    0.546897
 C    0.206651    0.572902   -0.822477
 N   -6.719547   -0.761236    0.429389
 N   -5.212714    1.030536   -0.039478
 N    2.773703   -0.906220   -0.228037
 N    3.305417    1.015848    0.809390
 N   -1.993967   -0.282690   -0.367815
 N    5.010246   -1.646222   -0.638981
 N   -3.867958    1.128757   -0.263298
 N    4.426062    0.383073    0.462769
 O   -3.810568    3.374436   -0.583002
 H   -5.795423   -3.977918    0.715106
 H   -3.520434   -3.022297    0.242338
 H   -7.750820   -2.465380    0.811985
 H    7.701884    0.114965    0.297812
 H   -1.175023    2.928134   -0.954297
 H    6.530927    1.855139    2.273018
 H    6.596011    2.682159    0.718902
 H    5.046824    2.535442    1.577519
 H    7.956084   -1.760797   -1.687054
 H    7.910822   -2.633115   -0.156816
 H    6.809100   -3.099235   -1.467341
 H    0.811651    1.485771    1.061315
 H    0.434962   -0.252679    1.148377
 H    0.648615    1.361860   -1.431734
 H    0.358990   -0.391381   -1.307036
 H   -5.793568    1.853708   -0.072014
