50 
6kla_ligand_xtb.xyz
 C    4.604259   -1.009924    0.935961
 N    6.248405    0.184650   -0.403779
 C    5.387262    1.354533   -0.399078
 C    7.184722    0.186679   -1.515544
 C   -1.944329   -1.641361    0.214267
 C   -4.033853   -2.214871   -0.023077
 C   -5.440005   -0.119841   -0.261150
 C   -7.801304    0.019998   -0.637289
 C   -6.644950    1.948371   -0.388030
 C    0.277260   -0.759375    0.469878
 C    1.635433   -0.968559    0.663122
 C    2.438715    0.180073    0.734017
 C    0.578887    1.488294    0.429888
 C   -0.017821    2.849538    0.297014
 C    5.437027   -1.016358   -0.349438
 C    4.551361    1.372664    0.881437
 C    8.346326   -0.773498   -1.283590
 C   -4.215008   -0.861049   -0.088959
 C   -6.667525   -0.754716   -0.480054
 C   -5.448726    1.277845   -0.217331
 N    1.877169    1.400398    0.609563
 N   -0.252118    0.457541    0.352780
 N   -0.604912   -1.805174    0.385842
 N    3.766742    0.162031    0.975701
 N   -2.764298   -2.642371    0.147032
 N   -7.803740    1.342842   -0.594286
 S   -2.655555   -0.062225    0.075861
 H    5.285362   -0.967668    1.792831
 H    4.013369   -1.920506    1.004893
 H    4.708678    1.366680   -1.271611
 H    6.011381    2.249718   -0.434201
 H    7.585072    1.200313   -1.597095
 H    6.683074   -0.054124   -2.469785
 H   -4.804010   -2.962117   -0.087690
 H   -8.765746   -0.441214   -0.809146
 H   -6.683975    3.029902   -0.359214
 H    2.019213   -1.969655    0.755486
 H    0.755349    3.604121    0.398187
 H   -0.503038    2.940119   -0.672182
 H   -0.777980    2.987285    1.062253
 H    4.758913   -1.088183   -1.221621
 H    6.090414   -1.889188   -0.345442
 H    3.871968    2.223277    0.885636
 H    5.219303    1.418572    1.746851
 H    8.766764   -0.606351   -0.295843
 H    8.032892   -1.811259   -1.358783
 H    9.118224   -0.599164   -2.028582
 H   -6.732364   -1.829737   -0.529669
 H   -4.529517    1.818938   -0.050942
 H   -0.271590   -2.754241    0.469660
