50 
6kla_ligand_dft.xyz
 C    4.432364   -1.315848    0.338642
 N    6.666620   -0.321344    0.066230
 C    6.048045    0.950611   -0.280595
 C    7.998560   -0.478482   -0.507182
 C   -2.122012   -1.401113    0.134484
 C   -4.195123   -2.104989    0.164662
 C   -5.776829   -0.121158   -0.030620
 C   -8.128897   -0.157885   -0.534867
 C   -7.242244    1.759579    0.291964
 C    0.209676   -0.559054    0.105855
 C    1.558153   -0.901022    0.182647
 C    2.470748    0.160243    0.106748
 C    0.725702    1.637296   -0.054234
 C    0.244160    3.054972   -0.173717
 C    5.789623   -1.401381   -0.351355
 C    4.708827    1.105665    0.422119
 C    9.025158    0.483206    0.081135
 C   -4.469471   -0.775748    0.038197
 C   -6.901539   -0.806134   -0.506244
 C   -5.971522    1.203547    0.375168
 N    2.032874    1.435891    0.002783
 N   -0.223684    0.694927   -0.016962
 N   -0.752433   -1.542868    0.165274
 N    3.827144   -0.015492    0.114506
 N   -2.875548   -2.463250    0.218448
 N   -8.319457    1.106647   -0.148946
 S   -2.963182    0.116086   -0.019226
 H    4.552070   -1.505438    1.416425
 H    3.797267   -2.097604   -0.081001
 H    5.904377    1.043066   -1.375614
 H    6.694509    1.771212    0.042024
 H    7.974458   -0.374048   -1.610183
 H    8.319584   -1.505428   -0.296911
 H   -4.944956   -2.883244    0.250281
 H   -9.009812   -0.682457   -0.899308
 H   -7.403580    2.789319    0.604310
 H    1.854169   -1.932703    0.316529
 H    1.089215    3.744219   -0.190173
 H   -0.344024    3.172498   -1.089232
 H   -0.413003    3.297844    0.667158
 H    5.631165   -1.395932   -1.448442
 H    6.251918   -2.358991   -0.087557
 H    4.215460    2.024308    0.110930
 H    4.878211    1.151182    1.508635
 H    8.848556    1.519634   -0.222171
 H    9.004296    0.434815    1.174103
 H   10.028707    0.211516   -0.260768
 H   -6.818327   -1.825618   -0.868515
 H   -5.149461    1.794601    0.767615
 H   -0.458793   -2.505531    0.253309
