64 
6kzc_ligand_xtb.xyz
 C    9.574913   -1.908902   -0.192310
 C   10.381042    0.161482   -0.708632
 C    9.097169    0.715267   -0.598128
 C    8.290799   -1.467896   -0.060894
 C    7.337945    1.904954   -0.531906
 C    6.919156    0.607869   -0.222861
 C    5.653964    0.108070    0.067136
 C    4.544051   -0.310345    0.308772
 C    3.256338   -0.807114    0.587099
 C    3.108482   -2.155628    0.920425
 C    1.860243   -2.672153    1.203243
 C    0.748057   -1.852700    1.140531
 C    0.880451   -0.504665    0.804505
 C    2.137240    0.041672    0.533441
 C    2.298367    1.485341    0.184631
 C   -0.325012    0.367804    0.793727
 C   -2.664663    0.287262   -0.066493
 C   -3.637986   -0.559772   -0.603710
 C   -4.922996   -0.102791   -0.889630
 C   -5.226009    1.233283   -0.631037
 C   -4.265845    2.054837   -0.060623
 N   10.608744   -1.107406   -0.512670
 N    8.053469   -0.150485   -0.266250
 N    8.649004    1.953629   -0.755105
 N   -1.403213   -0.233081    0.156162
 O   -0.383393    1.463418    1.293328
 C   -2.993006    1.609408    0.237339
 C   -4.679865    3.471647    0.236475
 C   -7.288219   -0.802261   -1.071304
 C   -7.727438   -2.040686   -0.249860
 C   -5.693642   -3.264995   -0.716622
 C   -5.601472   -2.261297   -1.897349
 C   -6.832325   -3.602357    1.431385
 N   -5.900837   -0.930317   -1.453170
 N   -6.519951   -2.652348    0.354672
 F   -5.687464    3.488529    1.137621
 F   -5.155575    4.091295   -0.855789
 F   -3.704958    4.227426    0.729538
 H    9.822726   -2.948300   -0.040926
 H   11.219143    0.792110   -0.964358
 H    7.451561   -2.096206    0.195216
 H    6.728040    2.784800   -0.594706
 H    3.982792   -2.787562    0.963102
 H    1.753167   -3.710986    1.476363
 H   -0.223002   -2.253546    1.399278
 H    2.111423    2.099387    1.064609
 H    3.305109    1.683067   -0.173080
 H    1.581687    1.787300   -0.577113
 H   -3.348583   -1.578415   -0.817920
 H   -6.180432    1.656026   -0.897342
 H   -1.227102   -1.151736   -0.227580
 H   -2.261611    2.264681    0.678977
 H   -7.421382    0.100213   -0.477071
 H   -7.918776   -0.716602   -1.962523
 H   -8.209657   -2.793438   -0.875929
 H   -8.423860   -1.748687    0.536536
 H   -4.710509   -3.495444   -0.303649
 H   -6.164551   -4.196867   -1.032886
 H   -6.332160   -2.525072   -2.667125
 H   -4.616991   -2.295354   -2.360773
 H   -7.359711   -3.098323    2.239348
 H   -7.462528   -4.402313    1.045675
 H   -5.916505   -4.036614    1.828788
 H   -5.968107   -1.876667    0.746556
