86 
6kzd_ligand_xtb.xyz
 C    7.044292    1.246270   -2.076059
 C    7.302883    2.738342   -2.384309
 N    7.855247    3.365714   -1.159337
 C    8.197683    4.779202   -1.344654
 C    8.979573    2.542970   -0.656236
 C    8.398453    1.214810   -0.122822
 N    7.049127    1.094900   -0.634855
 C    6.190767    0.113459   -0.064475
 C    4.826195    0.241463   -0.290659
 C    6.665146   -0.910479    0.739591
 C    5.780931   -1.811017    1.325463
 C    6.290413   -2.928546    2.200226
 C    7.134446   -3.909136    1.382716
 C    7.085601   -2.384301    3.388626
 C    4.423075   -1.687228    1.087308
 C    3.934731   -0.666258    0.275545
 N    2.580355   -0.498961    0.011961
 C    1.513057   -1.255054    0.447701
 O    1.622272   -2.243929    1.133984
 C    0.210921   -0.690515   -0.014660
 C   -0.769263   -1.508505   -0.587203
 C   -0.504512   -2.967428   -0.790457
 C   -0.024436    0.666463    0.195271
 C   -1.231658    1.225469   -0.171809
 C   -2.198345    0.426475   -0.753665
 C   -1.987912   -0.931444   -0.963984
 C   -3.111507   -1.741613   -1.544661
 C   -3.797649   -2.621338   -0.470489
 C   -5.245964   -2.780050   -0.762886
 C   -5.979379   -3.818858   -1.307626
 N   -7.274895   -3.498660   -1.439567
 C   -7.384849   -2.260538   -0.988293
 C   -8.471658   -1.378159   -0.888074
 N   -8.354211   -0.173905   -0.416314
 N   -6.145425   -1.780736   -0.558504
 C   -6.024578   -0.527708   -0.055942
 C   -7.141329    0.268668    0.016708
 C   -7.106150    1.635725    0.537899
 C   -8.191692    2.481483    0.296844
 C   -8.206419    3.773483    0.767986
 C   -7.132462    4.272924    1.509362
 N   -7.113928    5.582901    1.927614
 C   -6.048692    3.428052    1.759074
 C   -6.036390    2.135605    1.281503
 H    7.819169    0.621105   -2.543592
 H    6.082566    0.932751   -2.477714
 H    6.379089    3.255338   -2.648460
 H    8.016738    2.861085   -3.199787
 H    7.112993    3.257657   -0.450640
 H    8.513546    5.218739   -0.400298
 H    9.010107    4.870157   -2.064299
 H    7.335959    5.330237   -1.717171
 H    9.500631    3.083071    0.134743
 H    9.677829    2.377822   -1.478308
 H    8.346761    1.226992    0.967559
 H    9.052312    0.385208   -0.430152
 H    4.447319    1.048590   -0.903406
 H    7.722380   -1.024813    0.911989
 H    5.424069   -3.469852    2.590955
 H    6.557830   -4.300007    0.547772
 H    8.026301   -3.425583    0.990306
 H    7.445008   -4.742489    2.007370
 H    8.000814   -1.896303    3.061006
 H    6.489601   -1.666209    3.947258
 H    7.357133   -3.198237    4.055569
 H    3.729348   -2.381671    1.529527
 H    2.347759    0.280655   -0.588160
 H    0.557399   -3.162118   -0.912387
 H   -0.835478   -3.523579    0.085714
 H   -1.032121   -3.350888   -1.659248
 H    0.726350    1.275287    0.680563
 H   -1.422710    2.274403   -0.003377
 H   -3.139379    0.868987   -1.048723
 H   -2.762403   -2.374785   -2.361544
 H   -3.850031   -1.055437   -1.964791
 H   -3.675310   -2.150232    0.509734
 H   -3.332919   -3.605195   -0.428633
 H   -5.621149   -4.785382   -1.604170
 H   -9.451363   -1.694274   -1.215773
 H   -5.042879   -0.214046    0.259438
 H   -9.024984    2.094572   -0.267242
 H   -9.054071    4.413918    0.571048
 H   -7.999508    6.060928    1.956353
 H   -6.481227    5.814802    2.675527
 H   -5.216323    3.796871    2.342449
 H   -5.189177    1.508459    1.516985
