42 
6m87_ligand_dft.xyz
 O    3.776332    3.130661   -1.129071
 S    4.033025    2.165123   -0.087824
 O    3.774070    2.943918    1.315703
 O    5.308703    1.487431    0.034567
 C    2.743031    0.936200   -0.074896
 C    3.163471   -0.382930   -0.080128
 C    2.225651   -1.403573   -0.085851
 S    2.880205   -3.061078   -0.117035
 O    2.251273   -3.811794   -1.176245
 O    2.307204   -3.677810    1.272955
 O    4.321550   -2.982060    0.019084
 C    0.843861   -1.141170   -0.080300
 C   -0.153150   -2.175550   -0.079733
 C   -1.471718   -1.881862   -0.042112
 C    1.376899    1.280008   -0.070025
 C    0.422110    0.220680   -0.059760
 C   -0.978997    0.526909   -0.030639
 C   -1.938908   -0.524165   -0.014889
 C    0.910735    2.638679   -0.063506
 C   -0.412173    2.919831   -0.039041
 C   -1.393569    1.879670   -0.019715
 C   -2.769413    2.184803    0.002953
 O   -3.085985    3.493583    0.004415
 C   -4.451327    3.865526   -0.015158
 C   -3.713325    1.163011    0.023813
 C   -3.293281   -0.161157    0.023836
 S   -4.537609   -1.446111   -0.018191
 O   -4.659404   -1.933268   -1.369910
 O   -4.335757   -2.351166    1.099096
 O   -5.891950   -0.612322    0.313538
 H    4.407062    2.596160    1.964633
 H    4.222307   -0.617574   -0.083790
 H    3.027568   -3.653800    1.923479
 H    0.153588   -3.212260   -0.118955
 H   -2.184489   -2.697276   -0.029474
 H    1.626502    3.449379   -0.095057
 H   -0.751359    3.948595   -0.038555
 H   -4.954430    3.480660   -0.909682
 H   -4.971756    3.513232    0.883283
 H   -4.460145    4.954862   -0.034041
 H   -4.772118    1.380016    0.039286
 H   -6.140338   -0.835795    1.225532
