33 
6m8b_ligand_dft.xyz
 C    4.304547   -0.609738    0.031164
 C    3.564225    0.562050   -0.010773
 C    2.140554    0.510794    0.005320
 C    1.527605   -0.745968    0.059047
 C    2.253518   -1.929261    0.100967
 C    3.645361   -1.840132    0.087008
 C    1.344465    1.720669   -0.057934
 C   -0.103942    1.502608   -0.057492
 C   -0.613436    0.250064    0.047766
 C   -2.048532   -0.080524    0.078489
 C   -2.943120    0.654250    0.869011
 C   -4.298267    0.359870    0.875530
 C   -4.783008   -0.690259    0.094134
 C   -3.899392   -1.443905   -0.683146
 C   -2.546345   -1.139573   -0.686511
 O    0.177862   -0.859699    0.081663
 O    1.835913    2.854902   -0.119995
 O   -6.114301   -0.935008    0.137376
 O   -0.854383    2.625707   -0.170632
 O    4.427380   -2.942627    0.127447
 O    4.198609    1.731869   -0.067044
 H    5.386716   -0.570905    0.020829
 H    1.732990   -2.880019    0.149100
 H   -3.502428    1.861443   -2.388816
 H   -3.846510    1.512741   -1.829971
 H   -2.570445    1.453762    1.503203
 H   -4.992443    0.922811    1.489802
 H   -4.271391   -2.266741   -1.289274
 H   -1.865453   -1.726739   -1.294040
 H   -6.325732   -1.680813   -0.437180
 H   -1.756050    2.379529   -0.421042
 H    3.871144   -3.729930    0.168365
 H    3.505559    2.438020   -0.096978
