33 
6m8b_ligand_xtb.xyz
 C    4.192720   -0.745641    0.106071
 C    3.517306    0.459722    0.001564
 C    2.097846    0.468614   -0.017090
 C    1.395463   -0.753346    0.008222
 C    2.089317   -1.946208    0.114614
 C    3.482261   -1.939232    0.176045
 C    1.370277    1.701319   -0.001223
 C   -0.129034    1.584334    0.257958
 C   -0.661505    0.352811   -0.486004
 C   -2.125110    0.045648   -0.254939
 C   -2.990318    0.913026    0.397292
 C   -4.315223    0.571746    0.586627
 C   -4.796990   -0.651722    0.134101
 C   -3.934072   -1.522951   -0.520931
 C   -2.612985   -1.171234   -0.715691
 O    0.056355   -0.818897   -0.086689
 O    1.859723    2.820741   -0.152916
 O   -6.105146   -0.952146    0.347616
 O   -0.763336    2.765448   -0.132584
 O    4.184428   -3.083681    0.283124
 O    4.211112    1.594703   -0.056991
 H    5.268573   -0.757782    0.133702
 H    1.535443   -2.872360    0.138588
 H   -0.492064    0.510349   -1.566421
 H   -0.260841    1.419574    1.344768
 H   -2.641151    1.872359    0.739529
 H   -4.994657    1.242919    1.086796
 H   -4.300475   -2.475591   -0.880899
 H   -1.947387   -1.852256   -1.223201
 H   -6.306194   -1.822695   -0.016794
 H   -0.055058    3.418655   -0.282209
 H    3.587741   -3.842296    0.321591
 H    3.581277    2.348477   -0.127616
