61 
6m8y_ligand_dft.xyz
 C   -4.570244   -0.407713    0.109276
 O   -4.433438   -0.979268   -0.962738
 C   -5.810251   -0.587648    0.961441
 N   -3.627121    0.437881    0.620468
 C   -2.316728    0.558226    0.005812
 C   -1.407027   -0.476520    0.671403
 O   -1.188201   -0.382220    1.884766
 C   -1.717081    1.964179    0.182977
 C   -2.669155    3.034225   -0.367360
 C   -0.341800    2.018103   -0.486369
 C   -2.207109    4.466892   -0.103548
 N   -0.875981   -1.460727   -0.075355
 C   -0.150666   -2.569575    0.555710
 C    1.346497   -2.249405    0.762265
 O    2.227773   -3.029123    0.423172
 C   -0.362311   -3.720729   -0.424023
 C   -0.399239   -3.019419   -1.786411
 C   -1.118236   -1.693545   -1.508828
 N    1.577615   -1.046714    1.336161
 C    2.907332   -0.531586    1.582933
 C    2.846034    0.849760    2.219411
 O    3.823437    1.513407    2.467307
 C    3.809069   -0.474339    0.324607
 C    3.186534    0.248500   -0.844237
 C    2.489187   -0.467158   -1.820607
 C    3.297286    1.634517   -0.983018
 C    1.916890    0.181504   -2.910058
 C    2.726544    2.286926   -2.072681
 C    2.035778    1.562947   -3.040542
 O    1.599185    1.264362    2.491880
 H   -6.684309   -0.594946    0.307344
 H   -5.758201   -1.561138    1.459350
 H   -5.929498    0.190320    1.720520
 H   -3.680652    0.685843    1.598759
 H   -2.459682    0.355136   -1.056388
 H   -1.584573    2.124195    1.262506
 H   -3.660654    2.889833    0.076084
 H   -2.792084    2.878575   -1.448344
 H    0.154848    2.974525   -0.302931
 H   -0.434844    1.897848   -1.571966
 H    0.333503    1.236473   -0.123572
 H   -2.962190    5.185746   -0.437004
 H   -2.037593    4.633267    0.967002
 H   -1.275880    4.700692   -0.629161
 H   -0.591075   -2.753371    1.541033
 H   -1.322303   -4.203625   -0.215325
 H    0.436345   -4.458927   -0.347264
 H   -0.913130   -3.604029   -2.552834
 H    0.622524   -2.835780   -2.132018
 H   -0.706794   -0.870923   -2.101797
 H   -2.195424   -1.764221   -1.689544
 H    0.777720   -0.542123    1.712818
 H    3.427874   -1.169839    2.311054
 H    4.739577    0.012960    0.629129
 H    4.036090   -1.504742    0.048364
 H    2.417392   -1.546979   -1.724407
 H    3.847833    2.203172   -0.237715
 H    1.390220   -0.395327   -3.665946
 H    2.831817    3.363489   -2.171685
 H    1.597417    2.071278   -3.894369
 H    1.676268    2.143427    2.895369
