40 
6m9l_ligand_dft.xyz
 C    3.935101    0.728041   -0.594786
 C    3.603056   -0.585761   -0.249220
 C    1.140953   -0.534969   -0.584869
 C    0.125398   -1.074898   -1.377637
 C   -1.341085    0.491287   -0.727687
 C   -4.543383   -0.162149   -0.377907
 C   -5.989575   -0.635957    1.499479
 C   -5.090922   -2.447231    0.187370
 C    0.876787    0.610059    0.190848
 C   -3.794540    0.836948   -1.231148
 C   -5.325771    0.280525    0.690476
 C   -5.875494   -2.001234    1.247270
 C   -4.425699   -1.530359   -0.621740
 C   -2.370084    2.266743    0.246987
 C    6.115986    0.471280    0.362397
 C   -0.393808    1.130365    0.094583
 C    4.588848   -1.339898    0.396861
 C    5.841071   -0.845170    0.704066
 C    5.180578    1.264265   -0.280862
 F    7.321424    0.978789    0.662046
 F    4.289138   -2.615258    0.715294
 N   -2.519110    1.213104   -0.644742
 N   -1.040963    2.209745    0.665379
 N    2.387413   -1.186139   -0.562125
 N   -1.122709   -0.585540   -1.446985
 O   -3.212823    3.071798    0.587145
 H    3.209270    1.333826   -1.126639
 H    0.333714   -1.953972   -1.982361
 H   -6.598493   -0.284077    2.327082
 H   -4.995960   -3.510999   -0.010253
 H    1.635734    1.042333    0.833882
 H   -4.367452    1.760182   -1.345622
 H   -3.586786    0.427258   -2.222810
 H   -5.399074    1.346488    0.889663
 H   -6.396597   -2.716303    1.877238
 H   -3.797561   -1.873440   -1.439448
 H    6.574856   -1.465946    1.203403
 H    5.432541    2.284218   -0.547274
 H   -0.672411    2.858580    1.340989
 H    2.358828   -2.183820   -0.418621
