62 
6m9t_ligand_xtb.xyz
 C    5.200590    1.059627    0.630865
 C    5.718475   -0.262890    0.075332
 C    4.663441   -0.994676   -0.757323
 C    3.622224   -1.703763    0.113004
 C    2.244097   -1.812331   -0.568275
 C    2.317298   -2.637951   -1.852246
 C    1.253389   -2.458127    0.443293
 C   -0.160064   -2.360212   -0.025736
 C   -1.042926   -1.507268    0.470522
 C   -2.449166   -1.345808   -0.002719
 C   -3.492813   -1.739240    1.068013
 C   -4.761411   -1.013370    0.626892
 C   -4.294651    0.221329   -0.110662
 C   -2.798560    0.110442   -0.341347
 C   -2.353840    0.529429   -1.745605
 C   -2.341449    2.043311   -1.965039
 C   -1.363917    2.809225   -1.070259
 C    0.070074    2.298592   -1.194833
 C    1.098742    3.146744   -0.446555
 C    0.848001    3.222738    1.062917
 C    0.877418    1.874938    1.724493
 O   -4.995946    1.136330   -0.451166
 O    1.681094    0.998750    1.521099
 O   -0.103930    1.733114    2.620445
 O   -3.723327   -3.124310    1.134054
 O    1.789329   -0.525128   -0.925737
 H    4.292569    0.915443    1.210922
 H    4.975078    1.745085   -0.183732
 H    5.946988    1.523691    1.272209
 H    6.591257   -0.061967   -0.550417
 H    6.043819   -0.907284    0.895495
 H    4.153823   -0.268439   -1.394197
 H    5.154970   -1.723189   -1.404647
 H    3.483905   -1.132235    1.033438
 H    3.972693   -2.699624    0.389277
 H    2.647094   -3.650201   -1.635429
 H    1.341746   -2.668614   -2.328116
 H    3.013079   -2.175623   -2.545473
 H    1.354486   -1.933221    1.396035
 H    1.534967   -3.502601    0.588194
 H   -0.440362   -3.006386   -0.846505
 H   -0.760524   -0.859549    1.292107
 H   -2.621648   -1.975577   -0.881708
 H   -3.166608   -1.365283    2.053411
 H   -5.437538   -0.767364    1.443848
 H   -5.306457   -1.652709   -0.071599
 H   -2.322170    0.766291    0.396100
 H   -3.033442    0.080630   -2.474233
 H   -1.358394    0.119964   -1.926188
 H   -3.348447    2.428675   -1.798650
 H   -2.079815    2.228385   -3.009426
 H   -1.396719    3.864099   -1.354646
 H   -1.697385    2.745604   -0.033169
 H    0.348230    2.284585   -2.250545
 H    0.131107    1.272922   -0.834352
 H    1.097398    4.164093   -0.842772
 H    2.087714    2.717097   -0.615051
 H    1.642760    3.815559    1.524966
 H   -0.104495    3.700476    1.287923
 H   -0.045278    0.875053    3.071495
 H   -2.880521   -3.571094    1.269501
 H    1.878649    0.038819   -0.142006
