60 
6ma2_ligand_xtb.xyz
 N    0.828504   -1.725396   -1.678773
 C    1.253115   -0.898140   -0.564381
 C    5.367721    1.084392    0.468700
 C    2.252332    1.323928    0.934108
 C    1.091716    2.171715    0.506820
 C    0.793624    2.671460   -0.720761
 C   -0.945129    3.562262    0.509080
 C    0.288471   -1.605901    1.657654
 O   -6.610835    0.305997    1.695540
 C   -5.633460    0.402749    0.982009
 N   -5.008989   -0.739365    0.503746
 C   -3.895714   -0.774184   -0.283737
 C   -3.304394    0.446280   -0.673477
 C   -3.917328    1.661067   -0.230159
 C   -5.011644    1.646064    0.554000
 C   -2.147311    0.415419   -1.458265
 C   -1.612217   -0.788739   -1.836004
 S   -0.088805   -0.846193   -2.767845
 O   -0.258772   -1.646937   -3.940317
 C    2.612154   -0.283345   -0.905843
 N    2.999414    0.786807   -0.180374
 C    4.254939    1.417140   -0.509338
 O    6.388396    1.705861    0.570796
 O    5.089711    0.007023    1.207495
 C   -0.376629    3.468294   -0.717435
 S   -0.070777    2.670688    1.693355
 O    3.294167   -0.752155   -1.797092
 C    1.309410   -1.721243    0.700502
 O   -0.689507   -0.686521    1.399767
 C   -1.682542   -0.471728    2.374677
 C    0.337190   -2.397824    2.798794
 C    1.381906   -3.288053    2.987247
 C    2.389430   -3.399592    2.048336
 C    2.345085   -2.616736    0.907040
 O    0.402872    0.497512   -2.913392
 C   -2.195564   -1.993932   -1.463497
 C   -3.334331   -1.990599   -0.691981
 H    1.633747   -2.136260   -2.143386
 H    0.507196   -0.108449   -0.453695
 H    1.901806    0.508124    1.574915
 H    2.941729    1.928226    1.534885
 H    1.356327    2.456218   -1.610418
 H   -1.818162    4.107364    0.808483
 H   -5.439652   -1.616489    0.774038
 H   -3.468847    2.591931   -0.544908
 H   -5.484676    2.551934    0.898842
 H   -1.661326    1.328875   -1.763740
 H    4.147012    2.503185   -0.575024
 H    4.563929    1.035426   -1.490429
 H    5.838925   -0.210014    1.784880
 H   -0.762130    3.952179   -1.596978
 H   -1.245909   -0.172058    3.332127
 H   -2.305068   -1.360376    2.516182
 H   -2.296899    0.342403    1.994439
 H   -0.436425   -2.332384    3.547012
 H    1.400845   -3.895159    3.879800
 H    3.202757   -4.091637    2.199659
 H    3.123963   -2.691966    0.164189
 H   -1.732092   -2.910730   -1.788489
 H   -3.799479   -2.917331   -0.389616
