69 
6ma3_ligand_dft.xyz
 N   -1.642833   -0.932984   -2.304710
 C   -1.515962    0.155148   -1.333807
 C   -3.555276    0.468994    0.125799
 C   -3.728527   -1.503253    1.426786
 C   -1.503226   -0.690799    3.451584
 C   -5.369206    1.911422   -0.548353
 C   -3.461879    1.634448   -1.981312
 O    6.051667   -0.885707    1.248963
 C    4.895817   -1.223921    1.040206
 N    4.479519   -1.547937   -0.248209
 C    3.189166   -1.831267   -0.632623
 C    2.189136   -1.865678    0.356491
 C    2.571478   -1.613517    1.724680
 C    3.843956   -1.310652    2.051002
 C    0.863116   -2.102553   -0.026488
 C    0.556811   -2.296424   -1.359937
 S   -1.139728   -2.459304   -1.870163
 O   -1.170221   -3.234094   -3.097060
 C   -2.870526    0.771872   -1.058403
 O   -2.955156   -0.363963    1.032729
 C   -2.872851   -2.426748    2.274215
 C   -2.445777   -1.848622    3.633271
 O   -1.992205    0.464230    3.845142
 O   -0.384803   -0.827816    2.961839
 C   -4.798179    1.050026    0.380771
 C   -4.705427    2.202800   -1.737404
 C   -0.454629    1.142692   -1.886625
 N   -0.176523    2.298008   -1.212691
 C   -0.777482    2.719036    0.032632
 C   -0.385907    1.974247    1.292976
 O   -0.784314    2.360106    2.380069
 O    0.320297    0.884477    1.094050
 C    0.970492    3.097697   -1.664570
 C    2.161131    2.940543   -0.765482
 C    2.513034    3.721189    0.300564
 C    3.653698    3.232106    1.002733
 C    4.149929    2.085982    0.456224
 S    3.234113    1.591528   -0.916334
 O    0.127953    0.855789   -2.926293
 O   -1.907113   -2.847072   -0.696919
 C    1.557516   -2.275459   -2.342000
 C    2.868662   -2.054979   -1.980434
 H   -1.196876   -0.672472   -3.185503
 H   -1.124877   -0.235580   -0.390749
 H   -4.056676   -2.031601    0.526616
 H   -4.609856   -1.176492    1.995013
 H   -6.334934    2.360904   -0.338705
 H   -2.934689    1.858805   -2.905594
 H    5.205590   -1.489403   -0.951006
 H    1.796073   -1.655806    2.484732
 H    4.145876   -1.098512    3.069671
 H    0.085188   -2.117260    0.730776
 H   -3.457838   -3.334889    2.455907
 H   -1.996656   -2.725746    1.694393
 H   -3.313931   -1.526881    4.214493
 H   -1.915640   -2.623734    4.195544
 H   -1.408361    1.196972    3.524434
 H   -5.306669    0.838377    1.315395
 H   -5.151471    2.871448   -2.466425
 H   -1.867611    2.660779   -0.019650
 H   -0.540393    3.772890    0.194649
 H    0.297811    0.335799    1.922535
 H    1.189733    2.796985   -2.688080
 H    0.667464    4.150397   -1.677114
 H    1.976351    4.624258    0.574461
 H    4.085500    3.714971    1.871079
 H    5.007866    1.508225    0.776586
 H    1.294595   -2.439630   -3.381189
 H    3.649765   -2.031558   -2.734183
