60 
6ma5_ligand_dft.xyz
 N   -0.907826   -1.670628   -1.784682
 C   -1.246422   -0.916690   -0.574911
 C   -5.237392    0.999918    0.778807
 C   -1.982073    1.395305    0.976044
 C   -0.976823    2.369734    0.416214
 C   -0.799047    2.755825   -0.878991
 C    0.873658    4.007490    0.140803
 C   -0.223806   -1.737882    1.592080
 O    6.327670    0.290195    1.963527
 C    5.386914    0.374714    1.193443
 N    4.839580   -0.771428    0.615421
 C    3.772738   -0.812913   -0.251792
 C    3.161188    0.400796   -0.618976
 C    3.686943    1.624650   -0.065179
 C    4.728135    1.619138    0.791586
 C    2.046536    0.371712   -1.465381
 C    1.568994   -0.837400   -1.926198
 S    0.074629   -0.878008   -2.886131
 O    0.202896   -1.781717   -4.015166
 C   -2.617036   -0.257252   -0.764426
 N   -2.879473    0.864185   -0.036998
 C   -4.173844    1.484173   -0.194480
 O   -6.367617    1.417211    0.786619
 O   -4.783036    0.069548    1.634920
 C    0.263780    3.699036   -1.036951
 S    0.166935    3.149735    1.464103
 O   -3.428916   -0.743646   -1.539862
 C   -1.243897   -1.839297    0.630739
 O    0.668563   -0.726734    1.411638
 C    1.661617   -0.518920    2.393417
 C   -0.184290   -2.627644    2.665217
 C   -1.165751   -3.609329    2.784772
 C   -2.188213   -3.707506    1.850238
 C   -2.219314   -2.818954    0.779221
 O   -0.338535    0.505778   -3.099806
 C    2.182810   -2.046179   -1.570976
 C    3.282768   -2.035241   -0.741230
 H   -1.754810   -1.990346   -2.260268
 H   -0.486021   -0.149718   -0.423897
 H   -2.600983    1.879971    1.738557
 H   -1.474860    0.575988    1.491208
 H   -1.380949    2.361176   -1.702548
 H    1.682953    4.703632    0.315994
 H    5.300081   -1.633037    0.880165
 H    3.202682    2.555588   -0.347523
 H    5.132382    2.527778    1.221801
 H    1.541040    1.294724   -1.732824
 H   -4.546815    1.286719   -1.201462
 H   -4.080543    2.568359   -0.079201
 H   -5.537065   -0.177331    2.194290
 H    0.547512    4.128412   -1.990630
 H    2.201835    0.378083    2.089527
 H    2.358667   -1.364601    2.439670
 H    1.215839   -0.355648    3.382262
 H    0.601151   -2.565807    3.409340
 H   -1.124497   -4.298576    3.622899
 H   -2.954935   -4.468690    1.949292
 H   -3.014038   -2.880272    0.040723
 H    1.778608   -2.982437   -1.940388
 H    3.764545   -2.965283   -0.454206
