92 
6mbo_ligand_dft.xyz
 C    3.763335    1.451154    0.364280
 C    5.524425    0.901198   -0.982184
 C   -1.615627    0.773467    0.235001
 C   -1.361009   -0.527801    2.335645
 C    0.611483   -3.498453    0.876548
 C    2.072817   -3.872890    0.615947
 C    4.397665   -4.815748   -0.818790
 C    2.579193   -1.534253    0.071191
 C    0.769270    4.960178    1.614020
 C    0.231096    2.686904    1.149956
 C   -0.207312    2.692124   -0.201406
 C    1.668632    3.598651   -1.351104
 C    2.123753    2.321768   -2.056428
 C    3.646726    2.121071   -2.018534
 C    4.682436    0.986305    1.214854
 C    5.796149    0.340820    0.422374
 C   -1.174128    1.768619   -0.619628
 C   -1.093283    0.695484    1.534497
 C    0.468326   -2.039855    1.322654
 C    4.191596   -3.311052   -0.710733
 C    4.581725   -2.596355   -1.999069
 C    1.124654   -1.127785    0.284885
 C   -3.883633   -1.042643    1.728213
 C   -3.863931   -0.196410    0.457050
 C   -4.943496   -0.670875   -0.544894
 C   -6.318081   -0.888822    0.115792
 C   -7.383923   -1.289968   -0.912927
 C   -7.488652   -0.275368   -2.049887
 C   -6.129929   -0.071961   -2.718928
 C   -5.069308    0.348053   -1.696171
 C   -0.200897    1.668118    1.993289
 N    4.065770    1.163919   -0.990653
 N   -1.021862   -1.759390    1.526600
 N    2.715558   -2.960790   -0.385570
 N   -2.830492   -0.628807    2.756944
 N   -2.514223   -0.265970   -0.167949
 O    1.133173    3.560989    1.632548
 O    0.238954    3.566025   -1.110572
 H    2.845177    1.969036    0.615850
 H    6.065452    1.849987   -1.112733
 H    5.810035    0.233720   -1.798915
 H   -0.783413   -0.551390    3.262521
 H    0.238552   -4.196210    1.635258
 H    0.023995   -3.665131   -0.036679
 H    2.120940   -4.893183    0.237721
 H    2.675117   -3.813966    1.527167
 H    5.428457   -4.987489   -1.139196
 H    3.749200   -5.265612   -1.579114
 H    4.274803   -5.341862    0.130396
 H    3.041181   -0.857801   -0.656758
 H    3.155488   -1.444957    0.996517
 H   -0.090736    5.122104    2.268895
 H    0.541682    5.297456    0.600389
 H    1.637326    5.488546    2.003102
 H    2.198786    3.762516   -0.409810
 H    1.811784    4.474321   -1.983974
 H    1.651702    1.449178   -1.584105
 H    1.767758    2.347294   -3.090215
 H    3.988921    1.721086   -2.976580
 H    4.158959    3.088382   -1.884443
 H    4.643944    1.057794    2.293953
 H    5.717985   -0.759195    0.441526
 H    6.796920    0.590389    0.781561
 H   -1.531047    1.838746   -1.643132
 H    0.935287   -1.896033    2.303658
 H    4.749745   -2.910743    0.141244
 H    5.649918   -2.753917   -2.168157
 H    4.054237   -3.021078   -2.861071
 H    4.416696   -1.516910   -1.968813
 H    0.571729   -1.172724   -0.662583
 H    1.144471   -0.083111    0.600354
 H   -4.834122   -0.939551    2.254004
 H   -3.728118   -2.104034    1.514155
 H   -4.083133    0.846656    0.725893
 H   -4.607099   -1.635720   -0.958320
 H   -6.270145   -1.675726    0.879178
 H   -6.627715    0.039807    0.617886
 H   -8.345135   -1.399555   -0.403076
 H   -7.131433   -2.276803   -1.322892
 H   -7.854830    0.682799   -1.658596
 H   -8.222666   -0.614401   -2.785792
 H   -6.194870    0.690511   -3.500287
 H   -5.815535   -1.002719   -3.209569
 H   -5.343310    1.322810   -1.268739
 H   -4.112527    0.494923   -2.217852
 H    0.200208    1.650871    3.003439
 H   -1.529162   -1.568024    0.603669
 H   -1.431193   -2.602038    1.944274
 H    2.212584   -3.063839   -1.274078
 H   -3.068117    0.316168    3.087742
 H   -2.930980   -1.237604    3.579338
 H   -2.624448   -0.264663   -1.178719
