44 
6md4_ligand_dft.xyz
 S   -4.225101    0.927432   -1.432264
 O   -2.338518    2.816852   -1.438178
 O   -3.867615    0.900567    2.426551
 O    1.379464   -2.169840   -0.237726
 N   -2.968527    1.951596    0.599032
 N    3.947765   -0.923855   -0.677609
 N    4.356298    0.443403    1.145273
 C   -3.005250    2.061827   -0.785826
 C   -3.791746    1.045122    1.229213
 C   -4.570544    0.212035    0.213298
 C   -4.192021   -1.281073    0.352204
 C   -2.713552   -1.556807    0.221597
 C   -2.127983   -1.810997   -1.024268
 C   -0.763635   -2.011246   -1.147937
 C    0.058119   -1.965319   -0.017268
 C   -0.508580   -1.730848    1.235681
 C   -1.883035   -1.528893    1.340831
 C    2.287556   -1.981372    0.835232
 C    3.692537   -2.007454    0.253525
 C    3.564842   -1.090190   -2.064889
 C    4.187893    0.338493   -0.182468
 C    4.617432    1.646499    1.657806
 C    4.717017    2.810177    0.911039
 C    4.526564    2.699736   -0.466439
 C    4.258525    1.466567   -1.030470
 H   -2.337970    2.538793    1.129324
 H   -5.635194    0.335175    0.429137
 H   -4.760872   -1.848463   -0.391761
 H   -4.548284   -1.595248    1.339339
 H   -2.751032   -1.844766   -1.913819
 H   -0.307939   -2.201307   -2.114056
 H    0.100984   -1.708766    2.131601
 H   -2.313038   -1.339666    2.320627
 H    2.112762   -1.015135    1.322436
 H    2.168943   -2.780302    1.581268
 H    3.852997   -2.954210   -0.271016
 H    4.407507   -1.944762    1.075871
 H    4.362522   -0.749399   -2.735970
 H    3.391060   -2.149169   -2.256812
 H    2.640410   -0.550368   -2.310391
 H    4.748928    1.673282    2.738220
 H    4.924466    3.762160    1.386039
 H    4.582419    3.578463   -1.102878
 H    4.102721    1.378588   -2.098143
