47 
6mdb_ligand_xtb.xyz
 C   21.488819   41.631130    4.397164
 C   21.575781   40.465412    5.240839
 C   22.661459   39.642218    5.144592
 O   20.607899   42.464129    4.351166
 C   28.123521   43.243220    3.535742
 C   18.869657   40.446988    5.563729
 C   18.794692   40.129864    4.207596
 C   17.607121   40.319741    3.531314
 C   16.512310   40.808230    4.233129
 C   17.695108   40.904005    6.171248
 C   17.652523   41.225613    7.646097
 C   27.923045   42.159527    1.311562
 C   23.631831   40.870144    3.488351
 C   25.820822   40.234394    2.703936
 C   26.929556   41.054594    3.361437
 C   27.199866   42.384542    2.641782
 C   25.864887   43.114755    2.420844
 C   24.819154   42.206420    1.770578
 F   16.440433   41.608234    8.050859
 F   17.986289   40.161446    8.404621
 F   18.498769   42.209428    7.991182
 N   22.586678   41.745843    3.533261
 N   23.670398   39.824625    4.285914
 N   24.613079   41.029133    2.583306
 N   27.559339   43.451865    4.860150
 N   16.559334   41.076103    5.522850
 S   20.345626   40.236747    6.492972
 H   22.757793   38.777384    5.785788
 H   29.063980   42.701183    3.660844
 H   28.347740   44.184951    3.008632
 H   19.663570   39.737065    3.699886
 H   17.530507   40.087157    2.480664
 H   15.559742   40.985174    3.755590
 H   28.879590   41.671960    1.483698
 H   27.345560   41.534760    0.637141
 H   28.111396   43.109772    0.816149
 H   25.587807   39.359640    3.308531
 H   26.114618   39.911910    1.701422
 H   26.641808   41.282899    4.388545
 H   27.843323   40.461050    3.390199
 H   26.020285   43.997641    1.798128
 H   25.475640   43.436368    3.388020
 H   25.166528   41.869253    0.789424
 H   23.888631   42.752579    1.610686
 H   28.283840   43.720112    5.514495
 H   26.871270   44.196194    4.851397
 H   22.563374   42.572597    2.949544
