47 
6mdb_ligand_dft.xyz
 C   21.585415   41.974652    4.294555
 C   21.597106   40.809259    5.157273
 C   22.578960   39.870205    4.973422
 O   20.793803   42.896712    4.271513
 C   28.080924   43.052625    3.741922
 C   18.900383   40.521257    5.642769
 C   18.822580   40.035523    4.337580
 C   17.587164   39.920042    3.720010
 C   16.450370   40.286563    4.430754
 C   17.687292   40.856205    6.266046
 C   17.648165   41.409752    7.681912
 C   28.030576   42.202553    1.406885
 C   23.603627   40.987441    3.276404
 C   25.744937   40.226184    2.428182
 C   26.835677   40.926160    3.241165
 C   27.208668   42.321096    2.698127
 C   25.920021   43.134220    2.450640
 C   24.882348   42.347120    1.647381
 F   16.410713   41.458151    8.167096
 F   18.379265   40.642299    8.518089
 F   18.159351   42.649076    7.733536
 N   22.653172   41.962486    3.368247
 N   23.582943   39.934340    4.070856
 N   24.565908   41.091165    2.319738
 N   27.382148   43.281751    5.003822
 N   16.500267   40.740944    5.679754
 S   20.458659   40.689567    6.494168
 H   22.588829   38.986254    5.607724
 H   28.956689   42.423249    3.942203
 H   28.462222   43.982713    3.287589
 H   19.728972   39.750840    3.813453
 H   17.507446   39.547292    2.704168
 H   15.461423   40.214992    3.985513
 H   28.966953   41.664529    1.595381
 H   27.500783   41.660469    0.616811
 H   28.286700   43.192588    1.011287
 H   25.444376   39.292431    2.898993
 H   26.077423   40.006139    1.407328
 H   26.482123   41.037860    4.272302
 H   27.730262   40.290398    3.267444
 H   26.157842   44.071922    1.931417
 H   25.470463   43.391203    3.417742
 H   25.265541   42.088935    0.654447
 H   23.983241   42.939750    1.464096
 H   28.029971   43.260352    5.782748
 H   26.943062   44.195807    5.016925
 H   22.660235   42.772929    2.765582
