27 
6mdd_ligand_dft.xyz
 C   22.569749   41.732886    3.861107
 C   23.367413   40.580396    3.680155
 C   18.598656   40.739784    5.782747
 C   17.359770   40.860076    6.432039
 C   18.616866   40.391938    4.430917
 C   16.174545   40.635899    5.727097
 C   17.432338   40.171875    3.741571
 C   16.206268   40.291912    4.380691
 C   23.094896   39.493892    4.498628
 C   21.350733   40.850358    5.502199
 C   24.076089   42.007862    2.274475
 C   22.061166   39.645989    5.423845
 N   24.820857   42.663930    1.329486
 N   21.592720   41.914421    4.722474
 N   23.043489   42.638846    2.927303
 N   24.294279   40.779169    2.674865
 S   20.072656   41.027759    6.738995
Cl   17.313237   41.285021    8.116442
Cl   14.627164   40.779712    6.510016
 H   19.563518   40.294874    3.913542
 H   17.466164   39.901909    2.690962
 H   15.275706   40.122383    3.851616
 H   23.659792   38.571030    4.422495
 H   21.794099   38.833631    6.089635
 H   25.447110   42.043232    0.835242
 H   24.323120   43.297853    0.720555
 H   22.791600   43.613366    2.876901
