38 
6mdu_ligand_dft.xyz
 C   13.236991   11.280765    4.650767
 C   10.988021   10.378459    4.454629
 C   13.994486   12.422411    5.211365
 C   16.911520   14.293659    5.125821
 C   17.990160   13.431355    4.956097
 C   19.237036   13.959985    4.642181
 C   19.403267   15.336262    4.509315
 C   18.314003   16.187050    4.676638
 C   17.058944   15.669506    4.977090
 C   14.715832   14.169731    6.361389
 C   14.931816   15.260308    7.327592
 C   13.924463   16.208636    7.525408
 C   14.090212   17.225678    8.459885
 C   15.265051   17.306057    9.201489
 C   16.271882   16.362341    9.010318
 C   16.107351   15.342144    8.081868
 C   13.627175   13.335290    6.223283
 N   11.873857   11.347114    4.869648
 N   11.304386    9.250500    3.806466
 N   10.161994    8.567580    3.580038
 N    9.215917    9.276135    4.080250
 N    9.687170   10.419065    4.638863
 N   15.212098   12.676182    4.744936
 N   15.634729   13.737688    5.440131
 O   13.744169   10.348822    4.052572
 H   17.838278   12.362631    5.058394
 H   20.081598   13.292259    4.504974
 H   20.379746   15.745092    4.269334
 H   18.435550   17.259442    4.562295
 H   16.203307   16.325373    5.094542
 H   13.014985   16.152350    6.934117
 H   13.302452   17.958674    8.603716
 H   15.396229   18.101420    9.928716
 H   17.187305   16.416906    9.591213
 H   16.890415   14.603341    7.942052
 H   12.741168   13.350648    6.842219
 H   11.452688   12.164191    5.287291
 H   12.221748    8.943949    3.512099
