43 
6me3_ligand_dft.xyz
 C   40.175397  -35.310260   95.808611
 C   39.481738  -36.661576   95.568197
 C   38.156197  -36.427315   93.519261
 O   39.151675  -36.492044   92.810599
 C   36.774490  -36.216868   92.930213
 O   40.833772  -36.595773  101.187878
 N   38.214111  -36.539538   94.873848
 C   41.620263  -36.349978  100.083098
 C   41.015895  -36.027351   98.882247
 C   41.826736  -35.819811   97.756242
 C   40.771414  -35.509432  102.089890
 C   44.233437  -34.307390   94.068526
 C   44.569860  -33.985713   92.759104
 C   43.765149  -34.413360   91.705938
 C   42.626368  -35.167220   91.974181
 C   42.294357  -35.504559   93.281850
 C   43.092492  -35.072816   94.348340
 N   43.771672  -35.633498   96.657259
 C   41.544046  -35.494453   96.385153
 C   42.757548  -35.406973   95.740723
 C   43.228698  -35.916293   97.888276
 C   43.839383  -36.244340   99.100398
 C   43.019940  -36.463149  100.194083
 H   40.226255  -34.769416   94.858860
 H   39.558911  -34.707017   96.488527
 H   39.309871  -37.175791   96.518962
 H   40.129054  -37.302570   94.964437
 H   36.631527  -36.930008   92.115170
 H   35.963813  -36.333320   93.655242
 H   36.724378  -35.211736   92.501212
 H   37.374694  -36.400046   95.413121
 H   39.933321  -35.953257   98.832336
 H   40.130264  -35.821939  102.916956
 H   41.764632  -35.249826  102.481406
 H   40.341338  -34.619528  101.609816
 H   44.844467  -33.934347   94.886582
 H   45.455412  -33.388360   92.562275
 H   44.023888  -34.157097   90.682816
 H   41.986312  -35.506911   91.165818
 H   41.408518  -36.107391   93.452744
 H   44.732189  -35.788344   96.398015
 H   44.918624  -36.331141   99.185894
 H   43.443896  -36.738250  101.154899
