35 
6me5_ligand_xtb.xyz
 N    3.100053    0.786908   -0.146368
 C    1.198039   -0.438523    0.848405
 C   -0.050021   -1.206856    0.512795
 C    0.008367   -2.577892    0.463399
 C   -1.109321   -3.350864    0.128488
 C   -2.296834   -2.740808   -0.161838
 C   -1.271344   -0.549023    0.206682
 C   -3.727446    0.665515   -0.411222
 C   -1.775371    3.666026    0.239846
 C    5.445666    1.195817    0.163686
 C    4.341317    0.257559   -0.281917
 O    4.539422   -0.847986   -0.733388
 C    1.897306    0.042174   -0.433506
 C   -2.404167   -1.337458   -0.130222
 C   -1.409071    0.857653    0.224486
 C   -2.606045    1.457014   -0.076429
 C   -3.622856   -0.690549   -0.433973
 O   -2.833600    2.801816   -0.086235
 H    2.997237    1.682831    0.303219
 H    1.889271   -1.086207    1.390549
 H    0.971320    0.417196    1.488404
 H    0.940606   -3.075723    0.688510
 H   -1.022151   -4.426834    0.102663
 H   -3.169457   -3.322471   -0.421814
 H   -4.651515    1.171509   -0.641788
 H   -1.413968    3.493287    1.259400
 H   -0.942047    3.565427   -0.464105
 H   -2.183164    4.673274    0.170168
 H    6.407452    0.723079   -0.010157
 H    5.396128    2.126651   -0.396900
 H    5.343069    1.417885    1.223938
 H    2.198295   -0.822060   -1.029304
 H    1.217150    0.660970   -1.026741
 H   -0.555052    1.461374    0.481670
 H   -4.479431   -1.297895   -0.688234
