34 
6mg5_ligand_xtb.xyz
 O    3.880721   -2.353741    0.127336
 C    3.185594   -1.366814    0.073160
 O    1.832933   -1.544988   -0.068409
 C    0.977535   -0.497540   -0.131094
 C    3.660003   -0.003855    0.144095
 C    2.832648    1.066791    0.085657
 C    3.358955    2.463961    0.160610
 C    1.423216    0.833140   -0.054270
 C    0.441473    1.830172   -0.120822
 C   -0.887634    1.528083   -0.255635
 C   -1.341787    0.192036   -0.342437
 C   -0.365773   -0.807958   -0.268398
 N   -2.663853   -0.106034   -0.516366
 C   -3.679538    0.922966   -0.464123
 C   -3.987658    1.408310    0.954213
 C   -3.113105   -1.480322   -0.576635
 C   -3.227956   -2.149977    0.794195
 H    4.727690    0.107475    0.248346
 H    4.441624    2.457627    0.252075
 H    3.085527    3.019307   -0.735482
 H    2.937448    2.981285    1.021446
 H    0.736867    2.866170   -0.061341
 H   -1.585834    2.346528   -0.298670
 H   -0.606593   -1.855384   -0.312491
 H   -4.591312    0.516133   -0.907698
 H   -3.371417    1.768139   -1.086834
 H   -4.419442    0.608168    1.548911
 H   -3.081844    1.749546    1.448239
 H   -4.697515    2.230795    0.916292
 H   -2.429132   -2.049429   -1.211732
 H   -4.090810   -1.492951   -1.065232
 H   -2.288874   -2.076877    1.335743
 H   -4.005052   -1.678274    1.389624
 H   -3.479433   -3.200149    0.670855
