61 
6mh1_ligand_xtb.xyz
 C    1.059126   -0.728758   -0.488450
 C   -2.603565   -1.058135    1.303435
 C   -3.280909    0.473694    3.161741
 C   -6.598851   -1.140515   -0.240853
 C   -4.200208   -1.852186   -0.312081
 C    1.943825   -1.663719   -1.037067
 C   -0.844921    1.633130   -0.333954
 C   -2.770503    1.243621   -1.867060
 F    7.729269   -1.097531    0.764135
 C    6.516787   -0.549986    0.573713
 C    6.414082    0.630343   -0.142361
 C    5.163658    1.183389   -0.335912
 C    4.024904    0.555575    0.166872
 C    4.159663   -0.620857    0.903944
 C    5.405449   -1.180268    1.108159
 C    2.725635    1.186074   -0.028273
 C    1.461499    0.634521   -0.209572
 N   -0.217961   -1.056920   -0.265413
 C   -0.606859   -2.288280   -0.584245
 N   -1.921938   -2.604538   -0.438863
 C   -2.897929   -1.835355    0.185655
 C   -3.592434   -0.300870    1.916422
 C   -4.879179   -0.307418    1.386477
 C   -5.197406   -1.092357    0.283945
 N    0.161620   -3.237075   -1.116767
 C    1.426416   -2.915869   -1.326704
 N    0.587984    1.713489   -0.204480
 C   -1.268053    1.462227   -1.801865
 N   -3.470305    2.406948   -1.254406
 C   -3.070104    2.613107    0.164680
 C   -1.568871    2.850310    0.245028
 C    1.357000    2.821455   -0.069254
 N    2.620211    2.540863    0.040446
 H   -1.609342   -1.084680    1.718293
 H   -3.403287   -0.176216    4.027343
 H   -2.252357    0.827643    3.162448
 H   -3.955345    1.317761    3.288568
 H   -6.612516   -1.273490   -1.320400
 H   -7.122245   -1.987846    0.200759
 H   -7.151221   -0.240516    0.019150
 H   -4.437165   -2.480334   -1.158080
 H    2.967782   -1.414109   -1.248250
 H   -1.153053    0.729617    0.205568
 H   -3.042250    0.345842   -1.304863
 H   -3.105242    1.132596   -2.899571
 H    7.303442    1.099870   -0.531025
 H    5.051488    2.108371   -0.878631
 H    3.286836   -1.089960    1.333152
 H    5.527059   -2.087287    1.678514
 H   -2.193212   -3.482437   -0.857797
 H   -5.654204    0.272669    1.866597
 H    2.040106   -3.693021   -1.761065
 H   -0.768196    0.590177   -2.221479
 H   -0.970288    2.334502   -2.388856
 H   -4.484611    2.268377   -1.309715
 H   -3.228524    3.250334   -1.790095
 H   -3.344086    1.713493    0.723648
 H   -3.618290    3.466782    0.566869
 H   -1.304902    3.756431   -0.304680
 H   -1.286099    2.997319    1.287058
 H    0.969517    3.819277   -0.038827
