61 
6mh7_ligand_xtb.xyz
 C    1.080248   -0.757749   -0.546499
 C   -4.152156   -2.004534   -0.549736
 C   -4.936086   -0.510865    1.186566
 C   -3.363833    0.261994    3.000848
 C   -2.628785   -1.205996    1.121850
 C    2.009875   -1.662995   -1.069752
 C   -0.903556    1.529073   -0.493624
 C   -2.719234    1.074394   -2.137159
 F    7.707019   -0.867186    1.031164
 C    6.483521   -0.369974    0.782548
 C    6.367880    0.826074    0.095045
 C    5.106554    1.326923   -0.158643
 C    5.373423   -1.066056    1.230769
 C    4.116833   -0.557592    0.967622
 C    3.970356    0.633284    0.256711
 C    2.658788    1.213340   -0.000064
 C    1.426325    0.616748   -0.245539
 N   -0.193425   -1.125037   -0.371068
 C   -0.538639   -2.361551   -0.717583
 N   -1.850298   -2.708468   -0.623885
 C   -2.863763   -1.970337   -0.019009
 C   -5.164207   -1.277423    0.050033
 C   -6.061719    0.233309    1.836520
 C   -3.645677   -0.486851    1.733834
 N    0.274072   -3.283084   -1.232025
 C    1.536718   -2.925480   -1.390101
 N    0.515035    1.663521   -0.282020
 C   -1.235613    1.366577   -1.985765
 N   -3.508097    2.190106   -1.544126
 C   -3.194142    2.389619   -0.102530
 C   -1.713448    2.700262    0.064567
 C    1.234550    2.798394   -0.106478
 N    2.499837    2.563469    0.066477
 H   -4.360981   -2.616676   -1.414202
 H   -3.725137    1.288811    2.957863
 H   -3.871919   -0.222589    3.833422
 H   -2.298829    0.271892    3.215388
 H   -1.644289   -1.215295    1.561266
 H    3.033781   -1.383808   -1.240539
 H   -1.201358    0.603598    0.014029
 H   -2.975373    0.154296   -1.604103
 H   -2.992769    0.965878   -3.187965
 H    7.255597    1.347446   -0.225350
 H    4.982756    2.262105   -0.680918
 H    5.503664   -1.983883    1.781632
 H    3.243736   -1.078238    1.331807
 H   -2.086855   -3.591146   -1.053543
 H   -6.161534   -1.324981   -0.362297
 H   -6.973469    0.141729    1.252535
 H   -6.253457   -0.172505    2.828514
 H   -5.829387    1.291352    1.960316
 H    2.186817   -3.681118   -1.808964
 H   -0.669557    0.529618   -2.392661
 H   -0.951776    2.264012   -2.540803
 H   -4.509908    2.002353   -1.655570
 H   -3.281468    3.054049   -2.053034
 H   -3.447628    1.465107    0.425080
 H   -3.807603    3.206224    0.281987
 H   -1.465016    3.629340   -0.453042
 H   -1.494749    2.837287    1.123207
 H    0.808399    3.780745   -0.094581
