28 
6mhb_ligand_xtb.xyz
 C   -5.303980   -1.262524   -0.405462
 C   -1.846911    0.083016   -0.165144
 C    0.269265    0.640462   -0.006648
 C   -0.296960    1.878201    0.127258
 O   -4.425220    0.972818   -0.158089
 C   -4.223636   -0.213696   -0.288674
 C   -5.470353   -1.993647    0.928296
 N   -2.951325   -0.717614   -0.309235
 S   -2.016751    1.806126    0.045664
 N   -0.643086   -0.367037   -0.172702
 C    1.687565    0.309138    0.007711
 C    2.672833    1.277664    0.199222
 C    4.010009    0.932573    0.205368
 C    4.375893   -0.391570    0.019384
Cl    6.049998   -0.823937    0.026170
 C    3.414011   -1.371236   -0.171434
 C    2.080087   -1.017457   -0.176183
 H   -5.048663   -1.971680   -1.195041
 H   -6.235447   -0.760732   -0.667463
 H    0.188562    2.821419    0.265866
 H   -4.552942   -2.503722    1.214510
 H   -5.729844   -1.286748    1.712434
 H   -6.265324   -2.731014    0.851737
 H   -2.776442   -1.705684   -0.422990
 H    2.397048    2.309886    0.345864
 H    4.768766    1.685089    0.353644
 H    3.710982   -2.398521   -0.314635
 H    1.317036   -1.764899   -0.323332
