40 
6mhd_ligand_dft.xyz
 O   -2.692673   -2.496361    0.479471
 C   -2.752218   -1.497485   -0.215058
 C   -4.074484   -0.921355   -0.689145
 C   -5.258020   -1.674028   -0.092472
 N   -1.586819   -0.848144   -0.604317
 C   -1.575475    0.379006   -1.409169
 C   -1.545907    1.621486   -0.576938
 O   -2.731583    2.206626   -0.330613
 N   -2.537871    3.314501    0.471885
 C   -1.246581    3.376886    0.691908
 C   -0.678224    4.470177    1.536736
 C   -0.557388    2.312954    0.040305
 C   -0.341068   -1.269247   -0.134498
 S   -0.092941   -2.671566    0.869027
 C    1.596160   -2.302584    0.866150
 C    1.853007   -1.179011    0.140508
 N    0.735387   -0.604971   -0.430396
 C    3.165436   -0.539124   -0.078232
 C    4.281143   -0.880122    0.693862
 C    5.510160   -0.271506    0.470748
 C    5.644664    0.694555   -0.523390
 C    4.538450    1.046533   -1.291300
 C    3.309017    0.435628   -1.071138
 H   -4.108793   -0.974717   -1.785568
 H   -4.121629    0.142204   -0.430184
 H   -5.229723   -2.731589   -0.364790
 H   -5.248374   -1.612487    0.998495
 H   -6.194163   -1.241607   -0.456748
 H   -2.453802    0.389900   -2.053246
 H   -0.687160    0.344407   -2.039285
 H    0.042235    5.064787    0.966346
 H   -1.476775    5.126944    1.888216
 H   -0.155717    4.054523    2.403980
 H    0.496941    2.083805    0.042913
 H    2.295362   -2.941396    1.386715
 H    4.187779   -1.615461    1.487791
 H    6.364712   -0.547522    1.081445
 H    6.604833    1.171682   -0.695131
 H    4.632641    1.799154   -2.068715
 H    2.445822    0.704049   -1.671005
