40 
6mhd_ligand_xtb.xyz
 O   -3.081114   -2.054069    0.465440
 C   -3.052889   -1.065637   -0.239110
 C   -4.304843   -0.357345   -0.710182
 C   -5.547377   -1.020183   -0.126679
 N   -1.851320   -0.545994   -0.648187
 C   -1.653321    0.646856   -1.448949
 C   -1.126984    1.762509   -0.604697
 O   -0.341211    2.682944   -1.182661
 N    0.047820    3.583936   -0.249318
 C   -0.480341    3.229941    0.891091
 C   -0.251246    3.993797    2.140477
 C   -1.261322    2.054122    0.720694
 C   -0.681982   -1.110497   -0.175045
 S   -0.677846   -2.523285    0.840397
 C    1.042769   -2.399474    0.866497
 C    1.481239   -1.331873    0.135018
 N    0.473907   -0.615596   -0.447272
 C    2.856075   -0.888765   -0.061302
 C    3.941845   -1.699276    0.266151
 C    5.233053   -1.247348    0.071013
 C    5.461065    0.015151   -0.452048
 C    4.387664    0.825941   -0.783000
 C    3.094860    0.379268   -0.590878
 H   -4.344981   -0.397997   -1.801823
 H   -4.260325    0.690284   -0.403231
 H   -5.586276   -2.066095   -0.418224
 H   -5.523596   -0.975951    0.958692
 H   -6.443775   -0.518886   -0.482167
 H   -2.585966    0.935181   -1.934956
 H   -0.905476    0.428698   -2.218539
 H    0.246019    3.362386    2.874913
 H    0.370564    4.858210    1.929095
 H   -1.200457    4.322038    2.560573
 H   -1.811675    1.520268    1.466781
 H    1.620944   -3.102060    1.429662
 H    3.774710   -2.688834    0.663779
 H    6.067652   -1.884554    0.325923
 H    6.472232    0.363930   -0.602762
 H    4.558751    1.810923   -1.192027
 H    2.253339    1.004486   -0.845133
