27 
6mj7_ligand_xtb.xyz
 N    0.709402   -1.151268    0.363465
 C    1.506727   -0.164182   -0.368949
 C    2.994475   -0.346873   -0.046634
 O    3.774979    0.391426   -0.820220
 C    1.105691    1.278931   -0.029271
 C   -0.362932    1.579995   -0.338429
 C   -1.291968    1.229139    0.836509
 N   -2.608835    0.805671    0.398420
 C   -2.874304   -0.403472   -0.092261
 N   -1.933264   -1.323816   -0.186371
 N   -4.126079   -0.674051   -0.488710
 O    3.380585   -1.079590    0.822046
 H    1.012725   -2.081346    0.081359
 H    0.950652   -1.083559    1.352036
 H   -2.187417   -2.240645   -0.514215
 H    1.365889   -0.331490   -1.441971
 H    4.713828    0.271687   -0.598877
 H    1.310161    1.479732    1.023858
 H    1.743212    1.933879   -0.622390
 H   -0.467750    2.637888   -0.576267
 H   -0.664478    1.015705   -1.221932
 H   -0.858906    0.428909    1.437195
 H   -1.425249    2.096271    1.482919
 H   -3.333680    1.504895    0.359034
 H   -0.913811   -1.169675    0.054888
 H   -4.869013   -0.005939   -0.378271
 H   -4.375369   -1.587989   -0.825391
