47 
6mjf_ligand_xtb.xyz
 N    2.885844    0.214583   -1.136140
 C    3.028482   -0.700622    0.021578
 C    2.431990   -2.082777   -0.272395
 C    0.919965   -2.154861   -0.108858
 S    0.010860   -1.076077   -1.293041
 C    4.542346   -0.831974    0.242237
 O    4.851895   -1.466620    1.344519
 O    5.313508   -0.389137   -0.568082
 C   -1.532639   -2.006015   -1.504857
 C   -2.592896   -1.687091   -0.450882
 O   -2.026832   -1.587076    0.849343
 C   -3.364821   -0.382265   -0.714153
 O   -4.561621   -0.699793   -1.363831
 C   -3.602585    0.178781    0.709470
 O   -4.792028   -0.294798    1.257506
 C   -2.399878   -0.384625    1.480457
 N   -1.249986    0.502683    1.465773
 C   -0.093256    0.211897    2.134982
 N    0.942891    0.888674    1.742620
 C    0.463790    1.710201    0.752782
 C    1.059567    2.597511   -0.140695
 N    2.452450    2.724031   -0.230592
 N    0.315702    3.222109   -1.035788
 C   -0.986849    2.976091   -1.069908
 N   -1.658156    2.112418   -0.334837
 C   -0.918657    1.479593    0.568976
 H    3.779268    0.144940   -1.661359
 H    2.769717    1.248579   -0.822556
 H    2.083397   -0.055217   -1.718468
 H    2.549332   -0.266531    0.909699
 H    2.713669   -2.390226   -1.282029
 H    2.865727   -2.796867    0.430481
 H    0.586972   -3.172291   -0.306351
 H    0.620652   -1.874399    0.898987
 H    5.812779   -1.558140    1.468370
 H   -1.265327   -3.061622   -1.481069
 H   -1.913085   -1.752904   -2.493934
 H   -3.320446   -2.512317   -0.452107
 H   -2.756418    0.323724   -1.293865
 H   -5.003754    0.109333   -1.648465
 H   -3.597693    1.274382    0.725910
 H   -5.259280   -0.811612    0.580541
 H   -2.658243   -0.605822    2.521748
 H   -0.068297   -0.525552    2.913909
 H    2.903577    2.766652    0.677163
 H    2.711477    3.509018   -0.820603
 H   -1.555724    3.528946   -1.802636
