31 
6mkq_ligand_dft.xyz
 O   -0.455912   -2.562574    1.225107
 C   -0.012847   -1.996148    0.290363
 N    1.035944   -0.906015    0.522427
 C    1.261814   -0.583747    1.739934
 C    1.768080   -0.378466   -0.643272
 C    3.286642   -0.496258   -0.381598
 O    3.755810   -0.146159    0.689814
 N    4.016164   -0.912349   -1.428945
 C    1.421954    1.070017   -1.065751
 C    1.695486    2.202711   -0.062162
 C    0.568627    2.666686    0.796244
 N   -0.577611    2.109905    0.846797
 O   -3.163061    1.180790    0.394551
 S   -2.782506    0.030622   -0.420420
 O   -3.121583   -1.318755    0.416411
 O   -3.369157   -0.110348   -1.733134
 O   -1.256399   -0.066957   -0.422738
 H   -0.163760   -2.191214   -0.772494
 H    0.682074   -1.104357    2.499663
 H    2.022912    0.145208    1.983428
 H    1.468135   -1.017155   -1.478647
 H    5.022361   -0.945977   -1.327766
 H    3.616047   -1.270793   -2.282555
 H    2.044224    1.255923   -1.946407
 H    0.386836    1.078335   -1.413414
 H    2.559148    1.988231    0.583826
 H    2.005310    3.099800   -0.615765
 H    0.732654    3.559652    1.398871
 H   -0.844361    1.225469    0.290669
 H   -1.346967    2.494912    1.393304
 H   -4.042099   -1.565509    0.229411
