27 
6mku_ligand_dft.xyz
 N    0.768886   -1.406046    0.951868
 C    0.970943   -0.172741    0.141015
 C    2.426629   -0.150627   -0.305729
 O    2.698743    0.950022   -0.999071
 C    0.534994    1.094138    0.919465
 C   -0.397998    2.045232    0.147236
 C   -1.900212    1.716676    0.157444
 N   -2.294147    0.543430   -0.614658
 C   -2.094602   -0.735978   -0.207593
 N   -1.841084   -1.115290    1.018946
 N   -2.017802   -1.687504   -1.187837
 O    3.201954   -1.040552   -0.061645
 H    1.155957   -2.222496    0.471964
 H    1.257400   -1.344510    1.848274
 H   -0.331493   -1.503192    1.101821
 H    0.359066   -0.302454   -0.756405
 H    3.630781    0.919421   -1.276533
 H    0.053059    0.791544    1.856118
 H    1.431983    1.649920    1.206518
 H   -0.300140    3.036866    0.601816
 H   -0.045468    2.150545   -0.885516
 H   -2.262862    1.623507    1.187240
 H   -2.442768    2.563387   -0.268827
 H   -2.650893    0.703803   -1.544660
 H   -2.071920   -0.392249    1.693940
 H   -2.261171   -1.450953   -2.138522
 H   -2.276592   -2.621219   -0.900763
