27 
6mku_ligand_xtb.xyz
 N    0.710621   -1.149112    0.379824
 C    1.503263   -0.165396   -0.361850
 C    2.993327   -0.347101   -0.049710
 O    3.767673    0.394166   -0.826928
 C    1.104313    1.279195   -0.026679
 C   -0.363767    1.582527   -0.336372
 C   -1.295009    1.231129    0.836897
 N   -2.609927    0.804086    0.396637
 C   -2.871737   -0.405375   -0.095306
 N   -1.927902   -1.322633   -0.191237
 N   -4.122839   -0.679076   -0.491578
 O    3.386339   -1.081911    0.813962
 H    1.019779   -2.080341    0.107933
 H    0.949391   -1.070302    1.368117
 H   -2.179221   -2.239416   -0.521623
 H    1.355532   -0.338072   -1.433088
 H    4.708166    0.274088   -0.612980
 H    1.309710    1.483118    1.025702
 H    1.742489    1.931116   -0.622568
 H   -0.466516    2.641121   -0.572288
 H   -0.665199    1.020543   -1.221263
 H   -0.861393    0.432848    1.439799
 H   -1.431642    2.099000    1.481729
 H   -3.337777    1.500258    0.360216
 H   -0.910411   -1.168960    0.058468
 H   -4.867334   -0.012775   -0.381245
 H   -4.369676   -1.592996   -0.830588
