28 
6mlf_ligand_xtb.xyz
 C    0.980060    1.479100   -0.220445
 C    2.216582    0.588124   -0.040147
 C    1.763576   -0.879325    0.090759
 C    2.908025   -1.812511    0.489186
 C   -0.345343   -0.265586    0.958764
 C   -0.009676    1.231065    0.917538
 F    3.901915   -1.796120   -0.458464
 O    0.802780   -1.028054    1.129132
 O   -0.999077   -0.635054   -0.222912
 O   -2.966050    0.752134   -1.070379
 O   -1.195022    1.958480    0.723299
 O   -3.011017   -1.652997   -1.250112
 O    1.317721    2.844655   -0.214553
 O   -3.189790   -0.644737    1.123994
 O    3.031983    0.817759   -1.161825
 P   -2.616755   -0.526525   -0.215868
 H    0.499569    1.211500   -1.174677
 H    2.737219    0.887506    0.885992
 H    1.336236   -1.198544   -0.870464
 H    3.354086   -1.492466    1.434986
 H    2.546899   -2.839658    0.571475
 H   -0.995867   -0.481393    1.814940
 H    0.459652    1.510192    1.872623
 H   -2.737380    1.531664   -0.556392
 H   -0.923522    2.870991    0.545832
 H   -3.359898   -2.408287   -0.778388
 H    2.057038    2.956689   -0.825050
 H    3.748496    0.172082   -1.183745
