28 
6mlf_ligand_dft.xyz
 C    1.066769    1.460412   -0.240252
 C    2.244262    0.513073   -0.074674
 C    1.718364   -0.921091    0.087703
 C    2.804900   -1.898849    0.508978
 C   -0.354466   -0.184653    0.993012
 C    0.081316    1.281131    0.898997
 F    3.861408   -1.834657   -0.398195
 O    0.764261   -0.997822    1.141850
 O   -1.052733   -0.553043   -0.186043
 O   -3.012838    0.903413   -0.792460
 O   -1.052303    2.114182    0.713780
 O   -3.011236   -1.456836   -1.465419
 O    1.457795    2.817845   -0.223774
 O   -3.276514   -0.949858    1.072036
 O    3.042749    0.672993   -1.224943
 P   -2.677876   -0.531749   -0.206924
 H    0.561750    1.216151   -1.186127
 H    2.796722    0.796074    0.837214
 H    1.270348   -1.241907   -0.860824
 H    3.186950   -1.631560    1.499193
 H    2.424560   -2.922961    0.525739
 H   -0.984971   -0.361868    1.867317
 H    0.574005    1.539811    1.845788
 H   -2.424429    1.555457   -0.350879
 H   -0.701942    2.985566    0.474416
 H   -3.366671   -2.301807   -1.158994
 H    2.093461    2.937556   -0.941704
 H    3.745367    0.010512   -1.186346
