27 
6mlg_ligand_xtb.xyz
 N    0.709847   -1.151999    0.361945
 C    1.507465   -0.164883   -0.370080
 C    2.994776   -0.345941   -0.045184
 O    3.379648   -1.072058    0.829452
 C    1.105694    1.278303   -0.031420
 C   -0.363380    1.577860   -0.340128
 C   -1.291166    1.228608    0.836339
 N   -2.608727    0.805609    0.399869
 C   -2.874885   -0.402926   -0.091744
 N   -4.127129   -0.672921   -0.486896
 N   -1.933994   -1.323308   -0.187816
 O    3.776212    0.386352   -0.823566
 H   -2.188557   -2.239685   -0.516639
 H    1.012743   -2.081929    0.078849
 H    0.952221   -1.085176    1.350342
 H    1.367955   -0.332442   -1.443161
 H    1.742617    1.933099   -0.625376
 H    1.310482    1.480094    1.021462
 H   -0.469337    2.635264   -0.579900
 H   -0.665101    1.011487   -1.222227
 H   -1.423053    2.096545    1.481970
 H   -0.857737    0.428769    1.437300
 H   -3.334186    1.504389    0.363834
 H   -4.869390   -0.004043   -0.377307
 H   -4.376658   -1.585964   -0.825865
 H   -0.914694   -1.170007    0.054040
 H    4.714814    0.267456   -0.600819
