30 
6mlw_ligand_dft.xyz
 C   -0.207373   -0.256574    0.794198
 C    0.106266    1.233265    0.655712
 C    1.130217    1.511739   -0.434749
 C    2.341822    0.592511   -0.285634
 C    1.881641   -0.859105   -0.229783
 C    3.008061   -1.848784    0.020155
 C   -1.145342   -0.788303   -0.305764
 O    1.531616    2.866640   -0.437449
 F    0.673833    1.675988    1.855941
 O   -2.813986    1.195830   -0.814300
 O   -3.448651   -0.335464    1.225482
 O   -3.661913   -1.154173   -1.224013
 O    3.220882    0.752531   -1.372167
 O    0.979620   -1.022215    0.861535
 O    2.514094   -3.164170    0.100714
 P   -2.864195   -0.266795   -0.130974
 H   -0.693686   -0.402100    1.762644
 H   -0.803110    1.818002    0.494039
 H    0.676155    1.330074   -1.415391
 H    2.839982    0.827960    0.669409
 H    1.392519   -1.125938   -1.178631
 H    3.715935   -1.810679   -0.809941
 H    3.538444   -1.556630    0.940616
 H   -1.145096   -1.880597   -0.231584
 H   -0.810927   -0.535870   -1.316817
 H    1.709278    3.096250    0.485868
 H   -3.627449    1.693734   -0.649554
 H   -4.310015   -1.717777   -0.778970
 H    3.323846    1.706761   -1.494333
 H    1.827506   -3.145483    0.780560
