30 
6mlw_ligand_xtb.xyz
 C   -0.184950   -0.480399    0.785615
 C   -0.067427    1.044583    0.734781
 C    0.866508    1.515477   -0.381550
 C    2.210100    0.772188   -0.262404
 C    1.961569   -0.740172   -0.246153
 C    3.260121   -1.517679    0.001627
 C   -1.086073   -1.009297   -0.330469
 O    1.060508    2.906636   -0.354671
 F    0.466226    1.493865    1.931670
 O   -2.745290    0.878317   -1.184421
 O   -3.250738    0.001961    1.192390
 O   -3.724843   -1.410863   -0.881743
 O    3.045814    1.086179   -1.343805
 O    1.077893   -1.102850    0.804849
 O    3.046708   -2.900403   -0.039166
 P   -2.774474   -0.340346   -0.150213
 H   -0.636966   -0.741773    1.750011
 H   -1.057684    1.504453    0.658093
 H    0.416109    1.301149   -1.356433
 H    2.686856    1.063003    0.689847
 H    1.552722   -1.042718   -1.220778
 H    3.975551   -1.276652   -0.785182
 H    3.668957   -1.212863    0.974655
 H   -1.133369   -2.096469   -0.258165
 H   -0.719183   -0.745736   -1.320001
 H    1.261606    3.170109    0.553665
 H   -3.473030    1.482925   -1.026994
 H   -4.269859   -1.857061   -0.232995
 H    2.955848    2.033958   -1.515510
 H    2.354017   -3.101930    0.601796
