37 
6mmo_ligand_xtb.xyz
 P   -1.151480   -2.468558   -0.363956
 O   -1.450772   -3.030053    0.954696
 O    0.362485   -2.451132   -0.806166
 O   -1.867949   -3.213576   -1.575265
 O   -1.618454   -0.949298   -0.579727
 C   -2.851497   -0.589963    0.025175
 C   -2.801018    0.855968    0.528636
 O   -1.793808    1.018829    1.520273
 C   -2.480216    1.882627   -0.569038
 O   -3.068903    3.112839   -0.262558
 C   -0.947274    1.952389   -0.509121
 O   -0.476638    3.212582   -0.871659
 C   -0.651758    1.594298    0.972783
 N    0.479656    0.695424    1.025215
 C    0.585888   -0.541771    1.579139
 N    1.715275   -1.137617    1.311119
 C    2.419488   -0.241030    0.541822
 C    3.689382   -0.247565   -0.064408
 N    4.540391   -1.279956    0.025538
 N    4.055218    0.826795   -0.770740
 C    3.223171    1.844612   -0.886305
 N    2.012279    1.977280   -0.370867
 C    1.644838    0.911057    0.348049
 H    0.934358   -2.267714   -0.044247
 H   -1.939385   -4.148461   -1.387526
 H   -3.033168   -1.256135    0.874222
 H   -3.659528   -0.699185   -0.703776
 H   -3.757075    1.097489    1.002780
 H   -2.822215    1.531745   -1.551954
 H   -2.445639    3.801693   -0.537248
 H   -0.530314    1.166160   -1.152381
 H    0.498871    3.166217   -0.843767
 H   -0.394773    2.504818    1.539488
 H   -0.195322   -0.967733    2.176140
 H    4.299848   -2.073673    0.590512
 H    5.445268   -1.202552   -0.403065
 H    3.577835    2.676973   -1.478847
