34 
6mmq_ligand_dft.xyz
 P    3.680771    0.779971   -0.116833
 O    5.055898    0.741664   -0.613204
 O    2.978255    2.229660   -0.076644
 O    3.466788    0.284797    1.388636
 C    2.174279   -0.041235    1.937841
 C    1.535441   -0.994385    0.949180
 O    0.213473   -1.373746    1.257596
 C    1.391904   -0.309392   -0.400187
 O    2.667126   -0.125030   -1.007465
 C    0.488780   -1.288719   -1.133070
 O    1.205585   -2.405521   -1.599736
 C   -0.406286   -1.780868    0.039555
 N   -1.759708   -1.295787    0.019686
 C   -2.891764   -2.049263    0.260036
 N   -3.996314   -1.361142    0.283817
 C   -3.575610   -0.063224    0.059905
 C   -4.271472    1.157575   -0.030466
 N   -5.611575    1.229093    0.088725
 N   -3.577683    2.283289   -0.253308
 C   -2.249909    2.192545   -0.387913
 N   -1.477148    1.110352   -0.328328
 C   -2.197593    0.006752   -0.097231
 H    3.350712    2.811498   -0.752711
 H    2.366349   -0.493662    2.910685
 H    1.576863    0.867579    2.063152
 H    2.183808   -1.875453    0.838547
 H    0.867902    0.645928   -0.292290
 H   -0.103706   -0.819502   -1.926442
 H    2.020086   -2.075405   -2.005308
 H   -0.455750   -2.873569   -0.012641
 H   -2.817342   -3.119575    0.404984
 H   -6.051187    2.135067    0.098025
 H   -6.139411    0.409973    0.341787
 H   -1.736533    3.133623   -0.568809
