32 
6mnv_ligand_xtb.xyz
 C    0.882988    1.433630    0.562467
 C    2.197357    0.711026    0.250729
 C    1.879284   -0.561358   -0.547860
 C    3.119867   -1.434117   -0.757447
 C   -0.268348   -0.790612    0.465184
 C   -1.068480   -1.829264    1.259610
 C   -0.065796    0.485868    1.295955
 F   -0.428561   -2.112380    2.434350
 O    4.068177   -0.715819   -1.519953
 O    0.955172   -1.384065    0.151639
 O   -0.921574   -0.496420   -0.741823
 O   -2.263899    1.681101   -0.999963
 O   -1.319116    1.084446    1.491269
 O   -2.657019   -0.238418   -2.398521
 O    1.085200    2.560775    1.381620
 O   -3.412825   -0.405647    0.055797
 O    3.012215    1.610134   -0.456957
 P   -2.409402    0.111475   -0.873366
 H    0.420573    1.740612   -0.389230
 H    2.678610    0.424840    1.202542
 H    1.466251   -0.269607   -1.523340
 H    3.528838   -1.704512    0.224506
 H    2.808621   -2.350475   -1.270371
 H   -2.057217   -1.430932    1.490260
 H   -1.129879   -2.754771    0.683026
 H    0.383333    0.199818    2.258293
 H    4.816157   -1.290878   -1.712133
 H   -2.510953    2.081112   -0.165890
 H   -1.148235    1.930106    1.930251
 H   -3.188084   -1.029789   -2.468480
 H    1.838226    3.040354    1.014073
 H    3.659971    1.093703   -0.958848
