54 
6mny_ligand_dft.xyz
 C   -2.444056    1.734134   -1.595994
 C    1.072269    0.905501   -0.464837
 C   -0.389854    0.838881   -0.669214
 C    3.180485    1.473549   -0.042574
 C    3.933752   -1.918908   -1.455963
 C    1.617353    3.351207    0.469846
 C    1.885386    1.992454   -0.020544
 C    6.752671   -1.673950    1.101737
 C   -5.942832   -1.266067   -1.180253
 C   -1.115909   -0.240472   -0.161627
 C   -2.488200   -0.342063   -0.356991
 C   -3.149225    0.656464   -1.066949
 C   -1.072647    1.817494   -1.401878
 N    3.086521    0.198136   -0.475454
 N    1.798162   -0.168202   -0.726156
 C    4.154954   -0.780926   -0.459679
 C    5.094655   -2.919420   -1.366913
 C    5.337944   -3.373719    0.078956
 N    5.490328   -2.233982    0.978594
 C    4.339631   -1.353510    0.955189
 N    7.106470   -0.488643    1.411474
 N    4.357656    2.039627    0.390803
 O    2.538206    4.133998    0.717110
 N    0.320799    3.725493    0.649700
 O   -4.498426    0.635153   -1.327842
 C   -5.300171   -0.189896   -0.583239
 C   -6.819081   -2.063705   -0.449007
 C   -7.029220   -1.766780    0.888185
 C   -6.401028   -0.700762    1.518625
 C   -5.544004    0.080936    0.764252
 F   -4.922080    1.116151    1.334531
 F   -7.865172   -2.528887    1.604565
 H   -2.981390    2.489786   -2.158827
 H    2.984264   -2.412359   -1.222632
 H    3.841620   -1.516089   -2.469333
 H    7.543804   -2.408081    0.926325
 H   -5.750719   -1.464303   -2.229013
 H   -0.591903   -1.013625    0.390857
 H   -3.035408   -1.189058    0.042661
 H   -0.522765    2.653460   -1.823328
 H    5.080209   -0.258626   -0.732400
 H    6.013604   -2.455046   -1.748430
 H    4.886285   -3.789492   -1.999113
 H    6.233571   -3.998693    0.146391
 H    4.491439   -3.975725    0.432657
 H    4.453252   -0.555017    1.692399
 H    3.444308   -1.923743    1.229913
 H    6.311150    0.138655    1.550580
 H    4.208523    3.031293    0.572933
 H    5.173149    1.855498   -0.179405
 H   -0.432906    3.055897    0.635058
 H    0.169128    4.612584    1.104777
 H   -7.330155   -2.905101   -0.901654
 H   -6.578841   -0.480446    2.564081
