63 
6mo0_ligand_xtb.xyz
 N    4.984045    0.231497    1.091908
 C    5.690314   -3.436024   -0.026520
 C    4.336328   -3.236004   -0.056428
 C    3.737841   -2.251578   -0.904228
 C    2.395446   -2.020286   -0.896719
 C    1.532164   -2.760410   -0.063182
 C    2.094005   -3.781964    0.728248
 C    3.437932   -4.002595    0.749806
 C    0.109578   -2.525618   -0.045948
 C   -0.486262   -1.264868   -0.303791
 C    0.239388    0.002560   -0.221201
 C    1.226565    0.194261    0.746252
 C    1.927526    1.377876    0.805489
 C    1.666406    2.407834   -0.099723
 C    2.474143    3.616997   -0.072466
 C    2.145373    4.874735   -0.501729
 O    3.166819    5.727767   -0.318383
 C    4.174984    5.019986    0.225018
 C    3.815670    3.724473    0.405771
 C    0.640153    2.237334   -1.028205
 C   -0.068442    1.054516   -1.082287
 N   -1.789486   -1.179650   -0.557529
 C   -2.538172   -2.262503   -0.436529
 C   -1.989302   -3.444536    0.078630
 N   -0.693133   -3.566492    0.230939
 O   -3.853200   -2.215537   -0.759275
 C   -4.312538   -1.011823   -1.342039
 C   -4.432652    0.137303   -0.331190
 C   -4.891091    1.416563   -1.041561
 C   -4.782455    2.609624   -0.169057
 N   -5.885916    2.017283    1.518378
 C   -5.370608    0.729952    1.955460
 C   -5.384388   -0.262156    0.797335
 H    4.348121    0.011132    0.332137
 H    5.917852    0.002309    0.769901
 H    4.768830   -0.417910    1.840514
 H    6.132589   -4.183517    0.607516
 H    6.355901   -2.859718   -0.645065
 H    4.380705   -1.696723   -1.574595
 H    1.976769   -1.280968   -1.565782
 H    1.426299   -4.371629    1.338951
 H    3.854965   -4.773518    1.382489
 H    1.439594   -0.594627    1.452578
 H    2.692952    1.509374    1.553431
 H    1.243177    5.277726   -0.917732
 H    5.084782    5.547738    0.432369
 H    4.416845    2.929100    0.797238
 H    0.417436    3.030480   -1.727055
 H   -0.851810    0.916237   -1.812764
 H   -2.608272   -4.288175    0.346448
 H   -5.291537   -1.258476   -1.762134
 H   -3.632539   -0.714703   -2.148931
 H   -3.436306    0.307303    0.085870
 H   -5.916267    1.297145   -1.401370
 H   -4.255257    1.558370   -1.927271
 H   -5.342985    3.488203   -0.435393
 H   -3.836531    2.779548    0.314175
 H   -6.843870    1.951487    1.193675
 H   -5.794311    2.742091    2.219719
 H   -5.959505    0.327418    2.792137
 H   -4.345130    0.878627    2.300553
 H   -5.086423   -1.241818    1.173431
 H   -6.401035   -0.350708    0.405113
