64 
6mo1_ligand_dft.xyz
 N    2.723834    2.621933    1.788725
 C    6.296613    2.812206   -0.109911
 C    5.413427    1.783537   -0.172331
 C    4.345557    1.716523   -1.164577
 C    3.426909    0.714613   -1.176322
 C    3.440917   -0.357166   -0.226592
 C    4.537058   -0.356258    0.699606
 C    5.452930    0.646614    0.742210
 C    2.441635   -1.361730   -0.182605
 N    2.702181   -2.521057    0.509954
 C    1.826324   -3.493906    0.508212
 C    0.622663   -3.429596   -0.229826
 N   -0.343119   -4.452018   -0.152135
 C   -1.767502   -4.187617   -0.324444
 C   -2.255951   -2.781470    0.067778
 C   -3.753438   -2.551823   -0.136966
 C   -4.014851   -1.050198   -0.119104
 N   -3.483239   -0.401133    1.137728
 C   -2.076769   -0.799357    1.543582
 C   -1.885378   -2.305694    1.472618
 N    0.328673   -2.318446   -0.870761
 C    1.137020   -1.246832   -0.763991
 C    0.378216    0.007372   -0.931724
 C    0.523280    1.062183   -0.012369
 C   -0.473579    2.011989    0.146731
 C   -1.638036    1.983243   -0.634113
 C   -1.697725    1.040670   -1.673962
 C   -0.718666    0.068692   -1.813862
 C   -2.799104    2.817131   -0.296701
 C   -2.821209    4.037679    0.467974
 C   -4.119332    4.413581    0.554763
 O   -4.923605    3.528112   -0.077485
 C   -4.114904    2.559168   -0.580598
 H    3.314956    1.805933    1.953705
 H    2.924630    2.843470    0.813520
 H    3.156254    3.372338    2.324437
 H    7.095896    2.827739    0.626010
 H    6.248498    3.643019   -0.808725
 H    4.316835    2.485210   -1.934277
 H    2.672811    0.711899   -1.960478
 H    4.606224   -1.183106    1.400928
 H    6.257604    0.613693    1.474283
 H    2.049238   -4.362642    1.132177
 H   -0.138874   -5.113690    0.581206
 H   -2.309432   -4.958299    0.237952
 H   -2.039674   -4.322786   -1.381061
 H   -1.734086   -2.114835   -0.622355
 H   -4.357893   -3.066241    0.623968
 H   -4.084401   -2.922730   -1.113537
 H   -5.074522   -0.788456   -0.175397
 H   -3.476560   -0.566812   -0.936272
 H   -4.119729   -0.610635    1.909836
 H   -3.506411    0.620547    0.991124
 H   -1.919712   -0.381723    2.540408
 H   -1.404331   -0.298039    0.847650
 H   -0.829979   -2.497587    1.685796
 H   -2.476118   -2.822689    2.243139
 H    1.373565    1.097200    0.658640
 H   -0.350814    2.742383    0.942361
 H   -2.531269    1.065225   -2.374584
 H   -0.817137   -0.695215   -2.578778
 H   -1.967897    4.566268    0.867287
 H   -4.616513    5.254561    1.012927
 H   -4.607245    1.804833   -1.177456
