64 
6mo1_ligand_xtb.xyz
 N    4.957542    0.120075    1.105543
 C    5.542048   -3.601020    0.172886
 C    4.196988   -3.363307    0.068931
 C    3.671730   -2.381520   -0.827900
 C    2.337984   -2.108775   -0.889587
 C    1.414503   -2.801776   -0.082038
 C    1.904108   -3.822801    0.755060
 C    3.238203   -4.085442    0.844936
 C    0.000115   -2.515453   -0.130957
 N   -0.850262   -3.523280    0.122078
 C   -2.133036   -3.348370   -0.073298
 C   -2.631245   -2.146679   -0.607687
 N   -3.928496   -2.006696   -1.010383
 C   -4.438895   -0.746207   -1.482327
 C   -4.429628    0.368760   -0.416737
 C   -4.912935    1.686411   -1.027976
 C   -4.382888    2.911938   -0.293895
 N   -6.061320    1.486108    2.570855
 C   -5.055990    0.760649    1.996969
 C   -5.275836   -0.066953    0.799371
 N   -1.826576   -1.091474   -0.702388
 C   -0.537735   -1.236337   -0.417631
 C    0.240868   -0.000040   -0.317600
 C    1.183564    0.164182    0.697286
 C    1.926059    1.321059    0.782063
 C    1.752205    2.349424   -0.145274
 C    0.772918    2.205596   -1.127297
 C    0.021751    1.050493   -1.206527
 C    2.597429    3.531570   -0.080496
 C    3.915867    3.597918    0.464512
 C    4.322796    4.882059    0.304472
 O    3.365231    5.620199   -0.287985
 C    2.328839    4.798473   -0.523744
 H    4.306256   -0.033672    0.342542
 H    5.878861   -0.127184    0.761734
 H    4.723433   -0.559603    1.820860
 H    5.929159   -4.345122    0.845848
 H    6.255026   -3.057703   -0.422192
 H    4.363073   -1.861181   -1.477356
 H    1.974263   -1.370727   -1.591381
 H    1.190010   -4.378626    1.344848
 H    3.600008   -4.855364    1.512064
 H   -2.785673   -4.173174    0.184902
 H   -4.576467   -2.721809   -0.727077
 H   -5.452278   -0.905438   -1.857850
 H   -3.802093   -0.421070   -2.310344
 H   -3.391533    0.483617   -0.095025
 H   -6.005438    1.708400   -1.041909
 H   -4.573481    1.734147   -2.064874
 H   -4.730380    3.821468   -0.778789
 H   -3.295471    2.911833   -0.301850
 H   -7.008382    1.231564    2.337409
 H   -5.916870    1.848501    3.498844
 H   -4.062989    0.902001    2.383145
 H   -4.719742    2.922009    0.738707
 H   -4.982706   -1.101631    1.025846
 H   -6.335896   -0.065945    0.530920
 H    1.328443   -0.623365    1.422400
 H    2.653655    1.433982    1.569941
 H    0.619287    2.998092   -1.845135
 H   -0.728228    0.933479   -1.974660
 H    4.472481    2.784163    0.883355
 H    5.236127    5.382266    0.559161
 H    1.460753    5.228249   -0.983242
