61 
6mo2_ligand_dft.xyz
 N  -56.128264   24.575920    9.021316
 C  -57.432836   24.123936    8.546513
 C  -57.578609   24.312472    7.051401
 C  -58.345714   23.424419    6.296638
 C  -58.511304   23.606658    4.929622
 C  -57.901034   24.682123    4.279168
 C  -57.143038   25.579085    5.036493
 C  -56.978665   25.393630    6.403460
 C  -58.077854   24.911651    2.821224
 N  -58.328309   26.185086    2.457933
 C  -58.591577   26.447626    1.194734
 C  -58.648782   25.412150    0.246036
 O  -59.013814   25.734192   -1.003584
 C  -59.040612   24.689607   -1.981574
 C  -57.655928   24.328977   -2.505630
 C  -57.763110   23.216056   -3.555512
 C  -56.380966   22.882882   -4.134433
 N  -55.663343   24.036320   -4.667123
 C  -55.571765   25.115388   -3.687190
 C  -56.921732   25.538281   -3.094650
 N  -58.343877   24.172311    0.566399
 C  -58.018242   23.904742    1.844310
 C  -57.569401   22.509839    2.092860
 C  -56.476316   22.222269    2.915401
 C  -56.048673   20.914649    3.091387
 C  -56.704945   19.850063    2.462759
 C  -57.796143   20.143342    1.637107
 C  -58.211859   21.452787    1.443293
 C  -56.253455   18.467716    2.664569
 C  -56.369907   17.396823    1.797629
 N  -55.809688   16.336151    2.419764
 N  -55.330837   16.625320    3.639595
 C  -55.594879   17.914762    3.791396
 H  -56.082811   24.502981   10.033002
 H  -55.399690   23.974216    8.646927
 H  -58.192149   24.732130    9.055405
 H  -57.662673   23.073077    8.793286
 H  -58.823685   22.577354    6.783504
 H  -59.113371   22.902974    4.362826
 H  -56.684790   26.429698    4.541409
 H  -56.375245   26.082793    6.985722
 H  -58.778478   27.477794    0.904566
 H  -59.660922   25.095197   -2.786659
 H  -59.533631   23.807494   -1.560130
 H  -57.070330   23.940393   -1.661932
 H  -58.426136   23.543178   -4.371340
 H  -58.213492   22.316893   -3.115396
 H  -56.467167   22.131044   -4.926206
 H  -55.758098   22.443049   -3.343500
 H  -56.155080   24.379636   -5.489371
 H  -54.914128   24.769744   -2.877593
 H  -55.072680   25.969069   -4.157790
 H  -56.777906   26.307907   -2.327921
 H  -57.540520   25.987821   -3.886635
 H  -55.948327   23.028887    3.413628
 H  -55.178444   20.717362    3.710577
 H  -58.336522   19.333695    1.154152
 H  -59.050665   21.667928    0.788923
 H  -56.779176   17.323620    0.800661
 H  -55.712813   15.396913    2.069691
 H  -55.324590   18.410920    4.713885
