61 
6mo2_ligand_xtb.xyz
 N  -56.478124   24.453908    9.107356
 C  -57.711783   23.950991    8.520865
 C  -57.750000   24.211971    7.038160
 C  -58.403620   23.337124    6.178972
 C  -58.449513   23.582640    4.820984
 C  -57.829273   24.711460    4.289552
 C  -57.190582   25.598396    5.153368
 C  -57.149399   25.348227    6.510201
 C  -57.887294   25.006406    2.854818
 N  -58.022585   26.292967    2.520866
 C  -58.232649   26.620239    1.269539
 C  -58.398056   25.622626    0.292972
 O  -58.793896   25.967846   -0.939342
 C  -58.999279   24.911247   -1.865779
 C  -57.690802   24.338429   -2.417944
 C  -57.969901   23.141926   -3.328711
 C  -56.648312   22.612058   -3.901377
 N  -55.887664   23.622438   -4.610216
 C  -55.625620   24.774205   -3.767408
 C  -56.902990   25.397143   -3.191555
 N  -58.147502   24.359957    0.586849
 C  -57.833321   24.032144    1.842170
 C  -57.400821   22.646952    2.042629
 C  -56.384873   22.323205    2.941074
 C  -55.978842   21.014937    3.093681
 C  -56.569284   19.988526    2.354655
 C  -57.569695   20.320039    1.440399
 C  -57.973302   21.628691    1.282360
 C  -56.145846   18.609676    2.531664
 C  -56.299510   17.542370    1.663045
 N  -55.749737   16.469707    2.263728
 N  -55.256678   16.758844    3.464689
 C  -55.480993   18.041686    3.643239
 H  -56.472749   24.294529   10.108525
 H  -55.680307   23.970013    8.708300
 H  -58.539772   24.492761    8.994785
 H  -57.876972   22.874212    8.701337
 H  -58.887919   22.456453    6.577705
 H  -58.977420   22.901474    4.169567
 H  -56.728518   26.482297    4.741289
 H  -56.649233   26.029147    7.181223
 H  -58.297072   27.669935    1.026431
 H  -59.593033   25.356899   -2.668329
 H  -59.575239   24.113407   -1.383643
 H  -57.090077   23.997558   -1.568448
 H  -58.624769   23.450761   -4.148819
 H  -58.474116   22.351712   -2.770367
 H  -56.837115   21.782264   -4.586891
 H  -56.021396   22.244882   -3.082923
 H  -56.408594   23.920053   -5.431221
 H  -54.981071   24.439357   -2.948733
 H  -55.074842   25.510931   -4.356970
 H  -56.651942   26.232273   -2.536151
 H  -57.519302   25.782827   -4.009283
 H  -55.902437   23.105121    3.508569
 H  -55.181764   20.782715    3.783513
 H  -58.040334   19.541602    0.858169
 H  -58.747701   21.881795    0.574230
 H  -56.728820   17.481328    0.683913
 H  -55.681709   15.529484    1.907590
 H  -55.183032   18.516228    4.556127
