50 
6mo4_ligand_xtb.xyz
 N   -1.688291    0.390304    0.081537
 C   10.556871   -0.414639    0.021766
 O   10.242943   -1.273903    1.086483
 C    9.842100    0.945411    0.130718
 C    1.127102    0.305294    0.629822
 C    2.496215    0.444708    0.701289
 C   -0.925073   -0.490896   -0.607995
 C   -3.117534    0.441382   -0.098024
 C   -3.886123   -0.378427    0.964746
 C   -3.050084   -1.469795    1.608592
 C   -4.589412    0.459435    2.020713
 C   -4.472196   -2.500207   -1.023976
 C   -3.507079    1.922805   -0.097026
 C    8.414048    0.778905    0.004430
 C    7.231819    0.542228   -0.084812
 C    5.897439    0.337265   -0.180245
 C    4.703075    0.144119   -0.259424
 C    3.310139   -0.034107   -0.330725
 C    2.725062   -0.681350   -1.422772
 C    1.356007   -0.824722   -1.482867
 C    0.541004   -0.319197   -0.470603
 N   -4.673752    2.186752   -0.674309
 O   -1.429404   -1.380201   -1.279126
 O   -5.873545   -0.262181   -0.810358
 O   -6.087798   -1.913035    0.992439
 O   -2.771507    2.792461    0.352082
 O   -5.141468    3.500219   -0.663908
 S   -5.237880   -1.246464    0.045926
 H   -1.292984    1.235123    0.476497
 H   11.638086   -0.266033    0.069377
 H   10.306726   -0.881781   -0.942584
 H    9.285992   -1.396541    1.110356
 H   10.206714    1.610428   -0.656605
 H   10.070373    1.393580    1.102581
 H    0.518859    0.664621    1.446693
 H    2.952748    0.927072    1.553097
 H   -3.351886    0.022129   -1.085113
 H   -3.718893   -2.153945    2.126858
 H   -2.480336   -2.027752    0.871483
 H   -2.356580   -1.045877    2.332748
 H   -5.031903   -0.200350    2.763218
 H   -3.890034    1.132835    2.513757
 H   -5.393355    1.043126    1.578505
 H   -5.103238   -2.586649   -1.899672
 H   -4.454096   -3.430497   -0.472585
 H   -3.469896   -2.193940   -1.305974
 H    3.352986   -1.064078   -2.213697
 H    0.888412   -1.324023   -2.318126
 H   -5.366172    1.479139   -0.925787
 H   -4.405184    4.011283   -0.272989
