56 
6mo5_ligand_xtb.xyz
 C   -4.457255    2.013366    0.777502
 O   -3.843856    5.159749    0.274819
 C   -3.269122    4.008753   -0.352886
 C   -2.864309   -2.062825   -1.391133
 C    9.657469    1.747504   -0.808416
 C    8.311061    1.246529   -0.671301
 C    7.215246    0.767894   -0.491893
 C    5.972027    0.260991   -0.323411
 C    4.862595   -0.201578   -0.162033
 C    3.349682   -1.758318    0.937273
 C    3.571261   -0.726336    0.018833
 C   -5.143248   -1.338572    0.748696
 C   -3.705314   -0.870201    0.851802
 C   -3.292221   -0.519631    2.275961
 C   -2.696155   -1.860127    0.285830
 C   -0.333235   -2.327887    0.600199
 C    1.005264   -1.741016    0.387099
 C    1.226772   -0.722031   -0.541505
 C    2.498652   -0.223776   -0.726086
 C    2.080286   -2.263928    1.107583
 C   10.665502    0.791558   -0.143345
 C   -4.559839    3.203706   -0.149631
 C   -5.095102    4.505186    0.469299
 N   -1.375791   -1.435400    0.425138
 N   -3.904135   -2.779627   -1.472193
 O   -0.534881   -3.467259    0.959440
 O   10.500712    0.718389    1.248912
 O   -2.174547   -1.388343   -2.102279
 O   -4.424370   -3.797599   -1.056620
 O   -4.269720    0.526139   -1.392063
 O   -2.182622    1.087637   -0.197651
 S   -3.572779    0.702198   -0.155150
 H   -3.873090    2.242184    1.663557
 H   -5.440642    1.629935    1.035123
 H   -3.000998    4.202979   -1.393206
 H   -2.393666    3.638788    0.184471
 H    9.727247    2.730051   -0.331615
 H    9.904058    1.854756   -1.868070
 H    4.179990   -2.153831    1.503392
 H   -5.243194   -2.375911    1.063296
 H   -5.487083   -1.252345   -0.279686
 H   -5.788161   -0.729711    1.378250
 H   -3.110863   -1.428288    2.848204
 H   -4.073288    0.045978    2.777055
 H   -2.376000    0.066172    2.267192
 H   -2.808056   -2.868043    0.707685
 H    0.418017   -0.342673   -1.149040
 H    2.678021    0.557440   -1.449636
 H    1.893378   -3.066751    1.804866
 H   11.681259    1.160757   -0.302783
 H   10.577288   -0.206185   -0.598748
 H   -5.049192    2.896633   -1.073615
 H   -5.365139    4.448788    1.528255
 H   -5.899972    4.991398   -0.088382
 H   -1.188771   -0.494138    0.081683
 H    9.596958    0.436751    1.436447
