52 
6moa_ligand_xtb.xyz
 C    8.573787   61.664370   -5.011089
 C    9.126990   60.756121   -4.117407
 C    8.337846   59.688622   -3.732864
 C    7.021232   59.505349   -4.215200
 C    6.469475   60.425537   -5.108396
 C    7.264939   61.491240   -5.486360
 C    5.092578   60.261920   -5.622619
 C    9.353082   62.812851   -5.462002
 C   10.177775   63.683213   -4.683420
 N   10.703571   64.606923   -5.441454
 O   10.277698   64.391925   -6.710279
 C    9.461446   63.324969   -6.732420
 C    8.894426   62.902830   -8.036553
 C   10.433039   63.639890   -3.221729
 N    8.556262   58.627343   -2.891138
 C    7.409552   57.871959   -2.896744
 N    6.486963   58.366330   -3.670969
 C    7.248011   56.646923   -2.116989
 C    7.878739   56.516079   -0.753713
 C    8.415020   55.718492   -1.894703
 C    4.010273   60.803152   -4.890160
 C    2.685203   60.648649   -5.383169
 C    2.482450   59.955918   -6.593034
 C    3.548112   59.439843   -7.273660
 C    4.865246   59.583058   -6.800360
 C    4.170675   61.500890   -3.674414
 C    3.066118   61.989162   -3.031974
 C    1.802161   61.780241   -3.612237
 N    1.612995   61.143642   -4.732431
 C    6.010111   58.993325   -7.567867
 H   10.138362   60.868858   -3.758885
 H    6.855454   62.231742   -6.157479
 H    9.612320   63.104233   -8.828387
 H    8.658682   61.842030   -8.011251
 H    7.983588   63.460216   -8.255987
 H   10.674680   64.637605   -2.866334
 H    9.558121   63.259492   -2.698991
 H   11.279831   62.988864   -3.005904
 H    9.397747   58.442976   -2.372555
 H    6.272310   56.205130   -2.265689
 H    8.460030   57.344834   -0.377290
 H    7.313593   56.006682    0.011030
 H    8.220862   54.657643   -1.918568
 H    9.371800   55.988998   -2.316497
 H    1.471692   59.847153   -6.953585
 H    3.387715   58.904835   -8.199382
 H    5.163072   61.637609   -3.267500
 H    3.149334   62.526155   -2.099067
 H    0.909962   62.157745   -3.127244
 H    6.711887   59.771130   -7.867800
 H    6.550933   58.283820   -6.942994
 H    5.657250   58.479485   -8.458284
