54 
6mob_ligand_xtb.xyz
 C    0.962273    1.133040   -0.002798
 C   -0.297171    1.722160   -0.007213
 C   -0.393358    3.112274    0.047027
 C    0.744155    3.901639    0.103678
 C    2.121217    1.898020    0.040249
 C    1.975275    3.286335    0.096559
 C   -1.490027    0.860694   -0.042388
 C   -2.464088    1.001157   -0.971357
 C   -3.595601    0.148154   -0.970433
 C   -3.696220   -0.868056    0.013558
 C   -1.579086   -0.166796    0.991334
 C   -4.822436   -1.686293   -0.014138
 C   -5.791097   -1.476131   -0.998496
 C   -4.631572    0.258002   -1.905194
 C   -2.759291   -2.032784    1.960490
 O   -0.750973   -0.309411    1.874463
 N   -2.691825   -1.003467    0.935479
 C   -3.636356   -1.603628    3.132307
 N   -5.687944   -0.511984   -1.932570
 N   -6.923183   -2.213039   -1.082550
 C   -7.229928   -3.357404   -0.269167
Cl   -1.933569    3.895005    0.095338
 F    3.097155    4.052752    0.152740
 N    3.408132    1.373199    0.046234
 C    3.784867    0.061848   -0.182074
 O    3.011021   -0.822112   -0.459762
 N    5.144772   -0.089064   -0.062816
 C    5.906561   -1.253214   -0.214124
 C    7.290334   -1.135933   -0.095079
 C    8.100346   -2.246398   -0.231494
 C    7.542410   -3.487724   -0.487096
 C    6.168100   -3.605564   -0.603574
 C    5.346891   -2.500831   -0.469477
 H    1.046988    0.060368   -0.035243
 H    0.677771    4.976009    0.156925
 H   -2.390265    1.756471   -1.740529
 H   -4.969564   -2.473302    0.702551
 H   -4.584560    1.022299   -2.670313
 H   -1.735908   -2.181408    2.313641
 H   -3.115151   -2.962922    1.512793
 H   -3.213038   -0.717368    3.598001
 H   -4.647379   -1.372389    2.803833
 H   -3.678455   -2.398434    3.872320
 H   -7.508931   -1.997220   -1.871794
 H   -6.477250   -4.144985   -0.382050
 H   -7.284588   -3.078223    0.786797
 H   -8.195565   -3.756602   -0.567892
 H    4.132599    2.065170    0.181115
 H    5.691583    0.730572    0.161571
 H    7.730942   -0.168348    0.105456
 H    9.171033   -2.140394   -0.137576
 H    8.175546   -4.355454   -0.593796
 H    5.724561   -4.570141   -0.800814
 H    4.278671   -2.596295   -0.561047
