53 
6mom_ligand_xtb.xyz
 C   -0.208959   -1.134616    0.236029
 C   -3.370593    0.646395   -0.212914
 C   -4.366024    2.929229   -0.364360
 C   -1.644839    1.207725    1.019228
 C    5.118192   -0.590352    0.124342
 C    4.655763    0.712025    0.138245
 C    3.274546    0.915773    0.094959
 C    1.425190    2.559030   -0.114389
 C   -0.220614    3.961617   -1.166527
 C    0.817550    3.494072    0.954530
 C   -4.304796   -3.582906   -0.126998
 C   -2.236761   -2.427557    0.030288
 C   -1.478837   -3.564878   -0.134076
 C   -0.078558   -3.480322   -0.140003
 C    2.024930   -3.784152   -0.261859
 C    1.879715   -2.415974   -0.051639
 C   -1.575395   -1.176731    0.236349
 C   -2.236109    0.111936    0.380417
 C    2.849928   -1.347210    0.025633
 C    4.215309   -1.637390    0.065760
 C    1.175089    3.387909   -1.388439
 N    0.843424   -4.413867   -0.314530
 N    0.519692   -2.237524    0.031433
 N   -3.386178    1.964911    0.048342
 N   -2.333455    2.323763    0.792755
 N    2.780026    2.208745    0.145543
 N   -0.408469    4.031219    0.318210
 N    2.401088   -0.079660    0.042174
 O   -3.589717   -2.374167    0.022749
 H    0.364706   -0.234386    0.368545
 H   -4.139015    0.169015   -0.783893
 H   -4.333907    3.779632    0.314567
 H   -5.358989    2.484594   -0.329660
 H   -4.173224    3.274092   -1.383319
 H   -0.783773    1.214818    1.654553
 H    6.178649   -0.787980    0.157838
 H    5.333368    1.549769    0.182330
 H    0.864172    1.623596   -0.168109
 H   -0.340758    4.945129   -1.617662
 H   -0.977959    3.293463   -1.577869
 H    0.581875    2.989385    1.888486
 H    1.523650    4.301077    1.161873
 H   -4.087016   -4.056562   -1.088171
 H   -4.079310   -4.280409    0.683744
 H   -5.357323   -3.308872   -0.086716
 H   -1.912665   -4.538827   -0.276169
 H    2.931519   -4.341673   -0.390329
 H    4.552519   -2.659122    0.056352
 H    1.919965    4.181296   -1.461485
 H    1.229834    2.781977   -2.288414
 H    3.471817    2.937228    0.060516
 H   -0.589743    4.984320    0.629817
 H   -1.301909    3.406933    0.596225
