51 
6moo_ligand_xtb.xyz
 C    8.644033    1.391119    0.150030
 C    8.746340    0.071939   -0.539917
 C    7.968956    0.178970    0.756704
 C   10.053461   -0.692334   -0.554524
 C    6.559455    0.080347    0.720859
 C   -5.802419   -1.206969   -0.603568
 C   -4.920499    0.020191   -0.978039
 C    5.349280    0.009045    0.664228
 C   -5.149685   -2.508133   -1.058211
 C   -7.192054   -1.050969   -1.214868
 C   -5.367258    1.289269   -0.216976
 C   -2.849587   -0.436012    0.373156
 C    4.006941   -0.072522    0.614860
 C   -1.394093   -0.345702    0.365903
 C   -0.698702   -0.952266    1.422374
 C   -0.664423    0.343449   -0.613285
 C    1.399230   -0.213274    0.506126
 C    2.793437   -0.141780    0.567099
 C    0.671255   -0.896262    1.491805
 C    0.705497    0.411022   -0.543082
 N   -3.491030   -0.182822   -0.801324
 N   -5.925463   -1.233170    0.879754
 N   -4.674149    2.378720   -0.524522
 O   10.801907   -0.427279   -1.713939
 O   -6.278466    1.321634    0.602870
 O   -3.476808   -0.752486    1.394080
 O   -4.953824    3.586453    0.092324
 H    9.510049    1.774960    0.669046
 H    8.013813    2.154588   -0.280865
 H    8.165596   -0.060543   -1.445402
 H    8.424896   -0.253564    1.640336
 H    9.861203   -1.769054   -0.575640
 H   10.634898   -0.459675    0.350170
 H   -5.078767    0.211140   -2.043684
 H   -5.816149   -3.345704   -0.869267
 H   -4.945648   -2.480279   -2.124491
 H   -4.214144   -2.687172   -0.534737
 H   -7.650079   -0.112988   -0.912304
 H   -7.835537   -1.867484   -0.897056
 H   -7.140032   -1.074624   -2.299295
 H   -1.265443   -1.471470    2.180086
 H   -1.161770    0.864328   -1.420314
 H    1.198540   -1.372063    2.304130
 H    1.262927    0.952353   -1.292394
 H   -2.909305   -0.066679   -1.614800
 H   -6.449357   -0.380390    1.161405
 H   -6.371482   -2.083355    1.221306
 H   -4.897721   -1.102032    1.269739
 H   -3.918063    2.464021   -1.184826
 H   11.015881    0.512164   -1.747218
 H   -5.697267    3.413088    0.702000
