109 
6mqc_ligand_dft.xyz
 N   -1.121815    1.323690   -2.020558
 C   -2.522991    1.382042   -2.530591
 C   -3.417596    0.369836   -1.804281
 O   -4.464348    0.724417   -1.280629
 C   -2.536777    1.186867   -4.041807
 N   -3.019621   -0.924018   -1.865510
 C   -3.836843   -1.972684   -1.289953
 C   -3.564277   -2.047782    0.210603
 O   -2.503036   -2.523549    0.647095
 C   -3.559875   -3.327599   -1.964106
 C   -4.398051   -4.431029   -1.313616
 C   -3.833109   -3.245216   -3.467075
 N   -4.529594   -1.602581    1.024681
 C   -4.411387   -1.636804    2.477868
 C   -3.526229   -0.490238    2.971596
 O   -3.988704    0.572941    3.354840
 N   -2.188742   -0.737170    2.890413
 C   -1.280610    0.393166    2.950518
 C   -1.625672    1.276234    1.750007
 O   -1.533891    0.816612    0.613346
 C    0.199864   -0.023708    2.886540
 C    0.611693   -0.991764    4.011022
 C    1.073752    1.236525    2.915072
 C    0.198193   -2.454181    3.820722
 N   -2.037589    2.545833    1.984437
 C   -2.618516    3.305212    0.890068
 C   -1.597360    3.842423   -0.110619
 O   -1.942044    4.150021   -1.242382
 N   -0.324300    3.967486    0.340263
 C    0.743239    4.532857   -0.471871
 C    1.481450    3.394300   -1.194628
 O    1.043320    2.915425   -2.241155
 C    1.620893    5.452794    0.371173
 N    2.608714    2.922250   -0.633786
 C    3.253505    1.724203   -1.128677
 C    2.339658    0.510487   -0.857695
 O    1.407171    0.561167   -0.065950
 C    4.655532    1.606625   -0.478156
 C    4.575295    1.290836    1.018730
 C    5.574425    0.618304   -1.200658
 N    2.620076   -0.622366   -1.546095
 C    2.041133   -1.902263   -1.166173
 C    0.512211   -1.817690   -1.114949
 O   -0.142656   -1.317498   -2.021634
 C    2.658316   -2.492582    0.112385
 C    4.164231   -2.621868    0.054030
 C    4.819759   -3.131639   -1.071044
 C    4.936446   -2.239160    1.152130
 C    6.207863   -3.226198   -1.107418
 C    6.324847   -2.336945    1.123586
 C    6.966036   -2.822988   -0.011225
 O    0.005092   -2.439726   -0.083778
 H   -0.602156    0.488489   -2.325092
 H   -0.562740    2.152953   -2.293152
 H   -1.121978    1.281097   -0.982240
 H   -2.895509    2.370868   -2.262425
 H   -2.116260    0.215739   -4.323246
 H   -3.564747    1.235353   -4.409025
 H   -1.962654    1.977728   -4.533514
 H   -2.057830   -1.162002   -2.099257
 H   -4.882670   -1.697430   -1.458343
 H   -2.498306   -3.562668   -1.806968
 H   -4.159981   -4.557946   -0.253057
 H   -5.468814   -4.213414   -1.405531
 H   -4.211917   -5.387937   -1.809333
 H   -3.221472   -2.481796   -3.956231
 H   -3.616934   -4.206331   -3.942814
 H   -4.886372   -3.007900   -3.657472
 H   -5.268028   -1.046993    0.612939
 H   -4.003085   -2.608492    2.767317
 H   -5.404716   -1.516765    2.909032
 H   -1.917951   -1.512951    2.292561
 H   -1.469446    0.929712    3.886711
 H    0.359173   -0.512450    1.917041
 H    1.706408   -0.954822    4.076665
 H    0.241749   -0.617614    4.974959
 H    0.889775    1.829743    3.819591
 H    0.905779    1.853902    2.027606
 H    2.131759    0.958927    2.903939
 H    0.419909   -2.793893    2.801526
 H   -0.866932   -2.609394    4.006883
 H    0.748625   -3.097976    4.513338
 H   -2.395669    2.722486    2.913566
 H   -3.155767    4.160915    1.306564
 H   -3.335204    2.697535    0.327140
 H   -0.123054    3.667400    1.284554
 H    0.255022    5.100328   -1.267767
 H    1.033227    6.308559    0.711764
 H    2.467697    5.827148   -0.210260
 H    2.010295    4.949458    1.265606
 H    2.898982    3.275940    0.264591
 H    3.368978    1.832497   -2.212647
 H    5.097120    2.604219   -0.601794
 H    4.089626    0.324991    1.186091
 H    5.580193    1.233759    1.446697
 H    4.020483    2.045504    1.588342
 H    5.589912    0.800148   -2.281702
 H    6.598410    0.734719   -0.834745
 H    5.293796   -0.421573   -1.013875
 H    3.433821   -0.645984   -2.142230
 H    2.233449   -2.578046   -2.007107
 H    2.202825   -3.472753    0.287555
 H    2.370793   -1.862143    0.960125
 H    4.249652   -3.470661   -1.933330
 H    4.443656   -1.861161    2.044823
 H    6.697042   -3.623594   -1.991376
 H    6.904447   -2.033430    1.990102
 H    8.048367   -2.898504   -0.039365
 H   -0.992181   -2.416078   -0.037705
