109 
6mqc_ligand_xtb.xyz
 N   -1.175337    0.815122   -2.199285
 C   -2.464191    0.602284   -2.888651
 C   -3.324857   -0.397237   -2.102357
 O   -4.460092   -0.148978   -1.753637
 C   -2.217325    0.116635   -4.309290
 N   -2.731208   -1.582844   -1.875955
 C   -3.427696   -2.612913   -1.130161
 C   -3.316392   -2.257245    0.351947
 O   -2.259071   -2.403937    0.971042
 C   -2.836924   -4.000426   -1.416878
 C   -3.580035   -5.055133   -0.600317
 C   -2.925633   -4.314769   -2.907115
 N   -4.421320   -1.763344    0.905490
 C   -4.532736   -1.414137    2.310472
 C   -3.807144   -0.098547    2.627849
 O   -4.382831    0.955271    2.804224
 N   -2.471279   -0.239740    2.706129
 C   -1.638151    0.943779    2.805109
 C   -1.898144    1.710338    1.508359
 O   -1.591199    1.233933    0.424009
 C   -0.149496    0.607252    2.951509
 C    0.174892   -0.077303    4.284127
 C    0.654911    1.902835    2.823257
 C   -0.351615   -1.501974    4.421057
 N   -2.493559    2.907647    1.629319
 C   -2.992615    3.590836    0.449618
 C   -1.936348    3.683188   -0.649832
 O   -2.185014    3.439361   -1.810546
 N   -0.719532    4.098247   -0.237961
 C    0.335472    4.419812   -1.184944
 C    1.153317    3.169921   -1.554287
 O    0.857746    2.493193   -2.528907
 C    1.178903    5.574075   -0.661051
 N    2.211925    2.881528   -0.792496
 C    3.060561    1.742054   -1.085036
 C    2.329740    0.451136   -0.687531
 O    1.319317    0.444585   -0.010701
 C    4.428574    1.935634   -0.399434
 C    4.337195    1.701385    1.106331
 C    5.522224    1.056733   -1.004737
 N    2.848674   -0.675798   -1.199353
 C    2.337483   -1.974036   -0.793544
 C    0.813057   -1.887271   -0.665004
 O    0.123701   -1.562736   -1.619208
 C    3.005180   -2.472170    0.495902
 C    4.509379   -2.440387    0.419019
 C    5.191694   -2.987540   -0.662428
 C    5.245630   -1.866973    1.448255
 C    6.573625   -2.944811   -0.719956
 C    6.628353   -1.826231    1.394643
 C    7.296160   -2.359018    0.305864
 O    0.348153   -2.317663    0.466505
 H   -0.578798   -0.029292   -2.193161
 H   -0.621817    1.592044   -2.618330
 H   -1.337373    1.071936   -1.201194
 H   -2.996743    1.558106   -2.897897
 H   -1.654921   -0.814183   -4.308705
 H   -3.162611   -0.050417   -4.817111
 H   -1.658774    0.865404   -4.864963
 H   -1.730357   -1.708500   -1.984978
 H   -4.478800   -2.584624   -1.436347
 H   -1.784788   -3.995302   -1.111408
 H   -3.485411   -4.863053    0.465779
 H   -4.636049   -5.063856   -0.859844
 H   -3.170697   -6.040516   -0.804831
 H   -2.385399   -3.580852   -3.499093
 H   -2.500377   -5.294812   -3.104982
 H   -3.963519   -4.321136   -3.230696
 H   -5.176767   -1.483453    0.295268
 H   -4.090920   -2.218178    2.905882
 H   -5.587643   -1.303292    2.557861
 H   -2.049685   -1.087648    2.337995
 H   -1.983407    1.530601    3.664144
 H    0.133870   -0.046577    2.121283
 H    1.262474   -0.104275    4.381139
 H   -0.208490    0.532448    5.105019
 H    0.310119    2.646898    3.539358
 H    0.561287    2.297592    1.814587
 H    1.705988    1.704422    3.014901
 H   -0.089463   -2.094665    3.547197
 H   -1.429667   -1.515658    4.549048
 H    0.092957   -1.971792    5.295157
 H   -2.970078    3.107444    2.497216
 H   -3.291386    4.602649    0.730863
 H   -3.860968    3.070537    0.029127
 H   -0.553348    4.273732    0.740704
 H   -0.170772    4.708601   -2.116089
 H    0.572019    6.474544   -0.605848
 H    2.011696    5.766702   -1.331789
 H    1.567440    5.369158    0.335456
 H    2.390380    3.388515    0.058606
 H    3.189099    1.717086   -2.175002
 H    4.708201    2.980477   -0.579793
 H    4.042610    0.675686    1.311808
 H    5.306056    1.876217    1.566375
 H    3.615405    2.366354    1.575429
 H    5.517844    1.113690   -2.090995
 H    6.492847    1.402845   -0.658642
 H    5.422474    0.020344   -0.692499
 H    3.707812   -0.656489   -1.724279
 H    2.529025   -2.668833   -1.619041
 H    2.666089   -3.492975    0.686529
 H    2.666641   -1.851206    1.326790
 H    4.644980   -3.465813   -1.462415
 H    4.732627   -1.461448    2.308996
 H    7.087633   -3.376037   -1.565542
 H    7.183395   -1.380188    2.205803
 H    8.373573   -2.327946    0.260647
 H   -0.652035   -2.329643    0.548470
