89 
6mqm_ligand_xtb.xyz
 N    0.759548    0.325075   -2.045589
 C    2.083724    0.459713   -2.701202
 C    2.933609   -0.656988   -2.065508
 O    2.983960   -1.757257   -2.580220
 C    2.610874    1.876253   -2.548253
 N    3.492243   -0.360228   -0.887010
 C    4.059146   -1.394770   -0.038047
 C    2.891731   -1.980800    0.771546
 O    2.738731   -1.799387    1.972337
 C    5.211160   -0.871913    0.834554
 C    4.900910    0.468892    1.500334
 C    6.482905   -0.761573   -0.002957
 N    2.026498   -2.681067    0.028355
 C    0.736384   -3.101071    0.516027
 C   -0.366775   -2.566130   -0.391604
 O   -0.129888   -2.140424   -1.514602
 N   -1.609049   -2.641317    0.092627
 C   -2.742148   -2.261913   -0.725204
 C   -2.891546   -0.736913   -0.769209
 O   -2.345627    0.022079    0.012249
 C   -4.051499   -2.954451   -0.289263
 C   -4.716726   -2.319960    0.943219
 C   -3.836416   -4.459042   -0.127364
 C   -3.879476   -2.275634    2.216951
 N   -3.687212   -0.292695   -1.759534
 C   -3.871899    1.129693   -1.967397
 C   -2.500891    1.804388   -2.009704
 O   -1.606706    1.364550   -2.718410
 N   -2.347097    2.879705   -1.232294
 C   -1.107588    3.627181   -1.172394
 C   -0.139559    3.125155   -0.086216
 O    1.031342    3.449089   -0.104503
 C   -1.393015    5.099829   -0.889047
 N   -0.697461    2.406829    0.903071
 C    0.079287    2.029206    2.061186
 C    0.865717    0.753091    1.798906
 O    1.062839    0.331132    0.671836
 C   -0.778229    1.963523    3.337338
 C   -1.477092    3.300824    3.567121
 C   -1.784839    0.816836    3.283030
 O    1.340277    0.195963    2.873717
 H   -0.000141    0.898244   -2.473192
 H    0.436301   -0.670368   -2.066770
 H    0.827904    0.560618   -1.031781
 H    1.971793    0.201243   -3.758795
 H    2.079757    2.544076   -3.222003
 H    3.665832    1.917647   -2.803052
 H    2.474013    2.255355   -1.537450
 H    3.332884    0.536226   -0.453890
 H    4.436264   -2.179806   -0.703965
 H    5.364260   -1.616463    1.621723
 H    3.946249    0.441964    2.017019
 H    4.901372    1.281702    0.776220
 H    5.669286    0.687990    2.236658
 H    6.333835   -0.074645   -0.833249
 H    7.301002   -0.389444    0.607089
 H    6.770665   -1.729855   -0.404324
 H    2.185832   -2.782064   -0.969637
 H    0.621060   -2.737156    1.539965
 H    0.670879   -4.196268    0.522533
 H   -1.784052   -2.926219    1.042178
 H   -2.495263   -2.584307   -1.746492
 H   -4.755875   -2.817638   -1.118167
 H   -5.630395   -2.882983    1.142404
 H   -5.014730   -1.299035    0.691986
 H   -4.793413   -4.949010    0.029401
 H   -3.383034   -4.876391   -1.023197
 H   -3.197348   -4.694767    0.718342
 H   -3.527932   -3.265438    2.498669
 H   -3.037958   -1.596483    2.107594
 H   -4.492845   -1.904862    3.034572
 H   -4.043546   -0.931251   -2.450711
 H   -4.487092    1.550202   -1.165364
 H   -4.370388    1.283459   -2.924691
 H   -3.111651    3.216903   -0.667711
 H   -0.605928    3.528716   -2.141385
 H   -1.894727    5.213249    0.069994
 H   -2.016562    5.525197   -1.671278
 H   -0.455572    5.647244   -0.852815
 H   -1.549217    1.887093    0.740461
 H    0.843726    2.811694    2.184162
 H   -0.091112    1.778374    4.167472
 H   -0.756505    4.114422    3.587203
 H   -2.202038    3.500033    2.781391
 H   -2.001262    3.286522    4.518485
 H   -1.268617   -0.138606    3.231413
 H   -2.395595    0.821959    4.181839
 H   -2.444040    0.901653    2.422396
 H    1.905718   -0.609338    2.671084
