39 
6mr5_ligand_dft.xyz
 C   -4.938569   -0.361789    0.330450
 C   -6.314984   -0.877703   -0.082021
 C   -3.505988    1.625564    0.453773
 C   -2.523362    1.516755   -0.712853
 C   -1.191128    2.199611   -0.407980
 C   -0.195770    2.085302   -1.561277
 C    1.125028    2.812082   -1.295097
 C    1.811616    2.872025    1.130486
 C    2.470432    2.073984    2.019483
 C    2.925483    0.933055    1.281221
 C    3.652305   -0.216111    1.610901
 C    3.930668   -1.146761    0.626153
 C    3.492124   -0.948748   -0.702149
 C    2.773197    0.180034   -1.054248
 C    2.499046    1.113641   -0.054466
 N   -4.782494    0.984632    0.190971
 N    1.827562    2.311557   -0.129543
 O   -4.063261   -1.088761    0.763513
 S   -6.370836   -2.678249    0.184310
Cl    4.835797   -2.572427    1.059579
Cl    3.841248   -2.121166   -1.942441
 H   -6.489915   -0.639100   -1.136645
 H   -7.083302   -0.373526    0.513129
 H   -3.699903    2.675693    0.699084
 H   -3.079348    1.149866    1.341249
 H   -2.973663    1.959400   -1.612020
 H   -2.357873    0.453916   -0.923675
 H   -0.753709    1.754781    0.494859
 H   -1.364396    3.262413   -0.180622
 H   -0.632497    2.504710   -2.477046
 H    0.005941    1.026424   -1.765055
 H    0.943704    3.879485   -1.131519
 H    1.789568    2.729458   -2.162391
 H    1.319969    3.822993    1.284841
 H    2.623140    2.275331    3.069623
 H    3.998507   -0.388803    2.624039
 H    2.444922    0.314357   -2.078859
 H   -5.501450    1.514304   -0.277431
 H   -7.636060   -2.807528   -0.254226
