38 
6msc_ligand_dft.xyz
 N    2.432475    1.768463    0.037822
 N   -0.876148    2.995062   -0.019643
 C    0.599233   -1.491989   -0.217601
 C    0.814501   -0.104165   -0.103187
 C    2.130964    0.430587   -0.039292
 C   -0.199455    0.886122   -0.055164
 C    0.229114    2.210693   -0.004641
 C   -0.933128    4.440419    0.020138
 C   -3.732743   -2.018589    0.752236
 C   -3.459820   -0.225202   -1.249656
 C    5.591116   -0.756578   -0.025290
 C    1.703224   -2.300900   -0.245501
 C   -2.623843   -0.105109   -0.141318
 C   -2.767047   -1.022383    0.911026
 C   -4.388570   -1.258160   -1.287262
 C   -1.954083   -0.935374    2.175597
 C    3.023734   -1.831053   -0.168327
 C    3.247697   -0.471916   -0.067581
 C   -1.618885    0.978287   -0.086689
 F    1.539851   -3.623482   -0.353972
 N    1.504528    2.663913    0.046335
 N   -1.994706    2.251523   -0.072512
 N   -4.526990   -2.154303   -0.309652
 O    4.459247    0.088973    0.005709
 H   -0.396918   -1.910601   -0.296888
 H   -0.448018    4.811467    0.925931
 H   -0.429602    4.862687   -0.852785
 H   -1.985761    4.720637    0.017157
 H   -3.876294   -2.750415    1.546463
 H   -3.379493    0.479273   -2.070800
 H    5.592307   -1.450620    0.824008
 H    5.638173   -1.323493   -0.963007
 H    6.454496   -0.095507    0.043909
 H   -5.049239   -1.373705   -2.143538
 H   -2.354172   -1.609114    2.938518
 H   -0.906279   -1.208041    2.006731
 H   -1.964377    0.082229    2.579089
 H    3.826374   -2.555995   -0.196086
