15 
6msn_ligand_dft.xyz
 C    0.696482   -0.958950   -0.216672
 C   -0.563603   -0.329723    0.358931
 C   -0.784932    1.050717   -0.233149
 C    1.920750   -0.182142    0.208250
 O   -1.676786    1.752891    0.485592
 O   -0.253587    1.475682   -1.228333
 O    1.936873    0.693592    1.039800
 O    3.020216   -0.601633   -0.436220
 S   -1.993697   -1.415934   -0.030167
 H    0.807727   -1.990561    0.135254
 H    0.657287   -0.985789   -1.309248
 H   -0.475419   -0.234331    1.442727
 H   -1.779200    2.609468    0.041005
 H    3.757057   -0.063518   -0.104679
 H   -2.894199   -0.723991    0.686737
