15 
6msn_ligand_xtb.xyz
 C    0.708695   -0.984008   -0.179840
 C   -0.545185   -0.340144    0.386279
 C   -0.780345    1.018187   -0.242163
 C    1.922504   -0.168629    0.202781
 O   -1.592930    1.767961    0.507309
 O   -0.332852    1.375646   -1.294847
 O    1.914011    0.771412    0.950117
 O    3.028017   -0.622638   -0.387126
 S   -2.008402   -1.383638   -0.013517
 H    0.828024   -2.002814    0.192816
 H    0.654186   -1.024823   -1.269925
 H   -0.491957   -0.238958    1.471741
 H   -1.732272    2.635064    0.094632
 H    3.794131   -0.077684   -0.145604
 H   -2.881666   -0.644066    0.666645
