15 
6mso_ligand_xtb.xyz
 C    0.708844   -0.982908   -0.182323
 C   -0.545018   -0.339885    0.384972
 C   -0.780876    1.019060   -0.242103
 C    1.922924   -0.169591    0.203725
 O   -0.330537    1.379085   -1.292733
 O   -1.597079    1.766427    0.505915
 O    3.027202   -0.617085   -0.393097
 O    1.915594    0.763532    0.959862
 S   -2.007765   -1.384072   -0.014130
 H    0.827645   -2.002570    0.188308
 H    0.654880   -1.020894   -1.272459
 H   -0.490401   -0.239446    1.470518
 H   -1.737617    2.633357    0.093313
 H    3.793676   -0.074266   -0.147813
 H   -2.880626   -0.646748    0.669001
