108 
6mub_ligand_xtb.xyz
 C    1.017861    5.060689   -0.610738
 C    2.365769    4.272389   -0.615523
 C    2.091747    2.759736   -0.501829
 C    0.868877    2.556645    0.410360
 C   -0.347550    3.135295   -0.337585
 C   -1.502949    3.448453    0.635791
 O    0.724278    5.526869    0.665577
 O    3.131873    4.721392    0.473276
 O    3.277458    2.161181    0.005177
 O    0.668580    1.191800    0.679067
 O   -0.020671    4.274282   -1.114019
 O   -1.832359    2.352586    1.473863
 C   -2.553075    1.291963    0.875294
 C   -4.051021    1.411760    1.222462
 C   -4.254413    1.138026    2.716393
 C   -3.652442   -0.237054    3.046356
 C   -2.168335   -0.237120    2.668668
 C   -1.548840   -1.615984    2.909602
 O   -4.838623    0.462573    0.524670
 O   -5.606788    1.183879    3.081451
 O   -3.785802   -0.523979    4.412031
 O   -2.004309    0.074744    1.282433
 O   -0.145320   -1.597432    2.918743
 C   -5.208173    0.811832   -0.787910
 C   -6.368073   -0.119671   -1.170412
 C   -5.832560   -1.519741   -1.479171
 C   -4.735840   -1.413407   -2.541834
 C   -3.622440   -0.485902   -2.034420
 C   -2.591248   -0.223757   -3.150122
 O   -7.033368    0.421658   -2.274797
 O   -6.907003   -2.300326   -1.943973
 O   -4.268882   -2.712458   -2.803010
 O   -4.140352    0.792858   -1.682430
 O   -2.066664   -1.404719   -3.697071
 C    3.355614    0.772996   -0.243169
 C    4.228623    0.150411    0.861143
 C    5.715796    0.407450    0.594688
 C    6.073616    0.030297   -0.851265
 C    5.153751    0.780991   -1.818068
 C    5.393474    0.331829   -3.266776
 O    4.043856   -1.258477    0.954390
 O    6.533691   -0.279110    1.505797
 O    7.402773    0.387291   -1.127691
 O    3.789271    0.489156   -1.534257
 O    5.002853   -0.997292   -3.465238
 C    2.899824   -1.649390    1.654466
 C    3.032900   -3.121878    2.069524
 C    2.877615   -4.036719    0.839563
 C    1.560489   -3.702794    0.120796
 C    1.554986   -2.213284   -0.238559
 C    0.230273   -1.786451   -0.878189
 O    2.084952   -3.472533    3.044068
 O    2.891459   -5.388009    1.216574
 O    1.412969   -4.473736   -1.048699
 O    1.711876   -1.436415    0.938391
 O    0.102228   -2.276751   -2.186949
 H    1.076267    5.902820   -1.317604
 H    2.903106    4.467786   -1.553693
 H    1.870322    2.345534   -1.492728
 H    1.032781    3.101922    1.351570
 H   -0.676591    2.382792   -1.067105
 H   -2.372292    3.783569    0.060386
 H   -1.191894    4.248645    1.310144
 H    1.569893    5.589151    1.141259
 H    3.736934    4.003385    0.704907
 H   -0.160473    1.099460    1.173503
 H   -2.443834    1.310073   -0.215158
 H   -4.385731    2.428772    0.972592
 H   -3.745929    1.909974    3.303187
 H   -4.175594   -0.996476    2.440605
 H   -1.647709    0.508366    3.284416
 H   -1.863517   -1.964012    3.894826
 H   -1.926857   -2.302438    2.139764
 H   -6.101776    0.676463    2.423858
 H   -4.622942   -0.136007    4.704873
 H    0.171227   -1.178632    2.101713
 H   -5.564895    1.853069   -0.821733
 H   -7.049585   -0.180628   -0.306721
 H   -5.403732   -1.957114   -0.565056
 H   -5.172472   -0.966922   -3.450837
 H   -3.140266   -0.954771   -1.161287
 H   -3.105792    0.304640   -3.958192
 H   -1.802398    0.429692   -2.763479
 H   -7.579861   -0.290757   -2.638453
 H   -6.520268   -3.083367   -2.356887
 H   -3.474623   -2.615027   -3.359271
 H   -1.310809   -1.715516   -3.162612
 H    2.355659    0.341013   -0.181316
 H    3.936890    0.612629    1.814469
 H    5.924607    1.473474    0.739208
 H    5.923449   -1.053315   -0.989297
 H    5.344597    1.858437   -1.723810
 H    6.461388    0.388829   -3.480391
 H    4.845063    1.003248   -3.941874
 H    6.218071   -1.191706    1.546473
 H    7.932485    0.140722   -0.357129
 H    4.087469   -1.073339   -3.168143
 H    2.775706   -1.030158    2.558596
 H    4.023438   -3.285354    2.511074
 H    3.713086   -3.882862    0.147784
 H    0.722708   -3.911282    0.809233
 H    2.376927   -2.012879   -0.941085
 H    0.197829   -0.695501   -0.925159
 H   -0.601963   -2.130277   -0.247648
 H    1.302843   -2.891764    3.000432
 H    2.457649   -5.444995    2.081344
 H    1.788724   -5.346097   -0.865441
 H    0.363342   -3.211183   -2.180312
