60 
6mul_ligand_xtb.xyz
 N    3.261415    1.933568    0.840183
 C    3.111896    0.755476    0.145578
 N    1.967092    0.694623   -0.497498
 C    1.323246    1.874124   -0.235184
 C    0.089764    2.441834   -0.614764
 N   -0.218543    3.646953   -0.112870
 C    0.631469    4.264995    0.687454
 N    1.815692    3.856127    1.097587
 C    2.128864    2.654129    0.611622
 C    4.328443    2.379931    1.688976
 C    4.081364   -0.306944    0.123862
 N   -0.776537    1.879318   -1.482871
 C   -0.653185    0.509969   -1.914801
 C   -1.636723   -0.374221   -1.140565
 C   -3.056062    0.169531   -1.328095
 C   -3.131679    1.639581   -0.905242
 C   -2.088087    2.446779   -1.681542
 N   -4.042162   -0.636625   -0.639198
 C   -5.054495   -1.280467   -1.331096
 N   -5.825892   -1.928602   -0.388163
 C   -5.324258   -1.700584    0.865110
 N   -5.795895   -2.151753    2.003040
 C   -5.118820   -1.780348    3.087210
 C   -3.991072   -0.976584    3.057663
 C   -3.494141   -0.501209    1.845889
 C   -4.183761   -0.874375    0.709241
 O   -5.219960   -1.272498   -2.526939
 C    3.833585   -1.632531   -0.234921
 N    5.011020   -2.280926   -0.133749
 N    5.997400   -1.474570    0.253915
 C    5.462085   -0.284786    0.415264
 C    2.575671   -2.301947   -0.638694
 C    5.239796   -3.680989   -0.395405
 C    6.722064   -4.011299   -0.333260
 H    0.308316    5.231322    1.052486
 H    4.627468    1.586533    2.375160
 H    5.191770    2.693813    1.098080
 H    3.954917    3.236519    2.249560
 H    0.372787    0.177626   -1.755984
 H   -0.886977    0.464791   -2.984381
 H   -1.366650   -0.367724   -0.083631
 H   -1.580293   -1.401639   -1.502896
 H   -3.328659    0.089523   -2.388924
 H   -2.930374    1.735115    0.162422
 H   -4.130130    2.031959   -1.102452
 H   -2.319416    2.422087   -2.751584
 H   -2.062238    3.479459   -1.334062
 H   -6.641080   -2.476687   -0.603829
 H   -5.513314   -2.154129    4.020805
 H   -3.494823   -0.716063    3.978861
 H   -2.616583    0.125632    1.820459
 H    6.086047    0.534911    0.705381
 H    1.762809   -1.586254   -0.562668
 H    2.639106   -2.649747   -1.669851
 H    2.371784   -3.162583   -0.001372
 H    4.837833   -3.919143   -1.386594
 H    4.689669   -4.274996    0.344992
 H    7.267163   -3.429414   -1.070619
 H    7.118471   -3.768827    0.647971
 H    6.871168   -5.069287   -0.530257
