44 
6mv3_ligand_xtb.xyz
 S    0.877193    0.389022    0.175753
 O    1.674844    1.553509    0.612481
 O    1.272755   -0.071274   -1.124458
 N    1.010053   -0.852490    1.249839
 C   -3.478879    1.569432    0.634727
 C   -2.480098    2.419698    1.026867
 C   -1.140676    2.045432    0.861125
 C   -0.837073    0.835431    0.302207
 C   -1.829083   -0.075968   -0.117892
 C   -3.189371    0.315474    0.060212
Cl   -5.857567   -0.163723   -0.159628
 C   -4.200224   -0.590940   -0.351065
 C   -3.880620   -1.805939   -0.900763
 C   -2.539069   -2.169166   -1.070261
 C   -1.529378   -1.327024   -0.688957
 C    1.942901   -1.947735    1.040008
 C    3.354106   -1.676657    1.590854
 C    4.438537   -1.109898   -0.676772
 C    4.482091   -1.962413    0.593114
 C    4.655474    0.381096   -0.403151
 C    4.143516    1.249217   -1.552788
 N    3.500668    2.473217   -1.004228
 H    0.930062   -0.547694    2.206440
 H   -4.512530    1.849584    0.764496
 H   -2.714307    3.375196    1.467883
 H   -0.341932    2.699873    1.172418
 H   -4.663657   -2.481520   -1.206140
 H   -2.309423   -3.127119   -1.509766
 H   -0.498872   -1.602421   -0.833924
 H    1.967150   -2.102991   -0.038231
 H    1.507198   -2.837123    1.500374
 H    3.522056   -2.292304    2.475296
 H    3.403897   -0.636340    1.918898
 H    3.470172   -1.234195   -1.160957
 H    5.200423   -1.469942   -1.368538
 H    4.433237   -3.013122    0.304752
 H    5.435849   -1.805012    1.100073
 H    5.709543    0.574622   -0.203713
 H    4.091411    0.649820    0.489796
 H    3.371780    0.706913   -2.101769
 H    4.943162    1.527837   -2.240176
 H    3.089898    3.046632   -1.743643
 H    2.709729    2.141150   -0.329033
 H    4.169929    3.033873   -0.471151
