49 
6mvx_ligand_dft.xyz
 C    0.588478   -0.886273   -0.746115
 N    1.693027   -0.502681   -1.448528
 C    2.651457   -1.509765   -1.871350
 C    4.995126   -0.954138   -0.892643
 C    5.313131   -1.232561    1.601777
 C   -0.495616    1.445719   -0.803940
 C    1.246008    2.919607   -0.136084
 C   -2.871175    1.631217   -0.408523
 C   -6.385146   -0.742699    0.410451
 C   -5.293250    0.276022    0.131582
 C   -2.948669    0.249968   -0.227127
 C   -1.794519   -0.525662   -0.338286
 C   -0.566024    0.054360   -0.637660
 C    3.746162   -1.827051   -0.828350
 C    5.983581   -1.301995    0.226335
 C    4.068130   -2.108606    1.652825
 C    2.381790    2.238519    0.606386
 C   -1.641930    2.217136   -0.697490
 F   -7.559901   -0.102329    0.481057
 F   -6.458395   -1.657120   -0.558832
 F   -6.177495   -1.374305    1.568295
 F    3.368038    1.877386   -0.233829
 F    2.894775    3.037590    1.534649
 F    1.971310    1.098573    1.223333
 N    3.144645   -1.707576    0.546485
 O   -4.079715   -0.430779    0.057519
 O    0.548861   -2.002039   -0.219310
 O    0.712658    2.052430   -1.111811
 H    1.704782    0.419476   -1.862948
 H    2.101552   -2.426019   -2.101456
 H    3.134914   -1.164695   -2.787766
 H    5.461482   -1.098445   -1.872107
 H    4.703809    0.099701   -0.828205
 H    6.000565   -1.558325    2.387028
 H    5.034622   -0.195962    1.833955
 H    0.491733    3.231172    0.591611
 H    1.654715    3.801427   -0.634833
 H   -3.749592    2.262103   -0.337697
 H   -5.524848    0.779856   -0.813994
 H   -5.287201    1.008504    0.947078
 H   -1.860859   -1.597368   -0.190822
 H    4.028782   -2.880008   -0.931569
 H    6.834916   -0.617175    0.192947
 H    6.382589   -2.311270    0.063696
 H    3.518399   -2.001963    2.590056
 H    4.304168   -3.165432    1.502557
 H   -1.577839    3.289507   -0.853560
 H    2.239670   -2.216418    0.546860
 H    2.875312   -0.724695    0.679480
