49 
6mvx_ligand_xtb.xyz
 C    0.599005   -0.842838   -0.779382
 N    1.685515   -0.432841   -1.473261
 C    2.663233   -1.402987   -1.931239
 C    4.924995   -0.892482   -0.750611
 C    5.183788   -1.690638    1.630207
 C   -0.461694    1.478141   -0.758009
 C    1.229528    3.040229   -0.124544
 C   -2.834028    1.659585   -0.348236
 C   -6.360857   -0.777720    0.403502
 C   -5.283269    0.280058    0.149419
 C   -2.932541    0.274823   -0.243957
 C   -1.782651   -0.497181   -0.392057
 C   -0.548694    0.081753   -0.658321
 C    3.713690   -1.809033   -0.877686
 C    5.885357   -1.474068    0.289716
 C    3.935404   -2.548180    1.453942
 C    2.415657    2.441988    0.634788
 C   -1.604229    2.245206   -0.595577
 F   -7.554990   -0.194837    0.557065
 F   -6.463347   -1.637803   -0.608223
 F   -6.116014   -1.481343    1.508237
 F    3.477926    2.248313   -0.159403
 F    2.807457    3.187781    1.658400
 F    2.132861    1.210995    1.126339
 N    3.066323   -1.894488    0.456428
 O   -4.071224   -0.414832   -0.001292
 O    0.584211   -1.952273   -0.242900
 O    0.759906    2.081070   -1.039740
 H    1.662796    0.477033   -1.909495
 H    2.118441   -2.306128   -2.230792
 H    3.171991   -1.000402   -2.806080
 H    5.431235   -0.815746   -1.711983
 H    4.612796    0.111133   -0.460891
 H    5.862108   -2.177240    2.329348
 H    4.903151   -0.727028    2.060897
 H    0.469727    3.338783    0.603929
 H    1.589744    3.918632   -0.670789
 H   -3.698491    2.294474   -0.242804
 H   -5.559651    0.831394   -0.759148
 H   -5.267610    0.957614    1.013521
 H   -1.856064   -1.569253   -0.301460
 H    4.062387   -2.814765   -1.135466
 H    6.729706   -0.800037    0.424871
 H    6.278237   -2.425062   -0.073750
 H    3.390837   -2.645484    2.394019
 H    4.194003   -3.545768    1.094826
 H   -1.538953    3.319240   -0.682877
 H    2.090615   -2.305148    0.319580
 H    2.895786   -0.934530    0.780366
