59 
6mx3_ligand_xtb.xyz
 C   -2.421644   -1.336495   -0.620329
 C   -3.758658   -0.983176   -0.634035
 C   -4.186867    0.263409   -0.193917
 C   -6.083293    0.943317    1.261784
 C   -6.571046   -0.378192   -0.785992
 C   -5.805474    1.970628   -1.013678
 C    0.691072   -0.344114    0.978441
 C    1.429126    0.956847    0.729707
 C    1.670911    1.444807   -0.543258
 C    2.358577    2.631743   -0.735883
 C    2.821173    3.355066    0.356658
 C    2.576705    2.867441    1.642676
 C    1.890677    1.687664    1.821609
 C    2.542072   -1.764685    0.168926
 C    3.884361   -2.088893    0.265284
 C    4.609116   -2.394774   -0.874799
 C    3.992008   -2.388281   -2.115262
 C    1.920963   -1.752815   -1.076893
 O    0.579681   -2.581648    3.104364
 C    0.909788   -2.668286    1.808491
 O    0.579960   -3.585333    1.112037
 C    1.701106   -1.448409    1.367361
 O    3.502424    4.529579    0.286776
 C    3.766605    5.080222   -0.981316
 C    2.650808   -2.070802   -2.216219
 C    0.475963   -1.426974   -1.223050
 O   -0.136769   -1.681329   -2.241314
 N   -0.096789   -0.793233   -0.151867
 C   -1.463904   -0.436514   -0.174940
 C   -1.874304    0.814680    0.272304
 C   -3.214067    1.147703    0.265039
 C   -5.647529    0.686188   -0.187774
 H   -2.117267   -2.312106   -0.962276
 H   -4.466589   -1.711363   -0.993744
 H   -5.969190    0.037966    1.854517
 H   -5.486759    1.727570    1.719905
 H   -7.127850    1.246271    1.291744
 H   -6.301497   -0.591359   -1.817617
 H   -7.597338   -0.016393   -0.773330
 H   -6.534030   -1.299564   -0.209679
 H   -6.852093    2.265847   -1.050157
 H   -5.456531    1.807093   -2.030951
 H   -5.236962    2.791699   -0.586332
 H    0.002275   -0.199983    1.821120
 H    1.311234    0.910313   -1.409289
 H    2.522076    2.977778   -1.743831
 H    2.933200    3.439401    2.484430
 H    1.700922    1.328949    2.823326
 H    4.364258   -2.100235    1.233505
 H    5.656997   -2.642991   -0.792834
 H    4.557607   -2.634485   -3.001429
 H    0.045036   -3.346717    3.370829
 H    2.302561   -1.104083    2.211714
 H    4.392114    4.415610   -1.585722
 H    2.841949    5.302509   -1.523403
 H    4.304630    6.007818   -0.792839
 H    2.142815   -2.065268   -3.168852
 H   -1.146494    1.536986    0.612732
 H   -3.495388    2.127403    0.621024
