81 
6mx8_ligand_xtb.xyz
 C   -5.746245    1.857745    0.071506
 C   -4.675410    0.953676   -0.110920
 C   -6.427552   -4.751678    0.505508
 C   -3.218196    2.691085    0.169475
 C   -5.427798    3.185608    0.268801
 C   -0.572461    1.155455    0.370581
 C    0.672879    0.560822    0.269168
 C    1.805460    1.318726   -0.016631
 C    1.647736    2.702756   -0.178847
 C    0.405988    3.297806   -0.098157
 O    0.175397    4.644140   -0.244119
 C    1.272532    5.492871   -0.466428
 C    4.793766   -0.680371    0.846225
 C    8.802804   -3.766122   -0.274006
 N   -3.424119    1.389597   -0.041770
 N   -4.178889    3.614815    0.310821
 N   -1.960191    3.173797    0.241367
 C   -0.736506    2.514623    0.164705
 N    3.088305    0.780954   -0.080528
 C    3.327730   -0.549315    0.431392
 C    5.717585   -0.386222   -0.347784
 C    5.385406    1.011402   -0.869148
 C    3.906616    1.070037   -1.241241
 N    7.136837   -0.549537   -0.095111
 C    7.768164    0.375085    0.826392
 C    9.112819   -0.171198    1.298641
 N    9.938991   -0.586389    0.182154
 C    7.677143   -4.111428   -0.864694
 C   11.304748   -0.871009    0.566079
 N   -4.934399   -0.362657   -0.310832
 C   -4.049693   -1.392902   -0.576308
 C   -4.459549   -2.704981   -0.291287
 C   -3.600826   -3.762837   -0.546225
 C   -2.340685   -3.537777   -1.071342
 C   -1.941946   -2.243067   -1.362423
 C   -2.788007   -1.177022   -1.127157
 P   -6.135208   -2.948390    0.387495
 C   -6.046145   -2.385610    2.133743
 O   -7.190518   -2.267463   -0.385871
Cl   -7.391978    1.306336    0.042639
 H   -7.435095   -4.867796    0.903191
 H   -6.403031   -5.174664   -0.497142
 H   -5.715889   -5.256386    1.150887
 H   -6.196242    3.935449    0.397539
 H   -1.437386    0.557712    0.598275
 H    0.742029   -0.506299    0.404889
 H    2.524474    3.304869   -0.352361
 H    1.987943    5.451710    0.361335
 H    1.785476    5.251643   -1.403217
 H    0.857813    6.497675   -0.533802
 H    4.977507   -1.689455    1.222260
 H    4.993022    0.029858    1.650129
 H    9.358871   -4.465294    0.331164
 H    9.216766   -2.774337   -0.366506
 H   -1.901979    4.182708    0.281466
 H    2.695504   -0.707710    1.306619
 H    3.092243   -1.323054   -0.319607
 H    5.480269   -1.109419   -1.140939
 H    6.001787    1.237256   -1.739481
 H    5.585309    1.752013   -0.094381
 H    3.654286    2.055283   -1.631314
 H    3.707548    0.332231   -2.038165
 H    7.318643   -1.500909    0.205073
 H    7.159505    0.587912    1.721215
 H    7.930032    1.322176    0.298331
 H    8.952688   -1.051376    1.933112
 H    9.604378    0.601382    1.919515
 H    9.918397    0.130269   -0.536851
 H    7.259078   -5.102116   -0.776609
 H    7.121892   -3.416400   -1.473721
 H   11.304522   -1.709244    1.264315
 H   11.870737   -1.156292   -0.318715
 H   11.811213   -0.022367    1.052824
 H   -5.917926   -0.624613   -0.292132
 H   -3.915002   -4.772044   -0.328649
 H   -1.677692   -4.369180   -1.257665
 H   -0.965409   -2.058842   -1.784780
 H   -2.483935   -0.172074   -1.363997
 H   -5.823820   -1.320656    2.159264
 H   -7.025672   -2.547186    2.581310
 H   -5.288020   -2.928708    2.689520
