37 
6mxb_ligand_xtb.xyz
 P   -2.053607   -1.966235   -0.327129
 O   -3.408889   -1.721857   -0.808147
 O   -1.664202   -3.424786    0.072592
 O   -1.671971   -1.107193    0.982746
 O   -0.905496   -1.499903   -1.369269
 C   -2.509536   -0.055058    1.406385
 C   -1.960155    1.299803    0.974015
 O   -0.647653    1.475144    1.491635
 C    0.085712    2.344683    0.665648
 N    1.379401    1.775330    0.368440
 C    1.762897    0.472372    0.306501
 N    1.058727   -0.647109    0.609259
 N    2.905809   -1.880288   -0.043006
 C    1.607418   -1.879918    0.384708
 O    0.972006   -2.908172    0.554531
 C    3.769179   -0.795512   -0.328093
 O    4.895884   -1.012913   -0.688481
 C    3.080749    0.459226   -0.134489
 N    3.496403    1.746042   -0.339370
 C    2.488236    2.493183   -0.038121
 C   -0.759914    2.602897   -0.608395
 O   -1.350256    3.863002   -0.512791
 C   -1.806129    1.475387   -0.547554
 O   -2.982765    1.860093   -1.198452
 H   -0.730125   -3.455555    0.367484
 H   -1.010617   -1.969532   -2.195975
 H   -3.512703   -0.194082    0.991982
 H   -2.545020   -0.102392    2.497514
 H   -2.621828    2.091671    1.357422
 H    0.252073    3.306824    1.173490
 H    0.101600   -0.607145    0.951514
 H    3.316987   -2.797330   -0.182743
 H    2.477815    3.562395   -0.091053
 H   -0.136224    2.536247   -1.511991
 H   -2.195841    3.823645   -0.983038
 H   -1.380279    0.569430   -0.986115
 H   -3.538111    1.081831   -1.327376
