36 
6mxd_ligand_dft.xyz
 P    1.342304    2.450724   -0.371835
 O    1.701844    3.036091    0.931483
 O   -0.179740    2.490569   -0.803212
 O    2.091650    3.047992   -1.658345
 O    1.730680    0.887702   -0.519503
 C    2.901659    0.421596    0.148423
 C    2.708717   -1.026745    0.566691
 O    1.651563   -1.143549    1.522357
 C    2.344466   -1.998983   -0.561483
 O    2.671198   -3.338149   -0.230534
 C    0.815006   -1.951657   -0.558149
 O    0.206786   -3.120198   -1.040016
 C    0.501465   -1.668850    0.934214
 N   -0.594261   -0.712182    1.052780
 C   -0.573578    0.540762    1.622408
 N   -1.654746    1.231440    1.363682
 C   -2.446034    0.396825    0.596799
 C   -3.748586    0.625439   -0.028069
 O   -4.390308    1.649687    0.047155
 N   -4.222357   -0.488482   -0.781866
 C   -3.526636   -1.558109   -0.919055
 N   -2.298984   -1.814159   -0.352957
 C   -1.788919   -0.790377    0.396985
 H   -0.787928    2.373575   -0.039105
 H    2.075809    4.014889   -1.653885
 H    3.761930    0.503710   -0.527218
 H    3.088492    1.027286    1.039861
 H    3.628595   -1.354212    1.063727
 H    2.768169   -1.706670   -1.528361
 H    3.598150   -3.506971   -0.431132
 H    0.469120   -1.112172   -1.163853
 H    0.802449   -3.850815   -0.805724
 H    0.214922   -2.594385    1.448117
 H    0.283598    0.890686    2.177932
 H   -3.910560   -2.374108   -1.529199
 H   -1.729599   -2.608559   -0.632771
