36 
6mxd_ligand_xtb.xyz
 P    0.702917    2.569007   -0.377808
 O    0.972359    3.206507    0.910471
 O   -0.790563    2.353826   -0.807128
 O    1.340515    3.312766   -1.635296
 O    1.365017    1.102276   -0.536647
 C    2.628207    0.957383    0.081874
 C    2.851510   -0.488269    0.540664
 O    1.923565   -0.891581    1.536465
 C    2.695980   -1.515050   -0.593437
 O    3.384449   -2.717432   -0.343760
 C    1.194576   -1.840537   -0.531345
 O    0.868173   -3.135855   -0.926554
 C    0.844956   -1.558275    0.961139
 N   -0.368909   -0.775869    1.040517
 C   -0.575877    0.436072    1.646261
 N   -1.752231    0.925435    1.402455
 C   -2.389672    0.008798    0.605198
 C   -3.715603    0.020395   -0.012083
 O   -4.530297    0.906926    0.056349
 N   -3.972033   -1.148322   -0.750943
 C   -3.126939   -2.080382   -0.911786
 N   -1.863162   -2.126724   -0.388100
 C   -1.526254   -1.048852    0.374076
 H   -1.372077    2.206656   -0.044068
 H    1.190738    4.255354   -1.572928
 H    3.416665    1.241067   -0.623380
 H    2.673145    1.619955    0.952409
 H    3.842042   -0.545797    1.006028
 H    2.980655   -1.092462   -1.563045
 H    4.333245   -2.557326   -0.339569
 H    0.646266   -1.139478   -1.168221
 H    1.633236   -3.699924   -0.735561
 H    0.689303   -2.505351    1.505087
 H    0.167351    0.900628    2.260411
 H   -3.407755   -2.936253   -1.512600
 H   -1.193273   -2.850969   -0.619526
