53 
6mzq_ligand_dft.xyz
 C    6.317254    3.771930   -0.484955
 O    4.984590    3.311924   -0.429027
 C    4.772024    1.997949   -0.183975
 C    3.428042    1.604108   -0.145409
 C    5.782856    1.067126    0.019955
 C    5.454338   -0.272545    0.270187
 O    6.516876   -1.092614    0.459411
 C    6.263053   -2.453108    0.731493
 C    4.127883   -0.682949    0.313577
 C    3.116562    0.272955    0.102340
 C    1.747146   -0.144107    0.140831
 C    0.589089   -0.493856    0.182514
 C   -0.738685   -1.000894    0.195872
 N   -1.778765   -0.291062    0.611285
 C   -1.157107   -2.301559   -0.209581
 C   -0.604419   -3.487389   -0.741634
 N    0.718095   -3.620459   -0.982672
 N   -1.407488   -4.522930   -1.002413
 C   -2.718912   -4.384731   -0.739716
 N   -3.368560   -3.338528   -0.250353
 C   -2.536528   -2.314021   -0.002064
 N   -2.861917   -1.093197    0.497085
 C   -4.200916   -0.615924    0.803489
 C   -4.719993    0.367735   -0.251314
 C   -4.236422    0.205595    2.098869
 C   -3.907572    1.639623    1.661639
 N   -4.329717    1.672933    0.261621
 C   -4.334466    2.746173   -0.576806
 O   -4.735993    2.646521   -1.731013
 C   -3.827222    4.037627   -0.019063
 C   -3.892636    5.146595   -0.750951
 H    6.835930    3.614657    0.469092
 H    6.255407    4.841047   -0.689849
 H    6.877855    3.279249   -1.289386
 H    2.651783    2.341645   -0.309964
 H    6.832890    1.330694   -0.002891
 H    5.732161   -2.936195   -0.098804
 H    7.239729   -2.922065    0.854779
 H    5.682837   -2.576440    1.654558
 H    3.851096   -1.709685    0.516761
 H    1.317319   -2.809502   -0.957745
 H    1.018901   -4.437369   -1.490971
 H   -3.325702   -5.257865   -0.968310
 H   -4.817077   -1.515152    0.853379
 H   -5.810498    0.291380   -0.347459
 H   -4.286441    0.198342   -1.239358
 H   -5.249739    0.156857    2.509494
 H   -3.540620   -0.172719    2.850196
 H   -4.455788    2.375062    2.259526
 H   -2.833851    1.831209    1.748684
 H   -3.397394    4.055474    0.978227
 H   -4.319941    5.111572   -1.748825
 H   -3.524370    6.097853   -0.379764
