26 
6n0m_ligand_dft.xyz
 O   -2.767724    1.587789   -0.080924
 C   -2.503314    0.424915    0.006111
 O   -3.384206   -0.585496   -0.074724
 C   -1.087912   -0.094925    0.278182
 N   -1.018972   -1.565996   -0.052319
 C   -0.039393    0.722850   -0.480575
 C    1.427189    0.703096    0.013922
 C    1.560635    1.313525    1.416183
 C    2.257539    1.524411   -0.989180
 C    2.001571   -0.706248    0.027814
 F    1.433652   -1.461793    1.053030
 F    1.678589   -1.373598   -1.118917
 H   -4.276149   -0.216285   -0.201212
 H   -0.930840   -0.030362    1.359692
 H   -0.986773   -1.720332   -1.064625
 H   -0.154603   -1.957004    0.351002
 H   -1.838834   -2.061676    0.312501
 H   -0.387589    1.758174   -0.419678
 H   -0.081318    0.455100   -1.543692
 H    2.604964    1.305514    1.744342
 H    0.980456    0.777877    2.173176
 H    1.228210    2.355348    1.400196
 H    3.298399    1.603699   -0.660665
 H    1.856554    2.539123   -1.065099
 H    2.245306    1.075870   -1.986984
 H    3.082408   -0.748642    0.170715
