49 
6n0q_ligand_dft.xyz
 C   -3.135716    0.905867   -0.234960
 C   -4.048663    0.924137   -1.295696
 C   -5.069763   -0.020591   -1.407400
 C   -7.134405   -2.404965   -1.107397
 C   -2.033487    1.905765   -0.152851
 C   -0.727114    1.416850   -0.044906
 C    0.354741    2.291237    0.042772
 C    0.120031    3.667362    0.017543
 C   -1.176726    4.145724   -0.081013
 C   -2.277310    3.290190   -0.163289
 C   -3.667283    3.876205   -0.228997
 C    2.181991    0.587124    0.242634
 C    3.676220    0.497428    0.405725
 C    4.439016    1.465031    1.061212
 C    5.815040    1.302785    1.195182
 C    6.437187    0.176337    0.673455
 C    5.673776   -0.798000    0.030976
 C    4.299717   -0.645746   -0.094356
 C    6.361822   -1.994779   -0.571422
 C   -5.155560   -0.992390   -0.425506
 C   -4.242080   -1.024624    0.640147
 C   -3.231014   -0.089435    0.750171
 N   -6.034679   -2.048697   -0.247518
 C   -5.708989   -2.760425    0.903723
 N   -4.606265   -2.103073    1.431616
 O   -6.272127   -3.741685    1.345967
 N    1.694258    1.864054    0.158606
 O    1.496819   -0.419940    0.179296
 F    6.869813   -1.705256   -1.782910
 F    7.387015   -2.409645    0.192600
 F    5.526538   -3.031131   -0.727800
 H   -3.946927    1.682762   -2.064974
 H   -5.764828    0.003254   -2.240440
 H   -7.860894   -1.587594   -1.167056
 H   -6.777559   -2.644064   -2.114814
 H   -7.613505   -3.284645   -0.674821
 H   -0.550055    0.350137   -0.046795
 H    0.950262    4.366969    0.086921
 H   -1.341628    5.220220   -0.079543
 H   -4.025280    3.963831   -1.261481
 H   -4.390876    3.259541    0.311192
 H   -3.679997    4.880618    0.205215
 H    3.963259    2.333555    1.509046
 H    6.400453    2.051918    1.718215
 H    7.508973    0.044305    0.776959
 H    3.692184   -1.407713   -0.569515
 H   -2.527342   -0.112017    1.576447
 H   -4.146148   -2.427511    2.265524
 H    2.380286    2.601223    0.097376
