43 
6n3n_ligand_dft.xyz
 N    8.070372    1.140008    0.259786
 N    5.938246    1.079724    1.116983
 C    4.732677    0.535686    1.075776
 C    4.387119   -0.501067    0.198582
 C    5.418783   -0.939910   -0.643138
 C    3.084249   -1.068441    0.168764
 C    0.664724   -2.098968    0.112306
 C   -0.947275   -3.715154   -0.751762
 C   -1.660337   -2.082973    0.881505
 C   -2.918159    0.639068   -0.029199
 C   -2.891833    0.475701   -1.410580
 C   -2.122317    1.339449   -2.175080
 C   -1.376241    2.349306   -1.585191
 C   -0.569249    3.608703    0.436225
 C   -2.173593    1.656552    0.573667
 C    6.839928    0.576650    0.253173
 N    6.635303   -0.419995   -0.628136
 C    1.974294   -1.547955    0.143542
 C    0.328699   -3.180203   -0.711242
 F    1.284047   -3.708347   -1.477384
 C   -1.938750   -3.170688    0.054881
 N   -2.675776   -1.490553    1.679699
 S   -3.858782   -0.588152    0.894232
 O   -4.467453   -1.456384   -0.094287
 O   -4.638864    0.045980    1.933508
Cl   -2.082651    1.141142   -3.905556
 C   -1.394279    2.517079   -0.203265
 O    0.105603    4.321786   -0.572031
Cl   -2.173344    1.886211    2.303593
 C   -0.367133   -1.568690    0.889170
 F   -0.097357   -0.526881    1.685515
 H    8.301871    1.785122    0.996628
 H    8.804490    0.700018   -0.269695
 H    3.994535    0.931444    1.770495
 H    5.240577   -1.746196   -1.351553
 H   -1.150023   -4.555538   -1.404765
 H   -3.465997   -0.322876   -1.864247
 H   -0.768774    3.016030   -2.184365
 H    0.134303    3.146972    1.145732
 H   -1.234195    4.263792    1.019054
 H   -2.945356   -3.570411    0.044780
 H   -2.339448   -0.988059    2.496386
 H    0.641064    5.001973   -0.150618
