42 
6n3o_ligand_dft.xyz
 C   -0.795227   -1.407684   -2.776189
 C   -3.972008    0.976858   -0.279550
 C    5.250676   -0.087669    1.145605
 C    5.651884    0.510340   -1.109626
 C   -2.707954    2.883764    0.427138
 C    0.967929   -1.075577   -1.127633
 C    0.057616   -1.488090   -0.153765
 C   -3.691904    2.336800   -0.383034
 C    7.248534    0.738662    0.478123
 C    3.423415   -0.372338   -0.497606
 C    2.295444   -0.698079   -0.788359
 C   -1.666034   -1.829989   -1.778125
 C    4.749571    0.011408   -0.159527
 C   -1.251812   -1.859824   -0.446364
 C    0.496311   -1.040048   -2.445449
 C   -3.261292    0.231782    0.642880
 C   -2.278055    0.873067    1.421435
 C   -0.516990    0.747505    2.989664
 N   -2.010528    2.163302    1.308252
 N    6.481285    0.266163    1.478480
 N    6.888895    0.872931   -0.812334
 N    8.500747    1.131870    0.804827
 N   -2.105317   -2.255875    0.611013
 O   -4.422386   -1.860409   -0.346595
 O   -4.010407   -1.827291    2.150395
 O   -1.585452    0.122819    2.278801
 F    1.333445   -0.641578   -3.405746
 F    0.466199   -1.541970    1.123790
 S   -3.599697   -1.514267    0.798234
Cl   -4.549312    3.336038   -1.518943
 H   -1.107415   -1.372846   -3.813207
 H   -4.719185    0.497931   -0.902904
 H    4.620917   -0.473260    1.944855
 H    5.348867    0.613489   -2.149483
 H   -2.465471    3.940874    0.362880
 H   -2.677416   -2.132931   -2.021332
 H    0.229772    1.135949    2.293362
 H   -0.894210    1.561226    3.612371
 H   -0.088681   -0.042247    3.604769
 H    8.848046    0.926637    1.726711
 H    9.142485    1.366999    0.066215
 H   -1.641290   -2.289278    1.513455
