56 
6n3z_ligand_xtb.xyz
 C    3.145845   -1.419581   -0.196818
 C    0.199840   -1.369279   -0.203589
 C   -2.229516   -1.017689   -0.141185
 C   -6.902714   -0.064834   -1.275439
 C   -7.292787   -0.048806    0.052932
 C   -5.053049   -0.508849    0.757541
 C   10.550446    2.850792   -1.001619
 N    9.354470    2.060621   -0.853896
 C    9.046101    1.422486    0.302802
 O    9.758259    1.476381    1.287471
 C    7.777091    0.641763    0.278417
 C    6.684475    0.972472   -0.512478
 C    5.518890    0.227366   -0.467558
 C    5.425433   -0.878150    0.373611
 O    4.352091   -1.698729    0.493797
 C    2.358979   -0.292863    0.480501
 C    1.024652   -0.078677   -0.224203
 N   -1.080413   -1.184673   -0.855573
 O   -2.275889   -1.116447    1.063057
 N   -3.321023   -0.751576   -0.951407
 C   -4.639194   -0.527676   -0.573864
 C   -5.578201   -0.303696   -1.582590
 O   -8.658781    0.161851    0.388714
 C   -9.054817    1.413216    0.381513
 F   -8.991001    2.007514   -0.828936
 F  -10.322973    1.487318    0.771524
 F   -8.347218    2.218815    1.197192
 C   -6.376661   -0.265577    1.067933
 C    0.979747   -2.503413   -0.869160
 C    2.322047   -2.708078   -0.175766
 C    6.522273   -1.208317    1.176005
 C    7.671317   -0.454925    1.134061
 H    3.364180   -1.152470   -1.241755
 H   -0.031874   -1.633007    0.832932
 H   -7.625853    0.108030   -2.056650
 H   -4.331756   -0.682578    1.537796
 H   11.060381    2.845923   -0.039357
 H   11.209409    2.426112   -1.762050
 H   10.303198    3.878704   -1.275659
 H    8.778043    1.925939   -1.667536
 H    6.710846    1.842242   -1.154129
 H    4.691813    0.525652   -1.092905
 H    2.941252    0.630096    0.476227
 H    2.187717   -0.572673    1.521387
 H    0.466087    0.716428    0.271885
 H    1.199195    0.223136   -1.261332
 H   -1.060867   -0.988939   -1.843531
 H   -3.161507   -0.733035   -1.948576
 H   -5.268528   -0.315661   -2.617807
 H   -6.703165   -0.245736    2.095280
 H    1.145340   -2.257040   -1.921912
 H    0.396699   -3.424097   -0.824946
 H    2.166936   -2.999658    0.863534
 H    2.885949   -3.502588   -0.666323
 H    6.435882   -2.062173    1.828802
 H    8.513490   -0.696604    1.764145
