89 
6n4t_ligand_xtb.xyz
 C    4.104650   -1.075900   -0.787021
 O    4.715736   -0.286802   -1.482113
 C    4.477560   -2.537310   -0.616424
 C    5.887370   -2.835111   -1.140850
 C    6.927336   -2.407513   -0.143605
 C    7.334046   -3.276397    0.861521
 C    8.266113   -2.880295    1.804098
 C    8.802150   -1.604834    1.755398
 C    8.399946   -0.730611    0.760010
 C    7.469645   -1.129586   -0.183372
 C    3.163838    2.859430   -2.883860
 C    2.394312    4.615330   -1.441733
 C    1.323106    0.735290    0.875102
 C    2.477659    0.619624   -0.120518
 C    1.999529    1.046344   -1.536407
 C    2.383888    2.454495   -1.844451
 N    1.966298    3.472138   -1.039034
 N    2.987310   -0.727853   -0.111439
 O    0.870868   -0.237113    1.470786
 S    3.371489    4.564924   -2.863425
 N    0.854795    1.974323    1.015715
 C   -0.313491    2.271638    1.822365
 C   -1.542541    1.913895    0.968082
 O   -1.962120    2.642203    0.092374
 C   -0.334989    3.751002    2.217512
 C   -1.565294    4.034117    3.076456
 C    0.940367    4.131131    2.963617
 C   -3.170769    0.136465    0.511038
 C   -2.765983   -1.187611   -0.140869
 C   -1.710835   -0.974007   -1.228394
 C   -0.814330   -2.195198   -1.403481
 C    0.911112   -3.381459   -0.098377
 C   -4.356421   -0.057139    1.503854
 C   -5.593138   -0.385897    0.742778
 C   -7.202196   -1.622364   -0.095673
 C   -7.974675   -2.753142   -0.342043
 C   -9.068654   -2.639363   -1.173082
 C   -9.402970   -1.421205   -1.761846
 C   -8.649290   -0.286888   -1.532281
 C   -7.550286   -0.393060   -0.697322
 N   -2.053068    0.697084    1.231225
 N   -0.101066   -2.453378   -0.171519
 N    1.200051   -4.310561   -0.913458
 N    1.710199   -3.221707    1.028185
 N   -6.092424   -1.563670    0.698601
 O   -4.063340   -1.035745    2.462731
 S   -6.419453    0.838732   -0.210627
 H    4.405192   -2.799545    0.439756
 H    3.736190   -3.133581   -1.154814
 H    5.978473   -3.905625   -1.332542
 H    6.028260   -2.294715   -2.078128
 H    6.919601   -4.274570    0.902411
 H    8.576471   -3.568382    2.577703
 H    9.530993   -1.294349    2.490284
 H    8.815161    0.266312    0.717707
 H    7.147128   -0.445440   -0.953535
 H    3.627964    2.257459   -3.636947
 H    2.173250    5.539190   -0.945581
 H    3.284197    1.301116    0.185958
 H    2.471545    0.392817   -2.268620
 H    0.914754    0.935336   -1.616482
 H    2.491296   -1.417582    0.447389
 H    1.181723    2.703752    0.370384
 H   -0.278393    1.634367    2.713049
 H   -0.408243    4.333936    1.293813
 H   -1.546417    3.432076    3.982971
 H   -1.589893    5.082824    3.361178
 H   -2.475236    3.808532    2.526424
 H    0.918107    5.185880    3.225562
 H    1.027932    3.552445    3.880884
 H    1.821407    3.946625    2.354667
 H   -3.458197    0.875913   -0.244724
 H   -2.355980   -1.837530    0.634672
 H   -3.647387   -1.675244   -0.559890
 H   -2.190455   -0.735333   -2.178500
 H   -1.083356   -0.123054   -0.953071
 H   -1.423670   -3.073191   -1.650337
 H   -0.117376   -2.020089   -2.238726
 H   -4.494269    0.892465    2.038758
 H   -7.706151   -3.689860    0.119273
 H   -9.678876   -3.507125   -1.372417
 H  -10.265734   -1.361760   -2.407620
 H   -8.904695    0.657709   -1.985842
 H   -1.642508    0.114163    1.945532
 H    0.051005   -1.636679    0.410938
 H    0.625395   -4.334062   -1.747308
 H    2.246778   -4.049935    1.237866
 H    1.246455   -2.815928    1.828100
 H   -4.459411   -1.866035    2.165151
