35 
6n53_ligand_xtb.xyz
 P    3.046492   -1.266805    0.538108
 N   -1.796691    0.013766   -0.602545
 C   -1.393305   -1.171427   -0.007654
 O   -0.258469   -1.363337    0.375941
 N   -2.370857   -2.110498    0.135299
 C   -3.716937   -2.033074   -0.242444
 O   -4.461755   -2.958296   -0.044275
 C   -4.037063   -0.762746   -0.866495
 C   -3.090554    0.173111   -1.026739
 C   -0.827687    1.060657   -0.836084
 C   -0.125932    1.622303    0.423981
 C    1.025749    2.382062   -0.258133
 N   -0.948630    2.493287    1.192665
 O    0.615637    3.628197   -0.752398
 C    1.350284    1.463671   -1.453014
 N   -1.881298    2.189565    1.865913
 O    0.220875    0.610103   -1.645844
 C    2.614043    0.630969   -1.221390
 N   -2.784625    2.118267    2.526575
 O    2.678684    0.239954    0.134404
 O    2.955275   -1.481466    1.975988
 O    2.181718   -2.202778   -0.406345
 O    4.502782   -1.463231   -0.090535
 H   -2.080089   -2.975735    0.580498
 H   -5.048174   -0.605292   -1.198059
 H   -3.306004    1.121023   -1.498507
 H   -1.362112    1.893028   -1.328005
 H    0.284853    0.797650    1.018464
 H    1.889089    2.481912    0.407969
 H    0.301577    4.163252   -0.012379
 H    1.473989    2.080400   -2.352107
 H    3.496639    1.234255   -1.452425
 H    2.588019   -0.244603   -1.873740
 H    1.258854   -2.117344   -0.129128
 H    5.011114   -2.023504    0.492804
