55 
6n5f_ligand_xtb.xyz
 C   -1.020024   -0.095129    0.584918
 C   -3.536883    0.174466    0.243709
 C   -6.024361    0.533781   -0.045717
 C    7.587970    3.248515   -0.798741
 C    7.573691    2.590893    0.576228
 C    8.052398    1.138204    0.555920
 C    7.195575    0.186286   -0.280109
 C    5.766648    0.039920    0.238353
 C    4.995983   -1.033546   -0.526864
 C    3.566156   -1.186278   -0.013563
 C    2.804017   -2.276521   -0.773268
 C    1.395482   -2.406894   -0.220006
 O    1.075040   -3.240099    0.599833
 N    0.527784   -1.496011   -0.720647
 C   -0.831098   -1.365473   -0.247505
 C   -2.397011   -0.015582    1.242635
 C   -4.880233    0.350338    0.948598
 C   -7.374584    0.680419    0.663106
 C   -8.481002    0.849856   -0.361546
 N   -8.611799    2.116538   -0.826226
 O   -9.175300   -0.055481   -0.760936
 H   -0.866158    0.782868   -0.048655
 H   -0.254869   -0.085445    1.364431
 H   -3.597712   -0.690805   -0.417719
 H   -3.334657    1.053862   -0.373133
 H   -6.069588   -0.329134   -0.712802
 H   -5.833085    1.417925   -0.659581
 H    8.572297    3.157678   -1.253230
 H    6.859401    2.788063   -1.460881
 H    7.345953    4.305756   -0.714095
 H    6.567550    2.642791    0.995398
 H    8.231901    3.154215    1.242415
 H    8.082901    0.768545    1.584013
 H    9.073860    1.114429    0.167754
 H    7.672827   -0.797041   -0.269260
 H    7.173326    0.522835   -1.317916
 H    5.238747    0.990675    0.144200
 H    5.792890   -0.222945    1.298413
 H    5.515752   -1.989217   -0.430947
 H    4.974465   -0.775470   -1.588942
 H    3.041201   -0.232015   -0.112710
 H    3.585645   -1.444332    1.047204
 H    3.311091   -3.232483   -0.640414
 H    2.772061   -2.039258   -1.838617
 H    0.865469   -0.791656   -1.356743
 H   -1.508416   -1.368088   -1.106373
 H   -1.026994   -2.246947    0.366979
 H   -2.399818    0.824749    1.941188
 H   -2.569561   -0.925367    1.820540
 H   -4.831866    1.218511    1.610806
 H   -5.077992   -0.526634    1.568001
 H   -7.352422    1.537613    1.338553
 H   -7.579848   -0.220381    1.241631
 H   -9.303702    2.307474   -1.531445
 H   -8.036819    2.870654   -0.498018
