62 
6n5h_ligand_dft.xyz
 C    6.677876    0.992701   -0.471667
 C    7.466213   -1.124476    0.345844
 C    5.364939    0.534015   -0.430712
 C    6.168008   -1.589753    0.401963
 C    7.741028    0.182600   -0.075994
 C    5.101456   -0.764764    0.015318
 C    9.168400    0.620231   -0.117218
 C   -2.555411    0.147852    0.197001
 C    0.279234   -0.866641   -0.791117
 C    1.009534    1.076618    0.631739
 C    1.597089   -1.584083   -0.492935
 C    2.329227    0.358770    0.924693
 C   -7.605266    0.318033   -1.446063
 C   -7.791940    0.645306    1.035149
 C   -7.108665   -1.586951    0.111958
 C   -5.921300    1.729704   -0.233878
 C   -5.247235   -0.494778   -1.166038
 C   -5.432360   -0.164333    1.322914
 C   -7.399029    1.312878   -0.292362
 C   -6.723404   -0.919973   -1.218715
 C   -6.908004   -0.590180    1.265361
 C   -0.113045    0.075628    0.352292
 C    2.708294   -0.577875   -0.223118
 C   -5.025957    0.498159   -0.006844
 N   -1.340967    0.795698    0.037971
 N   -3.642775    0.980042    0.055029
 O   10.096432   -0.145305   -0.169514
 O   -2.624833   -1.049250    0.443377
 O    9.395946    1.955078   -0.090183
 O    3.878546   -1.329878    0.092860
 H    6.853144    1.992767   -0.862466
 H    8.295625   -1.763736    0.629404
 H    4.567445    1.191082   -0.755732
 H    5.943800   -2.597232    0.735480
 H   -0.523479   -1.592127   -0.942928
 H    0.368691   -0.275512   -1.712990
 H    1.130135    1.732101   -0.243585
 H    0.742406    1.717494    1.481099
 H    1.885285   -2.230159   -1.327987
 H    1.487713   -2.226709    0.389902
 H    2.232301   -0.247554    1.833957
 H    3.125064    1.087353    1.110817
 H   -7.350091    0.791934   -2.403269
 H   -8.661863    0.025745   -1.501937
 H   -8.850420    0.355571    1.008310
 H   -7.671352    1.354860    1.864283
 H   -6.491549   -2.479156    0.276228
 H   -8.155391   -1.916571    0.077639
 H   -5.759352    2.451834    0.577524
 H   -5.638194    2.222643   -1.176287
 H   -4.955402   -0.014919   -2.110579
 H   -4.598141   -1.363250   -1.020857
 H   -4.787843   -1.027987    1.506125
 H   -5.270241    0.551302    2.139359
 H   -8.015982    2.204291   -0.456503
 H   -6.865304   -1.630109   -2.041899
 H   -7.180088   -1.066237    2.214686
 H   -0.276697   -0.533706    1.252511
 H    2.883642    0.001459   -1.141486
 H   -1.334084    1.784349    0.246706
 H   -3.472382    1.828469   -0.467447
 H    8.581979    2.424232    0.133177
