62 
6n5h_ligand_xtb.xyz
 C    6.679808    1.090055   -0.203482
 C    7.469098   -1.105619    0.346862
 C    5.383799    0.613103   -0.270725
 C    6.187022   -1.589714    0.264992
 C    7.741046    0.242457    0.098459
 C    5.119622   -0.738175   -0.049764
 C    9.152051    0.695390    0.200409
 C   -2.582210    0.042872    0.023602
 C    0.381242   -0.842342   -1.213728
 C    0.931423    0.895902    0.512813
 C    1.683653   -1.566827   -0.894318
 C    2.228334    0.160794    0.832180
 C   -7.727706   -0.262905   -1.136351
 C   -7.649444    1.245518    0.850684
 C   -7.113737   -1.180210    1.104025
 C   -5.912754    1.439274   -0.932868
 C   -5.382594   -0.986745   -0.680835
 C   -5.303789    0.523985    1.309473
 C   -7.386294    1.144847   -0.651060
 C   -6.854793   -1.277056   -0.398402
 C   -6.776630    0.229557    1.586393
 C   -0.132367   -0.083221    0.015358
 C    2.740983   -0.575570   -0.408784
 C   -5.037037    0.424574   -0.196591
 N   -1.365672    0.619186   -0.263838
 N   -3.639047    0.722776   -0.504781
 O    9.995472    0.087277    0.801687
 O   -2.677068   -0.965532    0.693160
 O    9.466468    1.842736   -0.437625
 O    3.909850   -1.329930   -0.117827
 H    6.835214    2.151184   -0.354445
 H    8.292945   -1.755659    0.597529
 H    4.589582    1.307834   -0.493680
 H    5.969009   -2.630648    0.442316
 H   -0.374389   -1.561965   -1.531515
 H    0.544139   -0.135348   -2.032856
 H    1.116102    1.648327   -0.259550
 H    0.565971    1.409735    1.402611
 H    2.056913   -2.087795   -1.777345
 H    1.517405   -2.307871   -0.111801
 H    2.053970   -0.575241    1.618914
 H    2.982013    0.862941    1.194246
 H   -7.557302   -0.337405   -2.212881
 H   -8.783109   -0.472512   -0.949330
 H   -8.703937    1.048129    1.054959
 H   -7.424293    2.255307    1.202149
 H   -6.495593   -1.908240    1.632140
 H   -8.160988   -1.406405    1.317427
 H   -5.668099    2.451249   -0.597320
 H   -5.719866    1.379746   -2.007148
 H   -5.178741   -1.061383   -1.751758
 H   -4.745085   -1.702253   -0.162217
 H   -4.668009   -0.194253    1.827479
 H   -5.044648    1.526126    1.661714
 H   -8.006569    1.876531   -1.181722
 H   -7.095385   -2.287350   -0.746971
 H   -6.961748    0.301955    2.663807
 H   -0.377648   -0.801252    0.804487
 H    2.951763    0.142507   -1.214732
 H   -1.324380    1.319074   -0.988355
 H   -3.461146    1.632417   -0.899512
 H    8.718812    2.202697   -0.931534
