23 
6n5x_ligand_dft.xyz
 O    2.311262   -0.940603    0.884756
 C    2.205110   -0.131997   -0.270380
 C    2.437801    1.342724    0.053841
 C    0.854783   -0.377097   -0.936195
 O   -0.138844   -0.039515    0.012641
 C   -1.466001   -0.431373   -0.328896
 C   -1.737776   -1.878880    0.056273
 C   -2.368007    0.553266    0.404841
 O   -2.075455    1.879358    0.042040
 H    1.491079   -0.793340    1.376871
 H    2.985889   -0.479928   -0.955804
 H    2.419658    1.955939   -0.854284
 H    3.409162    1.465744    0.539783
 H    1.663960    1.712025    0.734946
 H    0.779358   -1.437746   -1.211069
 H    0.739176    0.230112   -1.846778
 H   -1.608353   -0.286545   -1.410099
 H   -1.064019   -2.565103   -0.465092
 H   -2.765124   -2.157164   -0.201372
 H   -1.599064   -2.017233    1.133539
 H   -2.253040    0.394673    1.490188
 H   -3.414439    0.366073    0.146664
 H   -1.115399    1.958709    0.130112
