42 
6n77_ligand_xtb.xyz
 C    2.075457   -0.082347    0.235208
 C   -2.971062   -0.417784   -0.358058
 C    3.161691   -0.593672   -0.462467
 C    3.482565   -1.936355   -0.372934
 C   -1.930651    1.945782   -0.219266
 C    2.729350   -2.789920    0.411190
 C    1.659985   -2.285361    1.133130
 C    1.327373   -0.938977    1.066072
 C   -0.388966   -1.147624    2.710384
 C   -3.039112    0.976445   -0.298521
 C   -4.411764    1.254920   -0.345585
 N    2.725134    2.254547    0.078390
 N   -0.722298    1.331284   -0.144075
 C    1.762341    1.337016    0.107204
 N   -5.152504    0.158393   -0.424507
 O   -2.098618    3.151102   -0.232021
 N   -1.955092   -1.277371   -0.357562
 C   -2.230480   -2.551366   -0.436578
 C   -3.547251   -3.052630   -0.515443
 C   -4.586016   -2.164753   -0.512237
 N   -4.301149   -0.852953   -0.435353
 C    0.501621    1.967789   -0.043104
 C    0.788657    3.314804   -0.146419
 N    2.131622    3.428420   -0.061769
 C    2.905116    4.633613   -0.119131
 O    0.321820   -0.363897    1.786559
Cl    4.835036   -2.554768   -1.257545
 H    3.747723    0.075845   -1.070579
 H    2.977645   -3.837734    0.471032
 H    1.095603   -2.959797    1.757365
 H   -0.949363   -1.947425    2.214558
 H    0.273096   -1.580273    3.467041
 H   -1.089066   -0.466529    3.192209
 H   -4.875074    2.220864   -0.323386
 H   -0.703595    0.319851   -0.099392
 H   -1.380152   -3.219067   -0.440674
 H   -3.728066   -4.111839   -0.578434
 H   -5.628770   -2.437958   -0.569208
 H    0.134841    4.152264   -0.266361
 H    2.573960    5.338024    0.645391
 H    3.945599    4.367762    0.055310
 H    2.811286    5.105706   -1.099451
