42 
6n77_ligand_dft.xyz
 C    2.145138   -0.102972    0.233626
 C   -3.105877   -0.407620   -0.294594
 C    3.218356   -0.548176   -0.535793
 C    3.602934   -1.883033   -0.507524
 C   -1.908753    1.903270   -0.259295
 C    2.926626   -2.800227    0.280945
 C    1.857652   -2.370065    1.062785
 C    1.471887   -1.031073    1.050416
 C   -0.213433   -1.393119    2.694161
 C   -3.061998    0.982536   -0.348784
 C   -4.397990    1.358171   -0.565848
 N    2.747704    2.245836    0.173251
 N   -0.719373    1.289445   -0.007835
 C    1.780230    1.326270    0.192378
 N   -5.239290    0.329369   -0.644804
 O   -2.041598    3.111347   -0.413575
 N   -2.155546   -1.351008   -0.116156
 C   -2.547408   -2.602606   -0.142084
 C   -3.896325   -3.005463   -0.333288
 C   -4.845824   -2.039993   -0.501259
 N   -4.443102   -0.746838   -0.481507
 C    0.507939    1.943752    0.077329
 C    0.772661    3.295276   -0.009463
 N    2.122732    3.417217    0.044835
 C    2.885578    4.643344    0.091583
 O    0.460533   -0.530763    1.807284
Cl    4.951693   -2.412944   -1.490234
 H    3.748905    0.165849   -1.155129
 H    3.228971   -3.841595    0.293436
 H    1.344880   -3.089356    1.690526
 H   -0.719161   -2.205348    2.158492
 H    0.474219   -1.813315    3.438582
 H   -0.960867   -0.777551    3.195394
 H   -4.770363    2.367570   -0.670893
 H   -0.721656    0.294833    0.190307
 H   -1.772469   -3.353768   -0.007894
 H   -4.167974   -4.052906   -0.346011
 H   -5.904788   -2.206523   -0.654404
 H    0.108394    4.135247   -0.123085
 H    3.064058    4.954487    1.125618
 H    3.842312    4.473339   -0.403613
 H    2.335050    5.426640   -0.433277
