42 
6n78_ligand_xtb.xyz
 C    2.162357   -0.046291    0.029411
 C   -2.948897   -0.190155   -0.691837
 C    3.390205   -0.447961   -0.494230
 C    3.772934   -1.775623   -0.462906
 C   -1.834201    2.111084   -0.348176
 C    2.941318   -2.741374    0.079699
 C    1.725479   -2.356315    0.618902
 C    1.343735   -1.024754    0.611012
 C   -0.390887   -1.319717    2.181818
 C   -2.972779    1.188034   -0.459116
 C   -4.332602    1.483842   -0.290747
 N    2.803524    2.275115    0.129241
 N   -0.639358    1.459484   -0.437122
 C    1.830645    1.371055   -0.008478
 N   -5.103712    0.412411   -0.401559
 O   -1.953044    3.310655   -0.188297
 N   -1.961853   -1.048912   -0.936023
 C   -2.275134   -2.304088   -1.111247
 C   -3.601011   -2.782610   -1.058421
 C   -4.608861   -1.891965   -0.818601
 N   -4.285011   -0.599264   -0.640836
 C    0.591794    2.036075   -0.196539
 C    0.903511    3.382089   -0.141870
 N    2.235317    3.462997    0.061244
 C    3.017815    4.656338    0.196133
 O    0.141050   -0.603252    1.181058
 F   -1.137991   -2.371004    1.728650
 F   -1.255625   -0.535409    2.839655
Cl    5.301082   -2.238642   -1.116888
 H    4.037337    0.304960   -0.913133
 H    3.236882   -3.777867    0.088106
 H    1.076600   -3.108755    1.039849
 H    0.339557   -1.733995    2.902943
 H   -4.764195    2.443557   -0.088279
 H   -0.661822    0.452219   -0.541957
 H   -1.450515   -2.975889   -1.301510
 H   -3.812379   -3.827956   -1.202888
 H   -5.655951   -2.147612   -0.759288
 H    0.267486    4.237571   -0.222128
 H    2.621280    5.283332    0.995826
 H    4.037337    4.360676    0.434349
 H    3.013607    5.226365   -0.735095
