45 
6n7a_ligand_xtb.xyz
 C   -4.357481    1.252756   -0.295178
 C    2.875885   -2.568413    0.526367
 C   -3.033580    0.865101   -0.269913
 C   -2.805170   -0.528520   -0.332961
 C    2.135403    0.107444    0.251071
 C   -1.960298    1.894270   -0.203650
 C    0.466692    2.066481   -0.062522
 C    0.681305    3.423427   -0.206126
 C    1.761672    1.507124    0.079116
 C    3.200662   -0.407411   -0.474072
 C    3.563287   -1.736274   -0.337017
 N   -5.413152    0.428031   -0.369965
 N   -1.669223   -1.236740   -0.335202
 C   -5.222234   -0.860435   -0.435503
 N   -0.717723    1.357563   -0.127645
Cl    4.884880   -2.364696   -1.261096
 C    1.827600   -2.057614    1.276393
 C    1.451113   -0.725870    1.158477
 O    0.465171   -0.140683    1.892138
 C   -0.236077   -0.910828    2.834177
 N    2.675359    2.470423    0.006355
 N    2.018142    3.607870   -0.152632
 C    2.725855    4.850748   -0.244668
 O   -2.193365    3.089627   -0.226498
 C   -3.930517   -1.413030   -0.424487
 C   -3.358806   -2.684529   -0.485518
 N   -2.034148   -2.509770   -0.429579
 C   -1.025709   -3.530663   -0.475447
 H   -4.595403    2.306826   -0.253995
 H    3.159653   -3.604079    0.627354
 H   -0.017526    4.222529   -0.333180
 H    3.737166    0.245861   -1.142506
 H   -6.103946   -1.484728   -0.500647
 H   -0.639945    0.347153   -0.088959
 H    1.321956   -2.712674    1.968367
 H   -0.783370   -1.730227    2.356516
 H    0.428967   -1.315156    3.603976
 H   -0.948099   -0.228620    3.296051
 H    2.521246    5.339338   -1.199155
 H    2.433069    5.521041    0.565497
 H    3.788945    4.632286   -0.168687
 H   -3.802881   -3.655796   -0.563596
 H   -0.052805   -3.049237   -0.381660
 H   -1.164804   -4.241504    0.340815
 H   -1.072029   -4.068950   -1.423219
