42 
6n7b_ligand_xtb.xyz
 C  -22.086086    3.415849   -1.419849
 C  -29.192116    5.820158   -0.826683
 C  -20.939879    3.857194   -0.769692
 C  -20.279026    4.991921   -1.204290
 C  -26.423220    2.603951   -0.361842
 C  -20.747878    5.705846   -2.292916
 C  -21.877187    5.264431   -2.959509
 C  -22.549896    4.123774   -2.540958
 C  -23.802543    3.957132   -4.564664
 C  -27.338920    3.755328   -0.573239
 C  -28.426681    3.959239    0.263409
 N  -22.012407    1.104186   -0.685395
 N  -25.133967    2.857300   -0.732742
 C  -22.730298    2.193155   -0.942895
 N  -29.308780    4.951283    0.150008
 O  -26.795052    1.540764    0.090763
 C  -27.222090    4.671891   -1.626268
 N  -26.364322    4.795203   -2.665008
 N  -26.681627    5.839888   -3.448424
 C  -27.736733    6.413360   -2.935827
 C  -28.161055    5.729108   -1.764009
 C  -24.091509    1.942008   -0.648024
 C  -24.126690    0.630979   -0.214257
 N  -22.856803    0.179256   -0.261960
 C  -22.391419   -1.132305    0.081697
 O  -23.656648    3.631865   -3.192350
Cl  -18.855184    5.521421   -0.380188
 H  -29.938091    6.602168   -0.872266
 H  -20.570411    3.291402    0.070060
 H  -20.233781    6.592652   -2.626664
 H  -22.227992    5.821077   -3.813702
 H  -24.528867    3.248650   -4.962751
 H  -24.181029    4.974904   -4.703201
 H  -22.856270    3.839483   -5.097206
 H  -28.592930    3.279357    1.087371
 H  -24.858257    3.795953   -0.976859
 H  -25.590292    4.194460   -2.910793
 H  -28.170708    7.276856   -3.397481
 H  -24.951127    0.032966    0.110140
 H  -21.315239   -1.153243   -0.075717
 H  -22.611952   -1.355463    1.126945
 H  -22.867038   -1.885411   -0.548765
