40 
6n7d_ligand_xtb.xyz
 C    3.810783   -0.481601   -0.738103
 C   -1.330038   -2.633760   -0.076209
 C    3.176520    0.728501   -0.732564
 C    2.039540    0.902494    0.089610
 C   -3.152295    0.488458   -0.315478
 C    1.356636    2.144262    0.023610
 C   -0.077228    2.435785    0.069312
 C   -0.134002    3.826443   -0.093254
 C   -2.388603    1.735864   -0.265062
 C   -4.533638    0.337420   -0.524355
 C   -2.672522   -0.824419   -0.239680
 N    1.970638    3.319369   -0.157740
 N   -1.063694    1.512189    0.073457
 C    3.320904   -1.569293    0.079962
 N   -4.901506   -0.931132   -0.570519
 O   -2.847899    2.830676   -0.496303
 N   -1.455106   -1.332270   -0.067195
 C   -2.422323   -3.510390   -0.241754
 C   -3.671053   -2.978362   -0.404907
 N   -3.794343   -1.639423   -0.408039
 N    1.112041    4.280550   -0.086459
 C    1.612577   -0.160365    0.958030
 O    0.586262    0.167967    1.802621
 C    0.266557   -0.719385    2.846213
 C    4.942449   -1.090225   -1.391312
 N    5.036611   -2.325430   -0.989545
 N    4.021819   -2.656794   -0.200547
 C    2.231996   -1.380858    0.949707
 H   -0.325708   -3.013877    0.047817
 H    3.468889    1.540698   -1.379709
 H   -0.989646    4.468112   -0.088352
 H   -5.259164    1.117802   -0.637758
 H   -0.800847    0.564158    0.338547
 H   -2.273296   -4.576230   -0.239665
 H   -4.573990   -3.554656   -0.537614
 H   -0.164470   -1.650402    2.464121
 H    1.143471   -0.947524    3.458583
 H   -0.474354   -0.201723    3.453683
 H    5.658193   -0.643529   -2.051729
 H    1.941267   -2.184809    1.605049
