40 
6n7d_ligand_dft.xyz
 C    4.366761   -0.344479   -0.396602
 C   -2.270092   -2.700081   -0.591318
 C    3.646167    0.785211   -0.336748
 C    2.247450    0.718715    0.119854
 C   -3.300660    0.733107   -0.025990
 C    1.507735    1.860259   -0.020099
 C    0.087082    2.247266    0.068904
 C    0.106649    3.596930   -0.082010
 C   -2.306378    1.816462    0.061090
 C   -4.695229    0.914251    0.006448
 C   -3.139484   -0.634800   -0.235239
 N    2.237768    3.071322   -0.281340
 N   -0.994761    1.396268    0.126792
 C    3.833736   -1.619724    0.050424
 N   -5.383970   -0.210729   -0.154530
 O   -2.638142    2.989850    0.064678
 N   -2.052885   -1.423636   -0.372719
 C   -3.562509   -3.280781   -0.677185
 C   -4.649980   -2.470532   -0.525520
 N   -4.428764   -1.152324   -0.307022
 N    1.429681    4.043451   -0.270417
 C    1.769291   -0.564482    0.676646
 O    0.568062   -0.471781    1.286307
 C    0.105050   -1.585678    2.024964
 C    5.701231   -0.733364   -0.835766
 N    5.879393   -2.002087   -0.667906
 N    4.696381   -2.576133   -0.098183
 C    2.517894   -1.690952    0.629727
 H   -1.389632   -3.327116   -0.710500
 H    4.012839    1.752614   -0.656475
 H   -0.714040    4.292943   -0.095204
 H   -5.216890    1.851221    0.142750
 H   -0.804751    0.402274    0.197146
 H   -3.685579   -4.340448   -0.858473
 H   -5.687135   -2.778981   -0.566783
 H   -0.056299   -2.452756    1.376125
 H    0.818310   -1.840003    2.817133
 H   -0.845220   -1.277459    2.459961
 H    6.474298   -0.101627   -1.255457
 H    2.186556   -2.632093    1.049703
