49 
6n7y_ligand_xtb.xyz
 C   -0.321723   -1.485165   -0.293891
 C   -0.864218   -2.738759    0.025712
 N   -0.153478   -3.860190    0.121196
 C    1.130616   -3.717821   -0.087124
 N    1.781445   -2.599053   -0.400593
 C    1.077248   -1.471436   -0.529323
 C   -3.778649    1.240895    0.054154
 C   -4.959648    1.950875    0.097484
 C   -6.190666    1.301868    0.112479
 C   -7.461216    2.091533    0.163429
 C   -6.201295   -0.086954    0.089572
 C   -5.023601   -0.805273    0.046400
 C   -3.788793   -0.156508    0.022136
 C   -2.555767   -0.915691   -0.035736
 S   -2.571819   -2.646536    0.274913
 C   -1.300127   -0.463159   -0.319660
 N    1.682462   -0.343901   -0.940352
 C    3.099921   -0.186996   -1.118116
 P    4.037707   -0.489960    0.468680
 O    2.927271   -0.134824    1.594949
 O    4.212660   -2.054186    0.532721
 O    5.294199    0.229553    0.666337
 C    3.414563    1.207664   -1.666315
 C    2.740191    2.268383   -0.842709
 C    3.348756    2.777112    0.297800
 C    2.688874    3.698584    1.092477
 C    1.413999    4.124974    0.759088
 C    0.806580    3.639302   -0.385541
 C    1.466559    2.718167   -1.181991
 H    1.739537   -4.607097    0.003394
 H   -2.839969    1.773436    0.058751
 H   -4.931350    3.031012    0.123015
 H   -7.481400    2.833278   -0.633578
 H   -8.327819    1.443752    0.061108
 H   -7.536423    2.622576    1.112134
 H   -7.144354   -0.613935    0.104147
 H   -5.052163   -1.884911    0.024862
 H   -1.080434    0.564026   -0.549929
 H    1.171898    0.517776   -0.798660
 H    3.454764   -0.950636   -1.822412
 H    3.315213    0.479517    2.218153
 H    3.385154   -2.504391    0.233857
 H    3.082155    1.270989   -2.705354
 H    4.497075    1.334740   -1.629346
 H    4.345779    2.454068    0.553024
 H    3.173649    4.089817    1.974717
 H    0.900054    4.841336    1.382339
 H   -0.180457    3.980694   -0.662742
 H    0.996916    2.366017   -2.092039
