49 
6n82_ligand_dft.xyz
 C    4.456192   -0.638757    0.413189
 C    5.584666    0.167557    0.467025
Cl    6.964908   -0.412661    1.374649
 C    5.647243    1.414047   -0.163284
 C    6.870106    2.286151   -0.095874
 C    4.509624    1.813135   -0.869473
 C    3.374650    1.019504   -0.947139
 C    3.329104   -0.218346   -0.298020
 C    2.111468   -1.041034   -0.353779
 S    2.200784   -2.793842   -0.287889
 C    0.828883   -0.596687   -0.463640
 C   -0.122712   -1.664419   -0.484614
 C    0.468927   -2.922909   -0.389822
 N   -0.187196   -4.094262   -0.388677
 C   -1.495548   -3.964863   -0.462452
 N   -2.209251   -2.823809   -0.544025
 C   -1.537575   -1.666497   -0.577730
 N   -2.212421   -0.502244   -0.728639
 C   -3.653300   -0.374951   -0.821544
 P   -4.523216   -0.745162    0.770390
 O   -4.608295   -2.335577    0.779876
 O   -3.387776   -0.332714    1.855442
 O   -5.814584   -0.052863    0.972128
 C   -4.022530    1.018495   -1.374647
 C   -3.345853    2.156728   -0.644696
 C   -2.106581    2.626076   -1.091699
 C   -1.458008    3.625368   -0.381037
 F   -0.260175    4.048774   -0.816696
 C   -2.004898    4.192421    0.758096
 C   -3.245279    3.729411    1.190348
 C   -3.911398    2.719029    0.503354
 H    4.455656   -1.585270    0.944294
 H    7.738175    1.785649   -0.537904
 H    7.128871    2.521077    0.942005
 H    6.705409    3.225291   -0.630042
 H    4.523003    2.771716   -1.380487
 H    2.523811    1.356731   -1.530727
 H    0.577805    0.458032   -0.496739
 H   -2.080727   -4.880288   -0.446807
 H   -1.733812    0.331857   -0.415751
 H   -4.014636   -1.126892   -1.531526
 H   -3.824608   -2.718457    0.305104
 H   -3.807504    0.059932    2.633096
 H   -3.739507    1.041656   -2.432116
 H   -5.109069    1.122636   -1.315585
 H   -1.646936    2.231439   -1.993769
 H   -1.469825    4.976609    1.281847
 H   -3.695869    4.165049    2.076795
 H   -4.872176    2.353102    0.854372
