49 
6n83_ligand_xtb.xyz
 C   -3.551683    0.745494    0.269011
 C   -4.717620    1.478109    0.366102
Cl   -4.602010    3.164034    0.746728
 C   -5.972633    0.903792    0.171148
 C   -7.219059    1.720850    0.272420
 C   -6.008864   -0.454532   -0.119970
 C   -4.854868   -1.204460   -0.220084
 C   -3.603215   -0.616724   -0.034122
 C   -2.388247   -1.397726   -0.156226
 S   -2.470582   -3.154149   -0.160592
 C   -1.107374   -0.947096   -0.286362
 C   -0.159045   -1.992264   -0.395274
 C   -0.752821   -3.264403   -0.338192
 N   -0.082776   -4.408048   -0.415138
 C    1.216831   -4.275416   -0.553908
 N    1.910844   -3.149080   -0.623379
 C    1.248404   -1.996618   -0.546901
 N    1.942219   -0.841147   -0.683507
 C    3.372097   -0.830320   -0.581899
 P    3.821949   -0.564282    1.192781
 O    2.805652    0.589678    1.637330
 O    3.178659   -1.825004    1.952264
 O    5.222923   -0.324767    1.551078
 C    4.024209    0.219915   -1.482763
 C    3.664709    1.608764   -1.043626
 C    2.452053    2.172006   -1.422943
 C    2.116822    3.429549   -0.957839
 F    0.928756    3.957938   -1.322309
 C    2.953520    4.156759   -0.132359
 C    4.166572    3.595038    0.227347
 C    4.519611    2.333610   -0.221375
 H   -2.607262    1.235488    0.441302
 H   -8.099192    1.104903    0.110921
 H   -7.205479    2.520098   -0.467940
 H   -7.286922    2.186693    1.254746
 H   -6.966092   -0.930631   -0.272958
 H   -4.915056   -2.257246   -0.451513
 H   -0.848256    0.095556   -0.323292
 H    1.791135   -5.190008   -0.617716
 H    1.483078    0.004200   -0.376329
 H    3.717601   -1.831436   -0.861697
 H    3.208393    1.112862    2.331662
 H    3.812288   -2.535591    2.047052
 H    3.701146    0.046365   -2.511540
 H    5.104162    0.082911   -1.419084
 H    1.776049    1.652058   -2.085076
 H    2.657034    5.136058    0.207484
 H    4.841924    4.147443    0.862608
 H    5.464609    1.903584    0.071212
