52 
6n8x_ligand_dft.xyz
 C   -3.031937    0.344874   -0.485159
 C   -3.611389   -0.396038    0.536929
 C   -4.952344   -0.769598    0.342851
 C   -1.617188   -0.012683    1.163996
 N   -5.575710   -0.392863   -0.781094
 N   -3.617996    0.729894   -1.624442
 C    1.252610    4.608326   -0.491784
 C    0.810986    3.266213   -1.070803
 C   -0.356364    2.651099   -0.300520
 C   -0.751037    1.294948   -0.878050
 N   -1.742906    0.588139   -0.077392
 C   -4.880745    0.318173   -1.681126
 N   -5.628341   -1.521695    1.245856
 N   -2.714115   -0.614105    1.560493
 C   -0.366644    0.028630    1.992495
 C    0.889214   -0.350997    1.235811
 C    1.977174    0.515773    1.204263
 C    0.923594   -1.553599    0.531797
 C    2.048159   -1.881150   -0.227215
 O    2.185935   -3.019628   -0.944522
 C    1.096498   -3.915929   -0.972748
 C    3.137075   -0.999163   -0.289880
 O    4.205618   -1.283878   -1.087618
 C    5.217139   -2.035913   -0.437634
 C    3.105160    0.191724    0.443465
 O    4.210215    0.968283    0.339356
 C    4.219423    2.199872    1.024803
 H    0.439414    5.341705   -0.528849
 H    1.552408    4.503596    0.558532
 H    2.102788    5.020770   -1.044413
 H    1.653716    2.561527   -1.058017
 H    0.530940    3.392820   -2.124449
 H   -1.225258    3.320496   -0.317127
 H   -0.066171    2.536264    0.750725
 H    0.129204    0.656418   -0.991362
 H   -1.205265    1.421478   -1.864530
 H   -5.432305    0.594970   -2.576651
 H   -5.236274   -1.636513    2.166747
 H   -6.626849   -1.597013    1.132972
 H   -0.541517   -0.658645    2.825984
 H   -0.246927    1.027393    2.429333
 H    1.931640    1.447940    1.756205
 H    0.061527   -2.210723    0.567809
 H    0.866899   -4.303736    0.027871
 H    0.199584   -3.443535   -1.392304
 H    1.405100   -4.739911   -1.616768
 H    5.626006   -1.485749    0.418791
 H    4.831391   -3.006446   -0.102842
 H    6.005811   -2.194952   -1.175416
 H    3.417145    2.862416    0.674876
 H    4.126185    2.060394    2.109621
 H    5.183846    2.657853    0.802633
