47 
6n96_ligand_xtb.xyz
 C    1.875104   -2.025707   -0.765274
 C    2.933505   -0.183279   -0.126483
 C    4.173993   -0.747968   -0.469437
 C    4.154193   -2.055653   -0.988845
 N    2.972864   -2.665730   -1.125847
 O   -1.964773   -0.647641    0.232889
 O   -1.654320   -1.800983   -2.004657
 P   -2.745171   -1.368643   -0.981678
 O   -3.906250   -0.589391   -1.424453
 O   -3.122432   -2.794074   -0.401707
 P   -1.988892   -1.325021    1.712624
 O   -3.337975   -1.658146    2.137817
 O   -0.967542   -2.535359    1.569949
 O   -1.236653   -0.304662    2.626171
 C    0.156008   -0.031687    2.522359
 C    0.389284    1.368833    1.950456
 O    1.762938    1.704789    2.075145
 C    2.318299    2.087346    0.842746
 C    1.147678    2.380635   -0.110429
 O    0.845896    3.739753   -0.034483
 C    0.040021    1.476399    0.462767
 O   -1.248631    2.014631    0.297404
 P   -1.916759    1.857288   -1.136438
 O   -1.369410    0.779896   -1.983027
 O   -3.450941    1.878602   -0.899467
 O   -1.601460    3.311359   -1.735412
 N    3.214704    1.077159    0.335457
 C    4.580913    1.192997    0.259001
 N    5.180701    0.148847   -0.212655
 N    5.266890   -2.710775   -1.351213
 N    1.762665   -0.809923   -0.261220
 H    0.945701   -2.562100   -0.902398
 H   -1.259347   -0.993640   -2.366878
 H   -3.953758   -2.754688    0.078471
 H   -1.355608   -3.281307    1.109439
 H    0.561135   -0.070323    3.537504
 H    0.657011   -0.770980    1.894899
 H   -0.208837    2.095510    2.516433
 H    2.912062    2.996094    1.002511
 H    1.389410    2.090499   -1.143896
 H   -0.059370    3.866865   -0.354605
 H    0.107802    0.497343   -0.020831
 H   -3.811568    0.967506   -1.049221
 H   -1.978721    3.434569   -2.605285
 H    5.084386    2.089081    0.564118
 H    5.188592   -3.640350   -1.722257
 H    6.157104   -2.257182   -1.257772
