47 
6n96_ligand_dft.xyz
 C    2.096908   -1.882792   -1.162280
 C    3.047621   -0.114762   -0.234918
 C    4.319802   -0.547443   -0.584397
 C    4.389122   -1.767732   -1.285073
 N    3.251800   -2.422532   -1.564816
 O   -1.712344   -1.508974   -0.154855
 O   -2.787151   -1.020373   -2.362679
 P   -3.175281   -1.237826   -0.862179
 O   -3.902156   -0.147892   -0.166600
 O   -3.878783   -2.653551   -0.867681
 P   -1.612071   -2.100257    1.351704
 O   -2.872800   -2.761821    1.739286
 O   -0.313140   -3.029947    1.274259
 O   -1.139170   -0.907095    2.258987
 C    0.227578   -0.452247    2.336208
 C    0.322258    1.029907    1.996963
 O    1.697879    1.357354    2.191895
 C    2.266166    1.953950    1.055247
 C    1.104045    2.387901    0.153915
 O    0.820908    3.707290    0.536984
 C   -0.017385    1.401442    0.547090
 O   -1.312952    2.005651    0.514449
 P   -2.039220    2.295908   -0.871995
 O   -1.680241    1.377727   -1.987151
 O   -3.553229    2.433553   -0.494377
 O   -1.570993    3.810731   -1.167712
 N    3.240829    1.080872    0.423042
 C    4.607460    1.275727    0.435566
 N    5.290336    0.338097   -0.157422
 N    5.561594   -2.300486   -1.676567
 N    1.897777   -0.746673   -0.498996
 H    1.200322   -2.445179   -1.409758
 H   -2.367883   -0.121632   -2.450674
 H   -3.972343   -2.954173    0.060921
 H   -0.514805   -3.901546    0.907326
 H    0.554538   -0.615090    3.364509
 H    0.864734   -1.017548    1.655512
 H   -0.293558    1.628776    2.675718
 H    2.816721    2.845876    1.363823
 H    1.355909    2.307771   -0.911516
 H    0.019166    3.996338    0.076074
 H    0.001829    0.530102   -0.107814
 H   -3.911436    1.521650   -0.305486
 H   -1.614089    4.016353   -2.111891
 H    5.032670    2.152817    0.906826
 H    5.558783   -3.154287   -2.210148
 H    6.423628   -1.807475   -1.511441
