28 
6n9h_ligand_dft.xyz
 N  -14.922984   14.809440   -2.032575
 C  -14.890505   14.348333   -3.419825
 C  -16.024911   13.331010   -3.625328
 C  -16.075582   12.870249   -5.090547
 C  -15.135875   15.552899   -4.343215
 C  -15.181995   15.103910   -5.812362
 C  -16.321215   14.087919   -5.996555
 C  -13.845150   14.446012   -6.191986
 C  -13.555658   13.684443   -3.822514
 C  -13.596179   13.226486   -5.289602
 C  -14.738301   12.213339   -5.470515
 H  -14.740540   14.021588   -1.413014
 H  -14.160680   15.467827   -1.879982
 H  -15.865191   12.466378   -2.964527
 H  -16.973668   13.793799   -3.328229
 H  -16.890090   12.146983   -5.216587
 H  -16.076417   16.036107   -4.052542
 H  -14.334161   16.292364   -4.201020
 H  -15.358706   15.975624   -6.453709
 H  -16.376396   13.770798   -7.046263
 H  -17.283658   14.553475   -5.747630
 H  -13.863958   14.136754   -7.245263
 H  -13.025425   15.168428   -6.082233
 H  -12.734336   14.399651   -3.670571
 H  -13.362972   12.826599   -3.162064
 H  -12.640940   12.758170   -5.556216
 H  -14.560520   11.330382   -4.842297
 H  -14.771985   11.867030   -6.511830
