42 
6n9l_ligand_xtb.xyz
 P    0.456106   -2.075354   -0.894829
 O    1.091361   -2.725886    0.363823
 O    0.627562   -0.641241   -1.116663
 O    0.978736   -3.005703   -2.057656
 P   -2.112815   -1.881876    0.197461
 O   -3.442902   -2.707416   -0.077567
 O   -1.664926   -1.914772    1.585259
 O   -1.113648   -2.504023   -0.868640
 O   -2.429782   -0.460493   -0.428389
 C   -3.315631    0.370144    0.317713
 C   -2.738311    1.774484    0.512104
 O   -1.655980    1.741554    1.435537
 C   -2.225354    2.425433   -0.783371
 O   -2.586554    3.777437   -0.814847
 C   -0.702150    2.249387   -0.687096
 O   -0.044134    3.327264   -1.282966
 C   -0.469429    2.175125    0.842816
 N    0.609641    1.263249    1.132378
 C    0.580808    0.109093    1.842597
 N    1.682652   -0.586806    1.751982
 C    2.501572    0.144563    0.923841
 C    3.771336   -0.070067    0.363207
 N    4.532064   -1.142503    0.650184
 N    4.254179    0.850464   -0.476647
 C    3.522408    1.909541   -0.766633
 N    2.312945    2.216091   -0.328512
 C    1.827902    1.304281    0.517433
 H    1.315457   -2.046846    1.064786
 H    0.922558   -2.558050   -2.901010
 H   -3.487525   -3.484339    0.479352
 H   -4.261466    0.433348   -0.226595
 H   -3.485339   -0.068749    1.304355
 H   -3.524693    2.406915    0.944103
 H   -2.627541    1.906956   -1.663095
 H   -1.831291    4.255630   -1.191642
 H   -0.406911    1.290964   -1.130310
 H    0.916230    3.174461   -1.159583
 H   -0.192395    3.173805    1.227606
 H   -0.277003   -0.192435    2.408328
 H    5.369131   -1.283170    0.112127
 H    4.118853   -1.911060    1.147426
 H    3.965414    2.611893   -1.459828
