47 
6nco_ligand_xtb.xyz
 C    3.540342    0.825486    0.773681
 C   -1.895910    2.279376   -0.191474
 C   -2.835708    1.265010   -0.209432
 C   -1.056021   -0.338568   -0.128449
 C   -4.390514   -2.474532   -1.605712
 C   -4.602647   -1.016411   -1.180169
 C   -3.878311   -1.305780    1.293970
 C    6.198119    0.057940   -1.228623
 C    5.565489   -0.501004    0.050660
 C    5.841440   -2.006292    0.178004
 C    4.069826   -0.215815    0.021780
 C    3.208212   -0.953455   -0.782091
 C    1.857698   -0.667974   -0.818535
 C    1.325706    0.372519   -0.060615
 C    2.190897    1.117759    0.734640
 C   -0.110564    0.683138   -0.109966
 C   -0.540938    2.006404   -0.143575
 C   -2.415159   -0.061011   -0.186619
 C   -3.444963   -1.155180   -0.169335
 C   -3.071170   -2.505439   -0.823370
 N   -4.959832   -0.932576    1.828871
 N   -2.955255   -1.952232    2.065076
 O    6.195223    0.178677    1.125341
Cl   -2.426797    3.926600   -0.233543
 H    4.200341    1.421017    1.387088
 H   -3.887142    1.502537   -0.236856
 H   -0.714923   -1.363324   -0.090702
 H   -4.309847   -2.646991   -2.676638
 H   -5.140375   -3.145676   -1.192686
 H   -5.584198   -0.784496   -0.769698
 H   -4.374479   -0.302468   -1.969616
 H    7.265933   -0.143060   -1.223828
 H    5.746049   -0.393661   -2.106528
 H    6.047674    1.133572   -1.262314
 H    6.905295   -2.157353    0.348767
 H    5.287432   -2.424361    1.017750
 H    5.560087   -2.539129   -0.724393
 H    3.589076   -1.756504   -1.394498
 H    1.210121   -1.242566   -1.464804
 H    1.801016    1.922316    1.340589
 H    0.174268    2.813287   -0.152795
 H   -2.201073   -2.429944   -1.472956
 H   -2.943288   -3.341052   -0.138673
 H   -5.638659   -0.511315    1.206687
 H   -3.139704   -1.922859    3.054928
 H   -1.989267   -1.896413    1.789305
 H    5.900107   -0.216534    1.953142
