32 
6nfg_ligand_dft.xyz
 C    2.545191    1.288077   -0.586799
 C   -2.488555    0.067562    0.016511
 O   -0.499194   -3.935605   -0.138246
 C   -0.218479   -2.746019   -0.092906
 C    1.027943   -2.051541   -0.084657
 C    1.101427   -0.667166   -0.025337
 C    2.419972    0.018975   -0.013402
 C    3.544277   -0.576540    0.565842
 C    4.770927    0.078434    0.561258
 C    4.889715    1.335553   -0.024248
 C    3.772987    1.938592   -0.597712
 N    0.020163    0.154822    0.007308
 C   -1.154852   -0.447524   -0.007597
 C   -2.942869    1.478725    0.071112
 N   -1.943513    2.387812    0.130007
 C   -2.235462    3.802859    0.198372
 O   -4.134001    1.764902    0.065259
 C   -3.320993   -1.024820   -0.014575
 N   -1.275591   -1.805680   -0.044989
 N   -2.582909   -2.152849   -0.049149
 H    1.671830    1.752569   -1.032178
 H    1.921191   -2.657344   -0.159647
 H    3.455718   -1.545586    1.047725
 H    5.633630   -0.392030    1.023033
 H    5.848194    1.845934   -0.029438
 H    3.859178    2.919175   -1.056232
 H   -0.984938    2.054450    0.141038
 H   -2.793420    4.129697   -0.684864
 H   -2.837113    4.035302    1.082798
 H   -1.294127    4.352563    0.251286
 H   -4.400214   -1.052243   -0.010628
 H   -2.808813   -3.136608   -0.086393
