39 
6nfo_ligand_dft.xyz
 C    4.017795   -0.756293    0.631882
 C   -1.594680    1.497763   -0.123345
 C   -4.049706   -2.162829    0.798449
 C   -1.829219    2.851992   -0.102171
 O    2.022301    4.123625    0.044868
 C    1.719264    2.939959    0.020341
 C    2.501730    1.745670    0.018746
 C    1.925776    0.484380   -0.009511
 C    2.769301   -0.738998    0.003256
 C    2.305494   -1.905484   -0.613144
 C    3.080600   -3.058482   -0.615350
 C    4.325632   -3.065494    0.008627
 C    4.790252   -1.912468    0.634731
 N    0.585895    0.260359   -0.064772
 C   -0.174141    1.338255   -0.074034
 C   -2.636514    0.449403   -0.180703
 N   -2.161045   -0.809869   -0.147506
 C   -2.973680   -2.019379   -0.296568
 O   -5.241893   -1.487638    0.515000
 C   -2.018939   -3.210482   -0.298891
 O   -3.827804    0.761952   -0.249016
 N    0.345066    2.597196   -0.022869
 N   -0.654486    3.509327   -0.040892
 H    4.378468    0.128931    1.146896
 H   -4.309829   -3.223407    0.889024
 H   -3.602758   -1.851651    1.758740
 H   -2.772327    3.376894   -0.126644
 H    3.576181    1.872731    0.010444
 H    1.334988   -1.893686   -1.097591
 H    2.711324   -3.954565   -1.104969
 H    4.929164   -3.968237    0.011060
 H    5.753811   -1.914023    1.134957
 H   -1.150303   -0.916189   -0.087615
 H   -3.502595   -1.966712   -1.256756
 H   -4.991548   -0.577911    0.271230
 H   -1.241610   -3.093777   -1.061733
 H   -1.530253   -3.319771    0.676531
 H   -2.564292   -4.133377   -0.512256
 H   -0.401041    4.487077   -0.019758
