56 
6nfz_ligand_xtb.xyz
 C   -2.045005   -0.583180   -2.400682
 C    6.943655   -0.594183    0.249913
 C    6.069028   -1.656957    0.064234
 C    5.099254    0.996465    0.225417
 C   -0.402920    1.841231   -0.055706
 C    6.446828    0.695431    0.327349
 C    4.222950   -0.060750    0.048472
 C    2.787870   -0.120819   -0.130110
 C    2.443712   -1.556012   -0.244235
 C   -2.870224    1.920861   -0.358175
 C   -0.232270    2.977042    0.886659
 C    1.940258    0.941866   -0.119624
 C   -1.241147    0.237800   -1.444063
 C    4.720515   -1.378668   -0.031324
 C    0.567971    0.937441   -0.475533
 C   -1.632059    1.379843   -0.632780
 N    0.032331    0.006770   -1.340522
 N    3.656192   -2.232830   -0.206520
 N   -4.047266    0.931067   -0.865139
 O    1.375973   -2.126511   -0.267178
 O   -3.277350    2.904976    0.199824
 F    7.325328    1.713784    0.512037
 C   -5.309793    1.148265   -0.162560
 C   -5.213165    0.314590    1.138267
 N   -4.363235   -0.850560    0.902659
 C   -3.259472   -0.973562    1.861173
 C   -5.116292   -2.090389    0.753296
 C   -5.954563   -2.117141   -0.519361
 C   -2.093514   -1.802666    1.336183
 H   -2.742350   -1.255079   -1.897462
 H   -2.589212    0.037949   -3.114590
 H   -1.337911   -1.198762   -2.950857
 H    8.006076   -0.757890    0.333976
 H    6.439854   -2.668291   -0.001269
 H    4.765707    2.019635    0.288016
 H   -0.020583    2.613251    1.893407
 H    0.604964    3.602657    0.577722
 H   -1.133243    3.583311    0.919001
 H    2.344542    1.901454    0.184973
 H    3.724524   -3.236223   -0.251558
 H   -4.113679    0.985651   -1.878710
 H   -6.145070    0.830068   -0.786536
 H   -5.415447    2.210190    0.074060
 H   -6.214550    0.031106    1.474653
 H   -4.768506    0.941780    1.912472
 H   -3.776768   -0.037773   -0.529921
 H   -3.620595   -1.399938    2.809631
 H   -2.887175    0.033281    2.062738
 H   -5.767680   -2.261167    1.625337
 H   -4.398147   -2.909223    0.708937
 H   -6.755795   -1.383370   -0.489307
 H   -5.332946   -1.931718   -1.392384
 H   -6.406372   -3.099471   -0.628868
 H   -2.373161   -2.833802    1.140195
 H   -1.673842   -1.377877    0.429177
 H   -1.305429   -1.811699    2.083447
