56 
6ng0_ligand_xtb.xyz
 C    1.488642   -2.544972    0.542591
 C   -7.498365    0.447907    0.381326
 C   -6.997800   -0.826732    0.150603
 C   -5.261254    1.402947    0.261169
 C    0.171880    0.789225   -0.497256
 C   -6.629981    1.524384    0.430752
 C   -4.757643    0.135117    0.023556
 C   -3.410041   -0.362491   -0.164675
 C   -3.536120   -1.821760   -0.394794
 C    2.661109    0.197563   -0.460251
 C    0.142148    2.188629   -1.016568
 C   -2.293232    0.412784   -0.175816
 C    0.742758   -1.320063    0.160953
 C   -5.635896   -0.968255   -0.026953
 C   -0.934504    0.005205   -0.177831
 C    1.312148   -0.058204   -0.296976
 N   -0.547577   -1.258885    0.227424
 N   -4.894468   -2.099294   -0.268956
 N    3.128160    1.440914   -0.739359
 O   -2.727934   -2.661753   -0.709317
 O    3.544957   -0.773188   -0.320039
 F   -7.146098    2.760156    0.657419
 C    4.452650    1.728368   -1.249733
 C    5.518786    1.771658   -0.141791
 N    5.880525    0.421844    0.282128
 C    6.139647    0.328499    1.718788
 C    6.956045   -0.151375   -0.527220
 C    6.867265   -1.672311   -0.590927
 C    4.845794    0.249917    2.521306
 H    2.071820   -2.912215   -0.299909
 H    2.176278   -2.340063    1.362643
 H    0.771477   -3.301736    0.845633
 H   -8.554394    0.612381    0.524129
 H   -7.659958   -1.677916    0.111994
 H   -4.631407    2.276441    0.314234
 H    0.680451    2.271064   -1.963293
 H   -0.883947    2.495410   -1.202600
 H    0.570057    2.892661   -0.296616
 H   -2.458454    1.484935   -0.145541
 H   -5.274584   -3.023551   -0.390272
 H    2.434752    2.164719   -0.807007
 H    4.413716    2.698907   -1.746243
 H    4.733415    0.975094   -1.995516
 H    5.105951    2.316305    0.709045
 H    6.395711    2.327056   -0.502556
 H    4.466122   -0.408254   -0.153775
 H    6.747866    1.179748    2.060839
 H    6.714258   -0.580404    1.899324
 H    7.940126    0.153426   -0.139915
 H    6.865622    0.244163   -1.541770
 H    6.980612   -2.119855    0.392479
 H    5.908236   -1.981795   -0.997542
 H    7.657469   -2.055238   -1.231176
 H    4.223349    1.128478    2.369138
 H    4.275619   -0.628471    2.231729
 H    5.077840    0.178535    3.580457
