44 
6nji_ligand_xtb.xyz
 C    0.404840    1.918740   -0.286671
 C   -2.021835    1.342442   -0.404068
 C   -3.276192    1.925792   -0.578923
 C   -4.413334    1.144333   -0.608949
 C   -4.331759   -0.235092   -0.465392
 C   -1.934035   -0.037044   -0.251703
 C   -3.080325   -0.808377   -0.282124
 C   -6.166053   -1.145723    0.961392
 C   -5.574460   -1.077457   -0.450657
 C    1.930269   -1.909625   -0.111642
 C    2.186146    0.557621   -0.105899
 C    2.482899    2.788685   -0.190380
 C    3.401291    3.968198   -0.163045
Cl    1.463278   -4.561029   -0.136246
 C    2.485074   -3.170894   -0.007404
 C    3.845714   -3.342354    0.198455
 C    4.658682   -2.224959    0.298148
 C    4.121586   -0.955851    0.196668
 C    2.753256   -0.791894   -0.006348
 N    3.033084    1.581713   -0.093676
 N    0.866951    0.672062   -0.198731
 N    1.188072    3.012212   -0.290552
 C    4.027692    4.116285    1.223393
 N   -0.911976    2.184222   -0.383777
 O   -6.681050    0.123900    1.297119
 H   -3.355104    2.998279   -0.691369
 H   -5.380452    1.606273   -0.733416
 H   -0.967678   -0.486769   -0.107171
 H   -2.996765   -1.879390   -0.162543
 H   -5.382929   -1.446718    1.671718
 H   -6.967658   -1.899641    0.986247
 H   -5.349149   -2.092595   -0.780351
 H   -6.328733   -0.646461   -1.109897
 H    0.873448   -1.781749   -0.277914
 H    2.831946    4.860095   -0.423777
 H    4.190281    3.808650   -0.899831
 H    4.258882   -4.335805    0.277446
 H    5.718934   -2.352505    0.456623
 H    4.741216   -0.076675    0.270951
 H    3.257226    4.296690    1.969730
 H    4.561682    3.207097    1.487814
 H    4.724190    4.951026    1.233227
 H   -1.106498    3.174861   -0.461650
 H   -6.979821    0.113210    2.211433
