44 
6nji_ligand_dft.xyz
 C    0.587057    1.980725   -0.312040
 C   -1.883863    1.556933   -0.468127
 C   -3.077601    2.161200   -0.061643
 C   -4.275404    1.464025   -0.111786
 C   -4.317884    0.141576   -0.561217
 C   -1.912148    0.242318   -0.935410
 C   -3.120643   -0.446065   -0.967864
 C   -6.046839   -1.106662    0.809667
 C   -5.610748   -0.637406   -0.575938
 C    1.693001   -1.973731    0.005997
 C    2.230526    0.456296   -0.135210
 C    2.730144    2.656672   -0.151632
 C    3.761292    3.745584   -0.056576
Cl    0.896144   -4.562278    0.154294
 C    2.102895   -3.296194    0.082011
 C    3.451095   -3.638682    0.102657
 C    4.403088   -2.624786    0.048446
 C    4.013574   -1.293105   -0.026046
 C    2.656947   -0.964490   -0.050766
 N    3.177786    1.392900   -0.085070
 N    0.923171    0.689863   -0.256588
 N    1.457159    3.011463   -0.257991
 C    4.318524    3.852632    1.368324
 N   -0.714667    2.344520   -0.424927
 O   -6.429285    0.028406    1.562836
 H   -3.064572    3.185231    0.304421
 H   -5.190111    1.942677    0.221926
 H   -1.000373   -0.233959   -1.267749
 H   -3.124742   -1.470847   -1.332272
 H   -5.214596   -1.643342    1.289474
 H   -6.888372   -1.809490    0.706677
 H   -5.505908   -1.519202   -1.218759
 H   -6.421772   -0.029308   -0.993883
 H    0.640701   -1.715088   -0.001437
 H    3.303088    4.689148   -0.363025
 H    4.575292    3.509541   -0.750080
 H    3.746733   -4.680513    0.161526
 H    5.457662   -2.881319    0.064663
 H    4.746453   -0.495604   -0.067059
 H    3.524395    4.105910    2.078171
 H    4.765554    2.902860    1.676013
 H    5.085342    4.631070    1.422067
 H   -0.843148    3.345964   -0.386791
 H   -6.514023   -0.234524    2.485371
