43 
6njj_ligand_xtb.xyz
 C    0.433129   -2.464309   -1.242259
 C   -0.794478   -1.743966   -0.754889
 C   -1.978535   -2.431693   -0.502360
 C   -3.063943   -1.698547   -0.047413
 C   -4.374381   -2.392007    0.241489
 C    1.686072   -1.844551   -0.685461
 C    3.937070   -0.605435    0.412665
 C    3.590766   -0.389669   -0.914399
 C    2.037114   -2.063613    0.639943
 C    2.477388   -1.003808   -1.456842
 C    3.154558   -1.455954    1.181047
 O    6.476804   -1.296114   -0.536056
 C   -1.936337    0.279963   -0.106707
 C   -1.992921    1.728429    0.130032
 C    5.163582    0.044447    0.986198
 C   -3.010941    2.244670    0.932302
 C   -3.089775    3.602025    1.176343
 C   -1.157309    3.956768   -0.177730
 C   -0.784012   -0.371106   -0.548661
 C   -2.161883    4.471173    0.626342
 C   -1.063014    2.600398   -0.432398
 C    6.438409   -0.551736    0.395093
 O    7.568630   -0.153059    1.010203
 N   -3.056390   -0.395027    0.144891
 F   -4.189060   -3.614945    0.772136
 F   -5.150501   -1.717563    1.090206
 F   -5.095238   -2.582519   -0.879741
Cl    0.003700    5.028286   -0.883481
 H    0.449908   -2.414619   -2.334823
 H    0.370477   -3.516297   -0.956823
 H   -2.053365   -3.498671   -0.641637
 H    4.198813    0.258581   -1.526973
 H    1.431270   -2.716074    1.252065
 H    2.221609   -0.827554   -2.492051
 H    3.415700   -1.643587    2.212803
 H    5.185616   -0.072214    2.073169
 H    5.169426    1.114358    0.752004
 H   -3.730899    1.561270    1.352854
 H   -3.879690    3.992821    1.799319
 H    0.128341    0.179557   -0.711212
 H   -2.216712    5.532275    0.811664
 H   -0.280481    2.241331   -1.081325
 H    7.408201    0.452906    1.745321
