27 
6nmb_ligand_xtb.xyz
 C    1.166107   -0.021133    0.338506
 C    0.472182   -1.083189   -0.536940
 C   -0.960790   -0.662200   -0.895660
 C   -1.556075    0.176331    0.237314
 C   -0.803199    1.518291    0.330335
 C    0.675366    1.367233   -0.063989
 C   -3.047378    0.444314    0.039332
 C    2.675230   -0.274038    0.241916
 N   -3.835549   -0.813515    0.224925
 O    3.186492   -1.165739    0.850611
 O    3.380023    0.504971   -0.580301
 H    0.916909   -0.194818    1.389442
 H    0.471300   -2.032288   -0.001519
 H    1.040679   -1.234299   -1.455974
 H   -1.546006   -1.565061   -1.092891
 H   -0.961630   -0.068459   -1.810724
 H   -1.423751   -0.366022    1.179014
 H   -0.874219    1.896647    1.349965
 H   -1.274170    2.250051   -0.327337
 H    0.775130    1.501397   -1.143899
 H    1.253600    2.145885    0.435197
 H   -3.232787    0.820455   -0.968116
 H   -3.399465    1.183029    0.760800
 H   -4.831188   -0.674325    0.015221
 H   -3.452619   -1.535179   -0.403977
 H   -3.742557   -1.148679    1.192651
 H    2.868841    1.208759   -0.999687
