48 
6nng_ligand_xtb.xyz
 C   -4.939699   -3.604281    0.006706
 C    1.001904    2.805651   -0.006172
 C    2.163519    1.035129    0.006815
 C    3.272183    0.171755    0.003742
 C    4.585389    0.730772   -0.010673
 C    5.643009   -0.119719   -0.024003
 C    7.616535   -0.960246   -0.042931
 C    6.722291   -2.096410   -0.032385
 C    5.454235   -1.560314   -0.020884
 C    4.143652   -2.092844   -0.003631
 C    3.084677   -1.236646    0.010300
 C   -4.121646   -1.332000   -0.015036
 C    0.118593    1.632884    0.049333
 C   -3.625942    1.049932   -0.014789
 C   -4.545287    0.026456   -0.035145
 C   -6.399292    1.502793   -0.093154
 C   -2.738839   -1.611353    0.023137
 C   -0.975571   -3.217303    0.066567
 C   -1.831587   -0.567496    0.042698
 C   -2.255872    0.762418    0.027112
 C   -1.301339    1.846769    0.056533
 C   -0.935411    4.135106    0.053209
 C    0.438287    4.080505   -0.010877
 N   -1.762167    3.081416    0.061654
 N    2.260982    2.379727   -0.023172
 N    7.003179    0.180146   -0.039054
 N    0.862580    0.550845    0.052025
 O   -5.142263   -2.210137   -0.037541
 O   -2.353611   -2.926214    0.037836
 O   -5.892329    0.189236   -0.071677
 H   -4.377599   -3.958334   -0.859598
 H   -4.422259   -3.908151    0.918663
 H   -5.941140   -4.034109   -0.006215
 H    4.694139    1.803267   -0.012067
 H    8.691257   -1.012141   -0.053272
 H    7.014731   -3.129159   -0.033258
 H    3.999290   -3.163887   -0.002275
 H    2.069637   -1.601385    0.024157
 H   -3.915837    2.086298   -0.024872
 H   -6.111371    2.058400    0.804505
 H   -6.062194    2.048102   -0.979941
 H   -7.482366    1.396848   -0.122359
 H   -0.464562   -2.824900   -0.817533
 H   -0.500690   -2.821535    0.969141
 H   -0.911999   -4.304673    0.070050
 H   -0.770989   -0.749867    0.070066
 H   -1.445444    5.089892    0.091729
 H    1.048278    4.967957   -0.044873
