73 
6np2_ligand_dft.xyz
 C    3.484439   -0.369183    0.133875
 C   -0.897203    2.714968    0.375593
 C   -2.557643   -0.184146   -0.980517
 C    3.465994   -1.697620    0.901039
 C    0.412360    3.503529    0.231406
 C   -4.056389    0.125264   -1.151432
 C    4.259056   -2.744604    0.119241
 C    1.562728    2.682191    0.844658
 C   -4.910815   -0.426645    0.000664
 C    5.512009   -2.147197   -0.468188
 C    1.699568    1.288846    0.205875
 C   -4.590020   -1.932596    0.183631
 C    5.725564   -0.832565   -0.517935
 C    0.375622    0.518757    0.386085
 C   -3.073935   -2.064913    0.400814
 C    6.921122   -0.094671   -1.081725
 C   -0.794058    1.314606   -0.236287
 C   -5.308007   -2.601261    1.357785
 C   -7.327049    0.037378    0.761500
 N   -2.069888    3.411599   -0.271467
 N    4.071751   -1.499874    2.276163
 N    2.871397    3.426524    0.713058
 N   -6.368128   -0.264928   -0.361698
 N    8.032798   -0.994625   -1.543545
 O    2.803792    0.640353    0.843665
 O   -4.220392    1.539634   -1.257846
 O   -4.993922   -2.470573   -1.060517
 O    4.816586    0.097027   -0.024580
 O    0.548607   -0.715189   -0.245824
 O   -2.283728   -1.494415   -0.654076
 O   -2.037238    0.709635    0.009967
 H    3.023750   -0.543965   -0.844962
 H   -1.171249    2.613132    1.430352
 H   -2.050083    0.005074   -1.932577
 H    2.429831   -1.999897    1.060348
 H    0.619196    3.693425   -0.831043
 H    0.334648    4.473613    0.734914
 H   -4.366059   -0.373081   -2.076228
 H    4.500065   -3.609428    0.748898
 H    3.621633   -3.142110   -0.679194
 H    1.415285    2.564274    1.923245
 H   -4.736062    0.137365    0.920552
 H    6.233330   -2.849844   -0.873222
 H    1.906328    1.383641   -0.870402
 H    0.177566    0.397738    1.463777
 H   -2.795995   -1.613084    1.361318
 H   -2.800905   -3.120876    0.414547
 H    6.625460    0.507094   -1.945643
 H    7.347827    0.575972   -0.330479
 H   -0.610246    1.391836   -1.320773
 H   -6.378180   -2.707308    1.160529
 H   -4.920443   -3.615030    1.504165
 H   -5.170725   -2.057649    2.297132
 H   -7.249892   -0.731130    1.526701
 H   -8.336964    0.052661    0.349405
 H   -7.076258    1.014460    1.174035
 H   -1.837290    3.827561   -1.181766
 H   -2.449025    4.169779    0.310698
 H   -2.838648    2.716206   -0.439237
 H    3.970868   -2.348454    2.849826
 H    3.617859   -0.732969    2.785928
 H    5.076792   -1.290955    2.228935
 H    3.046261    3.770837   -0.240243
 H    3.646067    2.795008    0.962053
 H    2.921943    4.243498    1.338435
 H   -6.635707   -1.133073   -0.854306
 H   -6.466983    0.491376   -1.045694
 H    7.755504   -1.608513   -2.321131
 H    8.823949   -0.432127   -1.891456
 H    8.410253   -1.588308   -0.793148
 H   -4.499179    1.774957   -2.154640
 H   -5.073951   -3.435591   -1.022846
 H   -0.295769   -1.209597   -0.267166
