26 
6npm_ligand_xtb.xyz
 C   -3.032681   -0.028461   -0.018929
 C   -3.933926    1.038375   -0.027102
 C   -5.292688    0.791710   -0.034835
 C   -5.766013   -0.511415   -0.034421
 C   -4.874963   -1.573344   -0.027772
 C   -3.513882   -1.339292   -0.020436
 C    4.292392   -1.058673   -0.082157
 C    3.213139   -0.030942   -0.008624
 C    3.578280    1.316995    0.061094
 C    1.418623    2.007876    0.108170
 C    0.927309    0.697375    0.029589
 C    1.858835   -0.341853   -0.030239
 C   -0.456481    0.440813    0.008038
 C   -1.644295    0.219861   -0.006224
 N    2.702574    2.301059    0.122274
 O    5.383111   -0.825876   -0.520970
 O    3.982208   -2.280627    0.389339
 H   -3.557290    2.050710   -0.027641
 H   -5.987559    1.618410   -0.040640
 H   -6.829258   -0.699420   -0.039281
 H   -5.244641   -2.588246   -0.027947
 H   -2.814262   -2.162468   -0.015124
 H    4.623362    1.592411    0.071186
 H    0.735885    2.845781    0.154160
 H    1.502873   -1.360440   -0.128664
 H    3.088429   -2.326279    0.754178
