35 
6npp_ligand_dft.xyz
 C    3.534808    0.807177    0.028808
 C    5.895931    0.315177    0.086570
 C   -1.314176    1.835097    0.984912
 C   -0.649888    2.990754    0.676655
 C    0.002202    2.784650   -0.573350
 C    3.250257   -0.566768    0.034588
 C   -3.949458    0.518272   -0.154526
 C   -2.970175   -0.621648   -0.040886
 C   -3.459850   -1.929170   -0.006654
 C   -2.584861   -3.009444   -0.027403
 C   -1.216011   -2.788894   -0.057228
 C   -0.700374   -1.485826   -0.057014
 C   -1.590804   -0.393943   -0.059289
 C   -0.282061    1.507412   -0.978970
 C    0.706204   -1.255730   -0.025209
 C    1.885605   -0.989171    0.006031
 C    4.300486   -1.493300    0.066377
 C    5.616757   -1.049623    0.092024
 C    4.854160    1.240092    0.054912
 N   -1.086857    0.925004   -0.026605
 O   -3.918728    1.352841   -1.013491
 O   -4.935925    0.508282    0.772515
 H    2.711652    1.515602    0.002719
 H    6.926055    0.658072    0.107020
 H   -1.916211    1.563104    1.839729
 H   -0.633490    3.888591    1.277913
 H    0.595208    3.502449   -1.122635
 H   -4.533055   -2.100089   -0.010942
 H   -2.971931   -4.023033   -0.023921
 H   -0.522523   -3.622998   -0.063057
 H   -0.001757    0.960309   -1.866064
 H    4.075433   -2.555053    0.070775
 H    6.427786   -1.771059    0.116668
 H    5.070786    2.303993    0.050918
 H   -4.755242   -0.174596    1.432832
