35 
6npp_ligand_xtb.xyz
 C    3.609729    0.854956    0.092150
 C    5.938044    0.275038    0.135400
 C   -1.591712    1.922796    0.807138
 C   -0.919650    3.078971    0.545606
 C   -0.046804    2.817731   -0.533896
 C    3.276763   -0.501100    0.037332
 C   -3.981127    0.396659   -0.118193
 C   -2.943822   -0.678417   -0.022919
 C   -3.357179   -2.008448    0.014725
 C   -2.428443   -3.033995   -0.023038
 C   -1.079786   -2.740605   -0.075961
 C   -0.640542   -1.416557   -0.088276
 C   -1.581710   -0.367996   -0.075582
 C   -0.205934    1.507379   -0.874847
 C    0.738711   -1.128124   -0.067357
 C    1.918301   -0.873412   -0.012075
 C    4.287328   -1.463670    0.032153
 C    5.610723   -1.070817    0.080701
 C    4.936490    1.234079    0.140976
 N   -1.153547    0.958309   -0.057263
 O   -3.969158    1.266577   -0.939332
 O   -4.990159    0.291480    0.771991
 H    2.819654    1.591803    0.095307
 H    6.974296    0.576664    0.173577
 H   -2.323444    1.704481    1.560514
 H   -1.035333    4.011149    1.061742
 H    0.612859    3.520322   -1.003937
 H   -4.413201   -2.241175    0.028922
 H   -2.759343   -4.061005   -0.010830
 H   -0.346125   -3.532537   -0.094754
 H    0.249112    0.933529   -1.656932
 H    4.024861   -2.510862   -0.010699
 H    6.392187   -1.816656    0.076214
 H    5.193530    2.282300    0.183612
 H   -4.875968   -0.457434    1.372613
