53 
6nri_ligand_dft.xyz
 O    2.779222   -1.449591    2.571320
 C    2.584044   -1.671534    1.385465
 N    3.629190   -1.882738    0.508827
 C    3.587863   -1.505002   -0.903183
 C    4.370924   -0.241242   -1.111945
 N    4.350252    0.545498   -2.152287
 N    5.231804    1.571416   -1.901052
 C    5.756447    1.369600   -0.716658
 C    6.751907    2.234031   -0.036751
 C    8.018399    2.650332   -0.746944
 C    7.110591    3.559933   -0.646237
 N    5.249122    0.220294   -0.173050
 C    5.488600   -0.395866    1.124192
 C    4.972447   -1.833501    1.071713
 C    1.189330   -1.793354    0.850056
 C    0.821526   -2.783927   -0.062749
 C   -0.499862   -2.901926   -0.468050
 C    0.210540   -0.944539    1.369017
 C   -1.105686   -1.044428    0.945842
 C   -1.480303   -2.021153    0.009035
 C   -2.851731   -2.178785   -0.473702
 C   -3.855676   -1.297751   -0.444752
 C   -5.249201   -1.529193   -0.942354
 O   -5.671911   -2.548838   -1.446640
 O   -3.756429   -0.014113    0.054877
 C   -4.983075    0.589316   -0.086976
 C   -5.272311    1.895234    0.295209
 C   -4.315414    2.885111    0.902745
 O   -4.712350    3.958670    1.324537
 N   -3.007280    2.516657    0.952832
 C   -5.927339   -0.253113   -0.664527
 C   -7.230514    0.181859   -0.877867
 C   -7.556484    1.477690   -0.493952
 C   -6.590876    2.307504    0.079947
 H    2.561242   -1.346542   -1.231137
 H    4.008478   -2.317841   -1.508397
 H    6.759972    2.124516    1.051775
 H    8.968625    2.303123   -1.118417
 H    6.728630    4.541839   -0.871766
 H    4.956993    0.158600    1.903444
 H    6.559846   -0.377914    1.343084
 H    5.623653   -2.446227    0.438183
 H    4.949728   -2.254928    2.075892
 H    1.566913   -3.478100   -0.439973
 H   -0.779800   -3.683352   -1.168871
 H    0.494308   -0.212011    2.117455
 H   -1.854340   -0.383581    1.366992
 H   -3.115686   -3.123734   -0.943733
 H   -2.352135    3.214093    1.271480
 H   -2.660100    1.694900    0.483065
 H   -7.958139   -0.484228   -1.330226
 H   -8.563670    1.852786   -0.639995
 H   -6.839274    3.319925    0.382041
