53 
6nsq_ligand_dft.xyz
 C   -0.532363   -1.024731    0.009889
 C   -3.039098    0.112628   -0.130078
 N   -4.294090    0.667456   -0.251496
 C   -5.813442   -1.140027    0.516898
 C    7.723356    0.590498    1.461348
 C    5.529638    1.245203    1.277357
 C   -5.567504    0.121030   -0.037845
 C    6.532528   -3.988824   -0.504990
 C    6.837020   -2.694489   -1.250132
 C    4.292354   -0.406425   -0.402065
 C    2.952609    0.059373   -0.501147
 C    1.841713    0.541962   -0.525216
 C    0.547702    1.146773   -0.573878
 C   -0.613386    0.354305   -0.316364
 C   -1.689202   -1.699582    0.265136
 C   -7.122054   -1.571768    0.706556
 C   -8.189632   -0.760270    0.349247
 C   -7.962818    0.494972   -0.203021
 C   -6.659439    0.926485   -0.392479
 C   -1.890605    0.964552   -0.370676
 C   -1.968982    2.349623   -0.637557
 C   -0.837786    3.090450   -0.877455
 C    0.443080    2.503359   -0.862147
 C    1.666769    3.330589   -1.152136
 C    5.334939    0.177977    0.373979
 C    6.453189   -0.618449    0.122702
 N    6.052188   -1.581853   -0.746248
 N    4.744134   -1.465107   -1.061543
 N   -2.928876   -1.155351    0.192286
 N    7.679546   -0.451694    0.644949
 N    6.737825    1.436986    1.811579
 N    4.532762    2.098664    1.611657
Cl   -9.831013   -1.316977    0.592081
 H    0.430270   -1.519518    0.062329
 H   -4.319364    1.589731   -0.652381
 H   -4.982496   -1.775400    0.784202
 H    8.686769    0.793861    1.923045
 H    6.777361   -3.886986    0.556448
 H    5.472900   -4.242402   -0.598888
 H    7.125856   -4.809148   -0.920232
 H    6.618057   -2.790731   -2.316395
 H    7.884393   -2.407236   -1.131729
 H   -1.667499   -2.751373    0.537989
 H   -7.305939   -2.550732    1.135902
 H   -8.796305    1.129539   -0.483368
 H   -6.489501    1.910162   -0.824937
 H   -2.921495    2.870971   -0.635099
 H   -0.926226    4.153705   -1.080506
 H    2.373025    3.313886   -0.314671
 H    2.204523    2.937515   -2.021558
 H    1.401102    4.371700   -1.352685
 H    3.578090    1.847708    1.403460
 H    4.707761    2.728368    2.379860
