54 
6nvg_ligand_dft.xyz
 C    6.085156   -1.079553    0.686007
 C    4.708566   -1.310161    0.813855
 C    3.781946   -0.327381    0.462335
 C    4.251068    0.889885   -0.038685
 C    5.621407    1.136785   -0.174492
 C    6.531589    0.145671    0.193471
 O    6.904966   -2.081961    1.054018
 O    5.978968    2.340217   -0.660899
 C    8.298912   -1.897549    0.931733
 C    7.352089    2.627305   -0.817328
Cl    4.197359   -2.864693    1.413448
Cl    3.138575    2.143487   -0.517009
 C    2.299680   -0.556536    0.587833
 O    1.806237   -0.872370   -0.706678
 C    0.467402   -0.793363   -0.887207
 C   -0.496028   -0.670932    0.105962
 N   -1.797564   -0.569088   -0.178994
 C   -2.128718   -0.597330   -1.463277
 N   -1.293509   -0.750083   -2.502222
 C   -0.008307   -0.848984   -2.201887
 N   -3.462672   -0.393416   -1.801925
 C   -4.481339   -0.364168   -0.824523
 C   -4.606719    0.776703   -0.006073
 C   -5.581497    0.828494    0.989177
 C   -6.446264   -0.248070    1.131247
 C   -6.380707   -1.369467    0.316490
 C   -5.382785   -1.411235   -0.649169
 N   -3.734433    1.833152   -0.269625
 C   -3.318669    2.825137    0.590011
 C   -2.189098    3.679336    0.030525
 C   -0.898516    2.893095   -0.234821
 O   -3.803502    3.009322    1.690355
Cl   -5.255799   -2.825697   -1.664955
Cl   -7.675673   -0.183271    2.369928
 H    7.592238    0.328086    0.092768
 H    8.589360   -1.719798   -0.111187
 H    8.650013   -1.068473    1.558720
 H    8.750301   -2.827011    1.278081
 H    7.879966    2.597383    0.143985
 H    7.828632    1.933979   -1.521462
 H    7.397340    3.638435   -1.221348
 H    1.817798    0.356159    0.957766
 H    2.086030   -1.372490    1.283801
 H   -0.240085   -0.651461    1.161860
 H    0.694742   -0.972295   -3.022531
 H   -3.702632   -0.745532   -2.718544
 H   -5.650048    1.694754    1.631390
 H   -7.071036   -2.194798    0.436639
 H   -3.222632    1.727878   -1.135078
 H   -2.012087    4.465077    0.767603
 H   -2.529412    4.162621   -0.894207
 H   -0.578938    2.353351    0.661636
 H   -1.011877    2.159790   -1.040810
 H   -0.094643    3.575580   -0.525196
