46 
6nwc_ligand_dft.xyz
 C    2.649047   -0.196042    0.442358
 C    2.980815   -0.668153   -0.840798
 C    2.279640   -1.731690   -1.422689
 C    1.223209   -2.322197   -0.751431
 C    0.860826   -1.861828    0.517372
 C    1.587678   -0.825302    1.098838
 C    4.051874   -0.063182   -1.582778
 C    3.406017    0.923582    1.059877
 C    3.738558    0.909674    2.537352
 C    2.742238    1.893550    2.013724
 C   -0.388115   -2.392749    1.180929
 C   -1.617811   -1.727185    0.551915
 C   -2.471761    0.528014   -0.112292
 C   -0.419471    2.155124   -1.561251
 C   -0.733014    0.711796   -1.960081
 C   -2.171126    0.327167   -1.607316
 C   -2.128412    1.979987    0.298899
 C   -0.695890    2.381881   -0.073811
 C   -3.976438    0.336242    0.165544
 N    4.912681    0.427630   -2.184938
 N   -1.682999   -0.364604    0.752706
 O   -2.461229   -2.347117   -0.062619
 O   -4.282492   -0.108253    1.392322
 O   -4.825493    0.658876   -0.622071
 H    2.564037   -2.075212   -2.411601
 H    0.658641   -3.123710   -1.217916
 H    1.313503   -0.493840    2.099105
 H    4.166832    1.353687    0.416487
 H    4.720578    1.266884    2.829421
 H    3.374878    0.068638    3.120943
 H    1.692576    1.739493    2.248334
 H    3.030372    2.936771    1.936500
 H   -0.369582   -2.192409    2.258321
 H   -0.500354   -3.468087    1.031873
 H   -1.044702    2.839331   -2.150962
 H    0.624414    2.396758   -1.789512
 H   -0.029598    0.036610   -1.455872
 H   -0.575391    0.572891   -3.034894
 H   -2.878178    0.951494   -2.162323
 H   -2.382183   -0.709126   -1.881372
 H   -2.305375    2.107388    1.374293
 H   -2.834524    2.635830   -0.221744
 H   -0.540741    3.432518    0.194686
 H    0.039144    1.811266    0.513693
 H   -0.834565    0.050587    1.113443
 H   -3.451045   -0.359148    1.827516
