46 
6nwc_ligand_xtb.xyz
 C    2.659339   -0.206565    0.493760
 C    2.971461   -0.586453   -0.821737
 C    2.243332   -1.586315   -1.467948
 C    1.189387   -2.199778   -0.825273
 C    0.852647   -1.830228    0.474570
 C    1.594507   -0.848060    1.118173
 C    4.026406    0.036749   -1.526210
 C    3.443681    0.852645    1.154303
 C    3.735037    0.799130    2.633801
 C    2.793850    1.826448    2.106896
 C   -0.370173   -2.416743    1.118050
 C   -1.606324   -1.715692    0.561587
 C   -2.407475    0.598648   -0.022492
 C   -0.604691    1.889483   -1.996275
 C   -1.150087    0.483512   -2.220762
 C   -2.502071    0.311286   -1.532937
 C   -1.799529    1.985415    0.208385
 C   -0.460104    2.163441   -0.503444
 C   -3.854660    0.576416    0.547416
 N    4.872116    0.531531   -2.122305
 N   -1.553356   -0.380175    0.650925
 O   -2.549342   -2.334725    0.088000
 O   -4.455240   -0.595297    0.558802
 O   -4.396712    1.582461    0.914151
 H    2.507973   -1.863259   -2.477434
 H    0.615776   -2.962889   -1.329152
 H    1.341166   -0.582451    2.135587
 H    4.231255    1.255169    0.528677
 H    4.714582    1.112734    2.959064
 H    3.337124   -0.029567    3.199593
 H    1.739113    1.718307    2.310864
 H    3.118724    2.854327    2.064890
 H   -0.350701   -2.282736    2.201488
 H   -0.465279   -3.479999    0.896441
 H   -1.289198    2.618068   -2.434777
 H    0.363601    1.996065   -2.488596
 H   -0.441060   -0.251321   -1.830491
 H   -1.267472    0.294519   -3.288892
 H   -3.223715    1.009475   -1.961797
 H   -2.873490   -0.701388   -1.698127
 H   -1.692943    2.154791    1.282521
 H   -2.510998    2.724228   -0.161212
 H   -0.104927    3.182515   -0.342974
 H    0.294977    1.487977   -0.091179
 H   -0.724298    0.015467    1.069417
 H   -3.868398   -1.349064    0.268950
