56 
6nwl_ligand_xtb.xyz
 C   -9.686511    0.876294  -36.638754
 C  -10.594608    0.492794  -35.477112
 C  -11.134155    1.724400  -34.788846
 C  -11.484217    2.812455  -35.700195
 C  -11.199169    2.831561  -37.006543
 C  -11.735671    3.914992  -37.888865
 C  -10.632687    4.551719  -38.728517
 C   -9.863482    3.498982  -39.526315
 C   -9.292108    2.444798  -38.561147
 C  -10.386529    1.755415  -37.691010
 C   -7.249205    2.151405  -40.091572
 C   -8.327239    1.440899  -39.245737
 C   -7.832474    3.179058  -41.057023
 C   -8.695005    4.161560  -40.249615
 C   -8.978931    5.279079  -41.252199
 C   -7.651996    5.406027  -42.024729
 C   -6.775946    4.192971  -41.623509
 C   -8.584750    2.524593  -42.221257
 C  -11.372390    0.896875  -38.502773
 C   -6.020484    3.617123  -42.806810
 C   -4.686302    2.972136  -42.513224
 O  -11.312491    1.787777  -33.590971
 O   -8.957553    0.416572  -39.973443
 O   -5.881675    4.510672  -40.573851
 O   -6.439849    3.642916  -43.943510
 O   -4.139786    2.398324  -43.661092
 H  -12.046126    3.622212  -35.253209
 H  -10.057271   -0.121354  -34.752819
 H  -11.449721   -0.087359  -35.832916
 H  -12.486227    3.480468  -38.555430
 H  -12.232683    4.676637  -37.286004
 H  -11.071482    5.284911  -39.406959
 H   -9.939128    5.076457  -38.067401
 H  -10.547881    3.040441  -40.245215
 H   -8.830087    1.421662  -36.233289
 H   -9.316216   -0.031099  -37.116364
 H  -11.764391    1.440168  -39.357678
 H  -10.884330   -0.005077  -38.857723
 H  -12.215113    0.615210  -37.874921
 H   -8.661222    3.000426  -37.854520
 H   -7.794922    0.901260  -38.454891
 H   -8.037024    4.575396  -39.476864
 H   -9.415488    0.804993  -40.725391
 H   -6.556353    2.659472  -39.421129
 H   -6.698418    1.377134  -40.630039
 H   -8.606624    3.172428  -43.092479
 H   -8.093663    1.599693  -42.517735
 H   -9.617392    2.306969  -41.960763
 H   -9.794630    5.001465  -41.919339
 H   -9.242642    6.214411  -40.762444
 H   -7.809012    5.407135  -43.102775
 H   -7.131253    6.328731  -41.763679
 H   -5.417936    5.326413  -40.792852
 H   -4.003502    3.735118  -42.112314
 H   -4.819255    2.214486  -41.730904
 H   -4.749799    2.601798  -44.391337
