45 
6ny4_ligand_xtb.xyz
 O    1.401409  -11.962928   -4.381070
 C    0.201041  -11.862986   -4.136193
 N   -0.376800  -10.633810   -4.154724
 C   -0.656586  -13.004087   -3.799123
 C   -1.920360  -12.817288   -3.200495
 N   -2.743774  -13.761868   -2.866832
 C   -0.221053  -14.332365   -4.041941
 N    0.968014  -14.539684   -4.616124
 C    1.581728  -15.770181   -5.017145
 C    2.555724  -15.477865   -6.183986
 C    1.783470  -15.149349   -7.456727
 O    3.383739  -14.373260   -5.909511
 C    2.310604  -16.434989   -3.832621
 O    2.685541  -17.734354   -4.226413
 C   -1.117786  -15.376614   -3.666001
 C   -1.105187  -16.768107   -3.692044
 C   -2.317507  -17.227911   -3.154951
 C   -3.054740  -16.103379   -2.804484
 N   -2.339693  -15.010055   -3.108319
 C   -2.721673  -18.617160   -2.988298
 C   -2.148587  -19.626888   -3.760991
 C   -2.532654  -20.944245   -3.598295
 C   -3.496512  -21.280298   -2.662542
 C   -4.073725  -20.286631   -1.889164
 C   -3.690933  -18.968848   -2.048745
 H    0.210545   -9.862939   -4.425892
 H   -1.368930  -10.492878   -4.128780
 H   -2.278763  -11.830234   -2.949537
 H    1.526824  -13.689289   -4.763544
 H    0.832525  -16.473772   -5.389022
 H    3.159459  -16.384670   -6.341884
 H    1.179153  -15.997147   -7.765123
 H    1.143150  -14.288873   -7.282907
 H    2.485114  -14.901201   -8.247410
 H    3.901791  -14.540170   -5.115394
 H    3.192215  -15.839644   -3.549261
 H    1.632783  -16.462878   -2.968872
 H    3.089528  -18.189311   -3.480514
 H   -0.309574  -17.403959   -4.018203
 H   -4.033721  -16.009217   -2.381381
 H   -1.406510  -19.375973   -4.503961
 H   -2.079883  -21.713756   -4.207085
 H   -3.796436  -22.310258   -2.536701
 H   -4.824958  -20.542054   -1.155592
 H   -4.136013  -18.202627   -1.432198
