56 
6nyh_ligand_xtb.xyz
 C    2.885269   -8.109359   -5.802884
 C    3.421050   -6.895191   -3.955672
 C   -0.581451   -6.413855   -6.550400
 C    2.071415   -6.720472   -3.620943
 C    1.105861   -7.269266   -4.435456
 C   -0.356818   -7.161683   -4.132810
 C   -1.052553   -6.199830   -5.099808
 C   -0.511654   -7.896132   -6.908227
 N    0.577850   -8.558964   -6.443689
 C    1.524619   -7.970684   -5.582338
 C    0.797639   -9.926257   -6.873634
 N    3.811066   -7.586649   -5.014099
 O   -1.360042   -8.430913   -7.595352
 N   -1.480068   -5.773061   -7.473796
 C   -1.342834   -4.479172   -7.831956
 O   -0.494208   -3.740717   -7.372174
 C   -2.351956   -4.077381   -8.834260
 N   -3.313199   -4.944909   -9.270267
 C   -3.990889   -4.222867  -10.128080
 N   -3.463984   -2.989372  -10.201780
 N   -2.423230   -2.880425   -9.390775
 C   -4.105216   -2.092207  -11.124894
 C   -5.384221   -2.898110  -11.487996
 C   -5.133252   -4.361756  -11.060807
 C   -4.410703   -0.750287  -10.512401
 C   -4.902312   -0.670838   -9.215504
 C   -5.198758    0.558428   -8.656203
 C   -5.016043    1.718085   -9.390441
 C   -4.530635    1.644344  -10.684434
 C   -4.225915    0.415091  -11.242175
 O    4.344575   -6.348293   -3.152847
 C    5.694599   -6.540045   -3.532340
 H    3.266568   -8.659223   -6.651713
 H    0.409323   -5.956835   -6.672429
 H    1.815824   -6.170151   -2.730357
 H   -0.502988   -6.822260   -3.107061
 H   -0.807325   -8.153416   -4.235385
 H   -0.839825   -5.164465   -4.830152
 H   -2.132558   -6.351191   -5.053609
 H    1.173324  -10.519538   -6.041005
 H   -0.157542  -10.323513   -7.214599
 H    1.508696   -9.971199   -7.700952
 H   -2.174369   -6.353578   -7.928377
 H   -3.458840   -1.956928  -12.002059
 H   -5.612422   -2.815648  -12.548583
 H   -6.227086   -2.488897  -10.928966
 H   -6.002047   -4.814569  -10.585413
 H   -4.845971   -4.989936  -11.906973
 H   -5.042107   -1.572417   -8.636540
 H   -5.572139    0.611091   -7.644443
 H   -5.248164    2.677590   -8.953095
 H   -4.383165    2.545888  -11.260215
 H   -3.840527    0.360868  -12.250300
 H    6.291596   -6.029552   -2.779859
 H    5.940042   -7.603897   -3.557944
 H    5.880701   -6.114481   -4.520529
