45 
6nze_ligand_xtb.xyz
 C   -4.568000   -2.001597    0.454932
 C    1.535112    2.867968    0.050586
 C    0.960290    4.048048   -0.414109
 C   -0.022301    4.032611   -1.384027
 C   -0.435438    2.820082   -1.915556
 C    2.592732    2.905759    1.096405
 C   -5.380816    0.190961    0.075798
 C   -5.641003   -1.148619    0.342455
 C    1.869797   -1.952293    0.037425
 C    1.177467   -3.139504    0.242980
 N   -0.131589   -3.242038    0.353046
 C   -0.849766   -2.114568    0.282742
 C   -0.279361   -0.862067    0.137769
 C    1.109659   -0.752976    0.008731
 N    1.721583    0.457082   -0.099026
 N   -2.206776   -2.341098    0.405318
 C    3.343903   -1.911968   -0.110801
 N    3.904942   -3.034918   -0.622907
 O    4.015843   -0.937355    0.186941
 C    5.327216   -3.161027   -0.817334
 C    1.125369    1.637155   -0.496904
 C   -3.266058   -1.486449    0.298236
 N   -3.047340   -0.198032    0.044880
 C   -4.076911    0.622200   -0.064856
 F   -6.404038    1.063297   -0.044276
 C    0.134528    1.641531   -1.484503
 N    2.452923    3.894842    2.016759
 O    3.525767    2.129128    1.140392
 H   -4.715041   -3.050768    0.660242
 H    1.308531    4.995713   -0.028802
 H   -0.454970    4.957733   -1.732950
 H   -1.191988    2.796165   -2.685719
 H   -6.657300   -1.492967    0.454254
 H    1.703982   -4.080355    0.348877
 H   -0.906471    0.010473    0.158019
 H    2.705787    0.497919    0.187690
 H   -2.421280   -3.317987    0.557684
 H    3.320955   -3.799546   -0.916770
 H    5.563438   -3.313261   -1.872594
 H    5.783506   -2.233267   -0.474918
 H    5.724462   -3.996582   -0.237029
 H   -3.843021    1.657003   -0.272055
 H   -0.161482    0.706370   -1.933945
 H    3.124925    3.938992    2.764783
 H    1.624717    4.458178    2.076743
