53 
6nzp_ligand_xtb.xyz
 C    4.234093   -2.236527    0.253671
 C   -7.778452   -1.722023   -0.154548
 C   -6.106775   -0.434800    1.212874
 C   -2.241836    1.301437    1.836112
 C   -4.412628   -0.879639    0.058593
 C    5.328865   -4.354337    1.177257
 C    5.601441   -4.330337   -0.282972
 C   -3.040836   -0.942150   -0.420875
 C   -2.129704    0.086566   -0.177581
 C    2.049715    2.334780   -0.155962
 N    3.358020    2.405932    0.006180
 N    4.100946    1.354075    0.111632
 C    3.526930    0.142259    0.105086
 C    2.162833   -0.050427   -0.050775
 C    1.361476    1.084935   -0.232855
 N    4.444218   -0.881565    0.283720
 N    0.029493    1.060954   -0.418806
 C    1.333809    3.637105   -0.225435
 N    2.156443    4.697209   -0.203117
 O    0.112007    3.729702   -0.290646
 C    1.693415    6.058131   -0.237554
 C   -0.810057   -0.024161   -0.653440
 C   -0.434646   -1.139780   -1.394333
 C   -1.348462   -2.150731   -1.635780
 C   -2.637263   -2.058808   -1.153564
 O   -2.499679    1.257032    0.445122
 C    5.476312   -3.027978    0.471221
 O    3.150190   -2.745548    0.068546
 N   -5.402551   -1.521241   -0.540752
 N   -6.478545   -1.231957    0.195055
 N   -4.821404   -0.199147    1.159050
 H   -8.436952   -1.647102    0.708980
 H   -8.194383   -1.140900   -0.980784
 H   -7.694425   -2.761945   -0.468977
 H   -6.779640   -0.061316    1.957440
 H   -2.904407    0.613568    2.368314
 H   -1.197265    1.057119    2.059942
 H   -2.449254    2.324508    2.142600
 H    6.113053   -4.651698    1.856191
 H    4.332030   -4.618010    1.495765
 H    4.788917   -4.578993   -0.948229
 H    6.579899   -4.609603   -0.642298
 H    1.745540   -1.040376   -0.005003
 H    5.385136   -0.531250    0.407546
 H   -0.432240    1.974884   -0.340153
 H    3.143789    4.494206   -0.122815
 H    0.607472    6.034551   -0.320953
 H    1.974428    6.586857    0.675539
 H    2.111737    6.585300   -1.097179
 H    0.557414   -1.202967   -1.811868
 H   -1.046712   -3.011125   -2.213292
 H   -3.358667   -2.838409   -1.338794
 H    6.378674   -2.457690    0.648261
