46 
6nzr_ligand_xtb.xyz
 C    4.289161    0.429981    0.219014
 C   -3.253914   -0.588178    1.942941
 C    4.483966   -1.841952    0.262984
 C    5.859956   -1.794958    0.375006
 C    6.465736   -0.542693    0.408759
 C   -1.915463   -3.600319   -0.205050
 C   -1.993723   -2.227380   -0.097791
 C   -0.430745    2.292675   -0.203305
 N    0.495756    3.232872   -0.184930
 N    1.757422    2.963024   -0.136258
 C    2.149220    1.687216   -0.003478
 C    1.251658    0.620768   -0.009764
 C   -0.100093    0.903795   -0.201030
 N    3.507362    1.555291    0.137629
 N   -1.077228   -0.030124   -0.343806
 C   -1.833592    2.777149   -0.111491
 N   -1.978865    4.070785   -0.430885
 O   -2.751960    2.055048    0.261172
 C   -3.233735    4.768021   -0.333383
 C   -0.943808   -1.398361   -0.503738
 C    0.169555   -2.008538   -1.090382
 C    0.248146   -3.385531   -1.186416
 C   -0.777915   -4.194211   -0.723765
 C    5.680686    0.585906    0.329178
 N    3.714603   -0.767980    0.188285
 S   -3.566390   -1.519772    0.412128
 O   -3.959270   -0.604942   -0.628339
 O   -4.460868   -2.603521    0.720754
 H   -3.158717    0.460749    1.687299
 H   -4.102713   -0.751269    2.594363
 H   -2.349584   -0.975423    2.395350
 H    3.951430   -2.783691    0.231390
 H    6.442669   -2.699517    0.434801
 H    7.538803   -0.454906    0.495732
 H   -2.766852   -4.178014    0.118796
 H    1.625412   -0.374626    0.143687
 H    3.989441    2.444885    0.126831
 H   -2.035308    0.326832   -0.322867
 H   -1.129893    4.583285   -0.626423
 H   -4.007571    4.027521   -0.134790
 H   -3.214913    5.496967    0.480068
 H   -3.454010    5.283208   -1.269150
 H    0.957939   -1.406279   -1.510080
 H    1.120201   -3.829589   -1.642850
 H   -0.706095   -5.267881   -0.795023
 H    6.114854    1.573994    0.350133
