111 
6o0m_ligand_dft.xyz
 C   -1.926914   -1.448094    1.750479
 C   -2.154842   -0.083493    1.607342
 C   -2.390598    1.925058   -0.919682
 C   -3.890798    0.103002   -1.732233
 C   -4.339659   -0.711336   -2.940648
 C   -2.596018    0.120511   -4.283316
 C   -2.088200    1.077039   -3.198832
 C   -0.953749   -1.778617   -3.034732
 C   -0.124379   -2.509419   -2.192230
 C   -1.953127   -3.970520   -1.735309
 C   -2.811342   -3.173276   -2.472775
 C    0.152503   -4.523453   -0.571181
 C    3.126565   -2.966067    1.344749
 C    2.447565   -2.011334    2.068879
 C    4.091664   -0.305933    1.403618
 C    4.785325   -1.342094    0.716919
 C    5.525366    1.466510    0.420530
 N   -3.113051    1.330558   -2.122499
 C   -3.001922    4.502593    2.788411
 O   -0.320100   -5.543935   -0.120395
 C   -4.395294    4.084088    2.292370
 C   -3.003754   -2.327475    1.737781
 C   -2.318411   -2.023437   -3.111441
 C   -4.628182    4.562956    0.851459
 C   -0.604213   -3.646413   -1.532810
 C    2.918162   -0.703031    2.111895
 C   -3.589971    3.992428   -0.110230
 C    4.311571   -2.630670    0.674479
 C    5.271020    2.939910    0.107461
 C    6.398866    3.517294   -0.753739
 C    6.069455    4.955204   -1.154836
 C    3.759907    4.596283   -1.045015
 C    3.930213    3.146869   -0.606065
 C    1.203197   -0.640149   -1.753962
 C    1.444945    0.219595   -2.837847
 C    0.930645    2.042044   -1.579346
 C   -3.298347    2.525757    0.113887
 C    0.799468    1.246442   -0.371198
 C    0.883949   -0.146134   -0.502075
 C    0.472327    2.179577    0.644904
 C    0.405518    3.406109   -0.019205
 C   -5.462878    4.680656    3.214080
 C   -3.715711    1.863891    1.209167
 C   -4.512103    2.551570    2.298959
 C   -3.449320    0.414232    1.439889
 C   -4.520684   -0.484881    1.482148
 C   -4.306706   -1.851416    1.617271
 N   -3.192665   -1.102746   -3.755331
 N    1.399299   -4.038738   -0.223304
 N    4.525866    0.962919    1.346631
 N    2.084435    0.249661    2.803816
 N    1.282721    1.535903   -2.776836
 N    0.654897    3.351938   -1.350752
 O    3.358278   -5.482486    0.635923
 O    1.477370   -4.842113    2.200768
 O    4.845239    5.040606   -1.840760
 O    2.544927    1.356675    3.079799
 O    0.935711   -0.078115    3.084598
 O    1.155994   -2.033811   -1.987366
 S    2.352629   -4.539688    1.087506
Cl   -2.716946   -4.036489    1.887135
 H   -0.918479   -1.822587    1.886781
 H   -1.311830    0.599267    1.620801
 H   -1.709622    2.683527   -1.321357
 H   -1.770543    1.115489   -0.541581
 H   -3.224503   -0.499440   -1.110969
 H   -4.723509    0.440187   -1.114544
 H   -5.037759   -0.148143   -3.571199
 H   -4.879626   -1.584690   -2.574093
 H   -1.766100   -0.111805   -4.953880
 H   -3.357663    0.612777   -4.898901
 H   -1.795777    2.047043   -3.606280
 H   -1.220038    0.679462   -2.677360
 H   -0.499891   -0.950201   -3.551605
 H   -2.325259   -4.859493   -1.237513
 H   -3.856434   -3.451937   -2.553414
 H    1.532187   -2.262060    2.591915
 H    5.713474   -1.102752    0.213510
 H    6.534767    1.328661    0.834161
 H    5.468277    0.900335   -0.517224
 H   -3.780781    2.023375   -2.470587
 H   -2.197610    4.010985    2.230452
 H   -2.867429    5.586561    2.695845
 H   -2.877333    4.238755    3.844468
 H   -4.609813    5.658462    0.809071
 H   -5.633600    4.249971    0.536870
 H   -2.640278    4.539708   -0.026768
 H   -3.919545    4.153165   -1.148588
 H    4.850789   -3.397175    0.126843
 H    5.255703    3.497696    1.058319
 H    6.507472    2.916105   -1.666287
 H    7.356979    3.488564   -0.218856
 H    6.832574    5.355754   -1.828271
 H    6.046100    5.591329   -0.250896
 H    3.663171    5.246969   -0.157131
 H    2.854668    4.696425   -1.646108
 H    3.087957    2.868271    0.035996
 H    3.884528    2.502731   -1.493709
 H    1.739985   -0.208359   -3.795867
 H    0.677731   -0.827147    0.319432
 H    0.349116    2.007519    1.706389
 H    0.183877    4.364658    0.444606
 H   -5.358986    4.295986    4.235186
 H   -5.373881    5.772192    3.256379
 H   -6.472961    4.437805    2.862572
 H   -5.569624    2.258933    2.209127
 H   -4.179131    2.156871    3.267179
 H   -5.539221   -0.116821    1.382730
 H   -5.140761   -2.544763    1.633238
 H    1.750548   -3.233161   -0.737552
 H    3.997548    1.635010    1.886844
