56 
6o1g_ligand_dft.xyz
 C    2.475130    3.232969   -1.758319
 C    1.147162    3.162745   -1.048839
 C   -1.253630    3.269283   -1.092671
 N   -2.456095    3.327380   -1.780069
 C   -0.211664    2.922655    0.922689
 C    1.059562    2.943440    0.339817
 C    2.289451    2.631949    1.165551
 C    3.541751    0.572925    0.571260
 C    3.377200   -0.886559    0.406347
 C    4.380037   -1.824919    0.081006
 C    1.677576   -4.061694    0.006157
 C    0.262162   -3.630855   -0.285130
 C   -0.682013   -3.545308    0.739523
 C   -2.282431   -2.555974   -0.774819
 C   -3.638594   -1.924898   -1.015709
 C   -3.829094    0.997477    1.087802
 C   -4.570510   -0.002339    1.747615
 C   -1.349500   -2.663939   -1.804785
 C    2.210171   -1.629524    0.409934
 C   -0.027511    3.328441   -1.765878
 N   -1.342805    3.090930    0.224847
 C   -0.404946    2.715644    2.407052
 N    2.519283    1.194920    1.232788
 O    4.514407    1.173949    0.131825
 N    3.880226   -3.040056   -0.088564
 N    2.554243   -2.896705    0.107101
 C   -1.943423   -3.014322    0.499286
 N   -3.921358   -0.858694   -0.075557
 C   -3.418340    0.399396   -0.082417
 N   -4.617540   -1.129762    1.045514
 C   -0.088492   -3.197750   -1.563523
 H    3.026845    4.129647   -1.451954
 H    3.115371    2.377153   -1.526588
 H    2.336140    3.281249   -2.841602
 H   -2.453134    3.847358   -2.645612
 H   -3.246496    3.534532   -1.184406
 H    2.192570    3.031389    2.179810
 H    3.194231    3.063949    0.735610
 H    5.438825   -1.643305   -0.036891
 H    2.087448   -4.685704   -0.791454
 H    1.731430   -4.629626    0.940822
 H   -0.419499   -3.878642    1.740617
 H   -4.440850   -2.657042   -0.894977
 H   -3.697660   -1.520220   -2.030628
 H   -3.609068    2.007106    1.398865
 H   -5.078688    0.050746    2.701063
 H   -1.601722   -2.310986   -2.801672
 H    1.175909   -1.350703    0.550695
 H   -0.000321    3.483267   -2.841075
 H    0.122323    1.830979    2.780041
 H   -0.035863    3.575167    2.978933
 H   -1.468173    2.591866    2.616406
 H    1.737910    0.627669    1.524233
 H   -2.666643   -2.925773    1.305294
 H   -2.830359    0.776596   -0.907545
 H    0.642204   -3.247404   -2.366691
