57 
6o2p_ligand_dft.xyz
 O    2.491134    0.847134   -1.386503
 C    3.090598   -0.036404   -0.786840
 C    4.460344    0.150484   -0.288443
 C    5.126081    1.358827   -0.518606
 C    6.419253    1.538829   -0.055464
 C    7.051728    0.509862    0.647988
 C    6.395092   -0.688921    0.889229
 C    5.093059   -0.883445    0.424103
 N    4.478394   -2.114325    0.724494
 C    3.299575   -2.331015    0.291082
 C    2.476496   -1.412698   -0.577154
 C    0.982493   -1.478421   -0.136328
 O    0.597459   -2.424477    0.524483
 N    0.208949   -0.465739   -0.598433
 C   -1.185151   -0.329322   -0.354931
 C   -1.974043   -1.463348   -0.499919
 C   -3.348567   -1.424951   -0.308572
 O   -3.976409   -2.624131   -0.484371
 C   -3.986473   -0.217984    0.020628
 C   -5.506900   -0.112029    0.235308
 C   -6.260536   -0.493939   -1.058622
 C   -5.946258    1.319432    0.585227
 C   -5.945237   -1.002574    1.419755
 C   -3.154903    0.897314    0.149432
 C   -1.766931    0.907153   -0.011876
 C   -0.973807    2.217064    0.179592
 C   -1.865161    3.348046    0.726252
 C    0.165606    2.033665    1.203497
 C   -0.417651    2.715161   -1.171163
 H    4.607676    2.138577   -1.066906
 H    6.938723    2.473993   -0.238042
 H    8.064897    0.649247    1.013052
 H    6.866818   -1.494815    1.441083
 H    2.822774   -3.271060    0.558548
 H    2.474259   -1.865740   -1.584219
 H    0.700830    0.268955   -1.094925
 H   -1.522493   -2.413438   -0.753575
 H   -4.919217   -2.527956   -0.324736
 H   -5.996632    0.199650   -1.863523
 H   -6.035871   -1.499824   -1.427078
 H   -7.343203   -0.437188   -0.898026
 H   -5.486529    1.672524    1.514273
 H   -5.704348    2.027834   -0.214111
 H   -7.032363    1.339182    0.726101
 H   -5.692730   -2.061410    1.303313
 H   -5.458367   -0.666097    2.340634
 H   -7.030153   -0.938675    1.561285
 H   -3.629414    1.831216    0.406502
 H   -2.657778    3.629239    0.024449
 H   -2.324628    3.079415    1.683748
 H   -1.249700    4.238517    0.891880
 H   -0.234613    1.682763    2.160681
 H    0.923183    1.322240    0.875032
 H    0.668475    2.992566    1.373618
 H    0.324052    2.048461   -1.616604
 H   -1.231839    2.845085   -1.892242
 H    0.077050    3.684285   -1.036552
