57 
6o2p_ligand_xtb.xyz
 O    2.546169    0.712186   -1.853068
 C    3.035721   -0.122258   -1.104222
 C    4.125253    0.170997   -0.178673
 C    4.561131    1.483094    0.005547
 C    5.596758    1.755393    0.874500
 C    6.219484    0.717608    1.559519
 C    5.809213   -0.588473    1.378953
 C    4.756818   -0.879674    0.513113
 N    4.392456   -2.205131    0.354944
 C    3.383932   -2.494855   -0.353343
 C    2.493815   -1.526329   -1.055638
 C    1.079798   -1.494806   -0.353329
 O    0.811184   -2.246815    0.547835
 N    0.275309   -0.569227   -0.897388
 C   -1.074035   -0.376208   -0.514665
 C   -1.871312   -1.504828   -0.455821
 C   -3.216389   -1.445380   -0.121250
 O   -3.861479   -2.643231   -0.120953
 C   -3.801979   -0.205900    0.158854
 C   -5.279880   -0.063832    0.526632
 C   -6.163374   -0.546060   -0.638240
 C   -5.684558    1.392441    0.796068
 C   -5.578771   -0.836522    1.824317
 C   -2.970122    0.906305    0.090668
 C   -1.616931    0.881370   -0.227130
 C   -0.792088    2.167623   -0.238722
 C   -1.617243    3.389944    0.188781
 C    0.367351    2.047703    0.762210
 C   -0.258887    2.452499   -1.656729
 H    4.061397    2.270466   -0.539415
 H    5.925079    2.773187    1.022259
 H    7.032692    0.935409    2.236017
 H    6.283494   -1.404910    1.899905
 H    3.122140   -3.543213   -0.429172
 H    2.270800   -1.875132   -2.070773
 H    0.676205    0.092686   -1.553829
 H   -1.452273   -2.474617   -0.667827
 H   -4.781277   -2.528205    0.140614
 H   -5.990771    0.086592   -1.506889
 H   -5.973613   -1.571846   -0.942266
 H   -7.213710   -0.468450   -0.362914
 H   -5.129604    1.809220    1.632790
 H   -5.534635    2.015272   -0.082280
 H   -6.742438    1.425335    1.049610
 H   -5.358870   -1.899392    1.770834
 H   -4.981989   -0.423175    2.635037
 H   -6.630391   -0.728509    2.084379
 H   -3.409771    1.860197    0.304275
 H   -2.417173    3.594252   -0.519105
 H   -2.036436    3.258439    1.183507
 H   -0.967521    4.262525    0.218370
 H   -0.021922    1.898215    1.767249
 H    1.027606    1.217930    0.532978
 H    0.959554    2.960432    0.752679
 H    0.695961    1.972308   -1.846831
 H   -0.976230    2.127970   -2.407884
 H   -0.099874    3.521287   -1.783115
