60 
6o4w_ligand_dft.xyz
 C   -5.218793    1.143860   -0.371007
 C   -5.689449    0.228636    0.602714
 C   -4.843901   -0.769121    1.089774
 C   -3.534722   -0.835229    0.619849
 C   -3.075119    0.068089   -0.326075
 C   -3.915360    1.055835   -0.834476
 C   -1.634286   -0.197070   -0.670815
 C   -1.164398   -1.123611    0.479866
 C   -2.448352   -1.817676    0.989545
 C   -0.040230   -2.085710    0.094397
 C    1.176182   -1.414211   -0.553560
 C    1.844751   -0.380236    0.356725
 C    3.052947    0.256904   -0.307439
 N    4.054502   -0.787083   -0.733288
 C    3.425849   -1.801764   -1.649025
 C    2.216455   -2.450437   -0.991033
 C    5.311243   -0.179553   -1.324298
 C    6.118032    0.528659   -0.273813
 C    6.050122    1.915765   -0.128114
 C    6.773297    2.548797    0.877987
 C    7.566677    1.798741    1.742101
 C    7.645945    0.415655    1.596479
 C    6.926804   -0.217176    0.588814
 O   -0.837829    0.974561   -0.816824
 O   -6.012496    2.157682   -0.816853
 C   -7.086075    1.762348   -1.662298
 O   -6.965995    0.416173    1.004377
 C   -7.495135   -0.452755    1.983912
 H   -5.189377   -1.474844    1.837223
 H   -3.578108    1.773591   -1.576452
 H   -1.548119   -0.715248   -1.636506
 H   -0.818070   -0.453542    1.279040
 H   -2.407552   -2.037289    2.061574
 H   -2.602574   -2.775140    0.472466
 H   -0.438492   -2.824925   -0.614606
 H    0.281530   -2.651506    0.980406
 H    0.834668   -0.879489   -1.450341
 H    1.141259    0.426200    0.575256
 H    2.135405   -0.837838    1.313282
 H    2.765021    0.789413   -1.219295
 H    3.578026    0.946364    0.355517
 H    4.344002   -1.279276    0.118793
 H    4.199304   -2.531791   -1.899748
 H    3.149046   -1.259749   -2.558399
 H    2.542816   -3.047475   -0.127138
 H    1.786365   -3.155625   -1.709820
 H    4.982314    0.487165   -2.125225
 H    5.868829   -1.008402   -1.768331
 H    5.438146    2.505037   -0.806762
 H    6.720078    3.627192    0.984265
 H    8.132084    2.293751    2.524873
 H    8.277384   -0.167898    2.258163
 H    7.015466   -1.294647    0.460447
 H   -1.195480    1.630911   -0.203748
 H   -7.586559    2.682774   -1.965754
 H   -6.705429    1.244172   -2.551545
 H   -7.793643    1.117715   -1.133201
 H   -7.502045   -1.493038    1.635280
 H   -8.519644   -0.121860    2.153361
 H   -6.932503   -0.384893    2.923081
