57 
6o4w_ligand_xtb.xyz
 C    1.011765   60.104033   71.088413
 C    0.016931   61.103493   71.221773
 C    0.248048   62.382742   70.708292
 C    1.431006   62.678994   70.071059
 C    2.402424   61.691483   69.939452
 C    2.199622   60.413858   70.445870
 C    3.571497   62.215289   69.239694
 C    3.248984   63.657559   68.835138
 C    1.882896   63.973310   69.468518
 C    4.405585   64.576169   69.243483
 C    4.542174   65.889713   68.464807
 C    4.873612   65.677071   66.988280
 C    5.073971   67.023260   66.300961
 N    3.868306   67.824094   66.411759
 C    3.566274   68.095949   67.802992
 C    3.309496   66.787473   68.545898
 C    3.956799   69.036111   65.617501
 C    3.974133   68.723751   64.145444
 C    3.089168   67.783514   63.631042
 C    3.083318   67.490488   62.280235
 C    3.958067   68.139715   61.424200
 C    4.840247   69.078956   61.928172
 C    4.850043   69.366447   63.282616
 O    4.613926   61.645410   69.009176
 O    0.749346   58.860201   71.607737
 C    1.731500   57.861279   71.480997
 O   -1.195510   60.977913   71.815276
 C   -1.632346   59.770114   72.399279
 H   -0.533009   63.116177   70.833404
 H    2.982947   59.684454   70.322108
 H    3.172078   63.655369   67.744317
 H    1.158322   64.335573   68.737687
 H    1.975353   64.735639   70.244213
 H    4.313797   64.801217   70.309403
 H    5.330624   64.008988   69.106180
 H    5.382606   66.431186   68.918766
 H    5.776338   65.073309   66.883385
 H    4.053346   65.160379   66.489203
 H    5.940835   67.544342   66.751512
 H    5.286040   66.871737   65.239694
 H    4.390297   68.646174   68.297096
 H    2.671106   68.723303   67.844545
 H    2.460433   66.289564   68.079039
 H    3.060020   67.006347   69.585939
 H    3.068717   69.640863   65.835107
 H    4.844746   69.639703   65.883872
 H    2.416247   67.280256   64.308272
 H    2.393898   66.755171   61.891037
 H    3.952927   67.912830   60.368114
 H    5.526433   69.587252   61.266264
 H    5.544926   70.097794   63.671809
 H    1.308131   56.978780   71.958706
 H    1.945899   57.637141   70.431460
 H    2.658540   58.139837   71.991586
 H   -2.628949   59.989257   72.782746
 H   -1.693596   58.964704   71.665290
 H   -0.985336   59.461263   73.222182
