68 
6o50_ligand_xtb.xyz
 C   -0.105542    2.292550    1.387330
 C    1.133244    1.537290    0.964591
 C   -1.409562    1.544283    1.245854
 C    1.867204    2.287167   -0.163290
 C    3.148833    1.589840   -0.513160
 C    4.305412    1.810303    0.221845
 C    5.479803    1.144806   -0.063349
 C    5.551831    0.214938   -1.108793
 C    4.381777    0.004090   -1.850864
 N   -7.030354   -0.998857   -0.676866
 N    6.736943   -0.402240   -1.462685
 C    3.212391    0.670618   -1.551987
 C   -1.809471    1.472770   -0.248014
 C   -3.156310    0.846558   -0.389897
 C   -3.307151   -0.540548   -0.496766
 C   -4.544205   -1.125636   -0.559355
 C   -5.713357   -0.334004   -0.480181
 C   -5.572425    1.061264   -0.395996
 C   -4.322867    1.624335   -0.334524
 C   -8.156673   -0.057693   -0.598875
 C   -7.079916   -1.648242   -2.005491
 C   -7.163384   -2.002641    0.424341
 C   -6.622137   -1.419126    1.692057
 C    6.491294   -3.427790    1.170887
 C    7.947937   -0.038839   -0.760828
 C    6.736492   -1.793640   -1.861166
 C    7.438474   -2.690810    1.837965
 C    7.255929   -1.428563    2.346041
 C   -5.613801   -1.974456    2.377477
 O   -0.067658    3.443588    1.763010
 H    0.889557    0.523852    0.645197
 H    1.805070    1.475280    1.824216
 H   -2.189830    2.073333    1.795662
 H   -1.315073    0.531766    1.640702
 H    2.065912    3.305000    0.177297
 H    1.216964    2.340418   -1.039983
 H    4.286034    2.517016    1.040355
 H    6.342240    1.339899    0.552084
 H    4.386531   -0.676439   -2.688969
 H    2.330842    0.481093   -2.150907
 H   -1.061420    0.892014   -0.790144
 H   -1.821547    2.487901   -0.649693
 H   -2.426959   -1.165157   -0.540309
 H   -4.610902   -2.199196   -0.642479
 H   -6.428172    1.714111   -0.346368
 H   -4.233650    2.696700   -0.246326
 H   -8.165992    0.433963    0.370600
 H   -8.075173    0.691236   -1.383918
 H   -9.091484   -0.602667   -0.729213
 H   -6.987098   -0.889295   -2.780576
 H   -6.253184   -2.346097   -2.108902
 H   -8.020834   -2.183684   -2.128237
 H   -6.588054   -2.890835    0.163680
 H   -8.218312   -2.287674    0.511017
 H   -7.117655   -0.541571    2.077275
 H    6.700179   -4.417558    0.804287
 H    5.490383   -3.052837    1.038821
 H    8.062315    1.044475   -0.759651
 H    7.963699   -0.414960    0.272221
 H    8.792847   -0.470266   -1.297981
 H    5.798082   -2.065165   -2.333084
 H    7.545995   -1.962471   -2.574933
 H    6.887574   -2.448881   -0.990572
 H    8.422574   -3.136166    1.954580
 H    6.301614   -0.935150    2.272192
 H    8.040061   -0.912250    2.871703
 H   -5.113053   -2.862557    2.035357
 H   -5.257866   -1.541155    3.292665
