26 
6o5t_ligand_xtb.xyz
 C    2.506484    0.012546    0.103547
 C    1.603045   -0.979225   -0.252640
 C    0.299186   -0.643338   -0.550175
 C    2.124445    1.331580    0.113636
 C    0.802181    1.667679   -0.189887
 C   -0.174644    0.680448   -0.490965
 C   -1.534149    1.153492   -0.650318
 C   -2.701648    0.226397   -0.676995
 C   -1.791697    2.483108   -0.646213
 C   -0.787610    3.505670   -0.457815
 N    0.467000    2.986965   -0.194170
 O   -3.581330   -1.957194    0.769713
 O   -3.759393    0.281259    1.822820
 O   -1.462902   -0.765194    1.675562
 O   -0.967893    4.704258   -0.483430
 P   -2.738536   -0.604629    0.987035
Br    4.288352   -0.463322    0.533247
Br   -0.724554   -2.135079   -1.128925
 H    1.921471   -2.008835   -0.296468
 H    2.830998    2.110049    0.357399
 H   -2.666902   -0.500136   -1.483512
 H   -3.619560    0.803270   -0.787993
 H   -2.801112    2.849234   -0.754522
 H    1.189566    3.664882    0.019781
 H   -3.005474   -2.718679    0.695301
 H   -4.674293    0.169778    1.562058
