26 
6o5t_ligand_dft.xyz
 C    2.743288    0.030229    0.078798
 C    1.850411   -1.016831   -0.131254
 C    0.514520   -0.735928   -0.354973
 C    2.305351    1.331725    0.078442
 C    0.948395    1.603096   -0.144707
 C   -0.011013    0.579718   -0.385154
 C   -1.391383    1.028658   -0.629982
 C   -2.555794    0.112321   -0.928900
 C   -1.691057    2.347761   -0.569028
 C   -0.723553    3.401799   -0.306932
 N    0.563926    2.921174   -0.125347
 O   -2.429281   -0.815788    1.668444
 O   -4.262314   -1.647048    0.066455
 O   -4.373251    0.751913    1.100812
 O   -0.963053    4.594284   -0.258240
 P   -3.497780   -0.310129    0.576441
Br    4.564370   -0.354861    0.376449
Br   -0.518744   -2.329427   -0.574927
 H    2.196343   -2.041971   -0.114586
 H    2.997761    2.148383    0.251715
 H   -2.275257   -0.792896   -1.460203
 H   -3.270960    0.644453   -1.562369
 H   -2.709848    2.686705   -0.719557
 H    1.260857    3.632401    0.054857
 H   -1.880009   -1.547171    1.342310
 H   -5.108386   -1.738299    0.527742
