69 
6o5u_ligand_xtb.xyz
 C   20.197508   47.108212   42.847884
 C   18.728456   46.664371   42.967075
 C   18.551418   45.301326   42.295155
 C   19.001935   45.405749   40.835379
 C   20.453401   45.901462   40.797157
 C   20.927198   46.150877   39.360876
 C   25.066063   47.547060   43.321394
 C   24.691863   46.082961   43.046080
 C   23.187463   45.924350   42.791029
 C   22.334512   46.595500   43.880555
 C   22.682478   48.079614   43.996395
 C   24.167095   48.168001   44.388584
 C   26.096635   44.494345   41.898313
 C   27.194267   44.565743   40.821214
 C   26.528995   44.726392   39.450942
 C   25.529573   43.574888   39.229670
 C   24.559422   43.517984   40.420518
 C   23.600225   42.329930   40.364787
 N   20.913596   44.900119   38.610240
 N   21.781327   48.738886   44.923166
 N   26.450622   47.568716   43.767691
 N   27.565177   44.832269   38.437913
 O   20.604961   47.128495   41.501588
 O   18.347773   46.640458   44.310913
 O   17.195432   44.930305   42.393153
 O   18.864374   44.139789   40.238933
 O   20.967546   46.259845   43.651972
 O   22.841972   44.557814   42.730296
 O   25.426505   45.710158   41.886532
 O   25.263452   43.393053   41.641976
 O   28.064270   45.628214   41.096111
 O   24.858071   43.803940   38.013316
 O   22.723363   42.482877   39.259234
 H   20.287610   48.143037   43.197441
 H   18.119303   47.397639   42.410482
 H   19.178113   44.558658   42.813346
 H   18.355701   46.140229   40.323810
 H   21.079567   45.116465   41.245203
 H   20.239406   46.853214   38.882582
 H   21.916656   46.628665   39.406295
 H   24.914389   48.089340   42.369883
 H   24.988351   45.454692   43.893749
 H   22.967332   46.405528   41.825719
 H   22.554820   46.104823   44.839165
 H   22.549864   48.557346   43.017023
 H   24.338383   47.655353   45.337299
 H   24.444848   49.216869   44.518583
 H   26.540836   44.291944   42.883569
 H   27.744858   43.608627   40.845990
 H   25.971179   45.669113   39.449481
 H   26.086860   42.620397   39.181253
 H   23.970068   44.444931   40.425420
 H   24.174537   41.399484   40.273081
 H   23.049955   42.319496   41.309795
 H   21.639638   44.273827   38.952962
 H   21.110815   45.080622   37.632236
 H   22.096557   49.683485   45.112680
 H   21.735009   48.234493   45.800998
 H   26.800243   48.520906   43.784955
 H   27.020319   47.045263   43.108605
 H   27.130226   45.007996   37.538592
 H   28.064638   43.949695   38.363018
 H   17.535957   46.117902   44.356864
 H   17.058300   44.217097   41.757599
 H   19.416127   44.156122   39.430426
 H   21.985461   44.471954   43.174370
 H   28.436494   45.898526   40.243833
 H   24.037245   43.292272   38.030379
 H   22.032387   41.814288   39.316272
