52 
6o8u_ligand_xtb.xyz
 C    3.177998   -1.010158    0.080672
 C    1.869710   -1.420131   -0.035502
 C    0.868171   -0.454419   -0.094216
 C    1.193128    0.914903   -0.070707
 C    2.517764    1.317467    0.070528
 C    3.494876    0.343397    0.150180
 C    0.285155    3.134908    0.434446
 C   -1.103724    3.771192    0.529060
 C    4.450922   -1.793634    0.175470
 C    6.309484   -0.772768    1.593856
 C    5.526461   -0.681773    0.285170
 O    4.821981    0.580377    0.280423
 N    0.119480    1.828997   -0.171310
 O   -1.690769    3.914467   -0.744217
 C   -1.796755    2.667088   -1.393457
 C   -0.436827    1.977505   -1.509149
 N   -0.490191   -0.787016   -0.122070
 C   -1.054092   -1.977472   -0.453909
 O   -0.450568   -2.953143   -0.861227
 C   -2.518490   -1.984944   -0.280108
 C   -3.375712   -3.050407   -0.591260
 N   -4.641632   -2.788443   -0.303430
 N   -4.650900   -1.566538    0.201064
 C   -3.366174   -1.005293    0.242813
 N   -3.158494    0.221017    0.717080
 C   -4.192053    0.888507    1.157477
 C   -5.506999    0.378503    1.145250
 C   -5.714756   -0.876828    0.648088
 C    6.472018   -0.690073   -0.915489
 H    1.610446   -2.464394   -0.077151
 H    2.789669    2.359207    0.104646
 H    0.709973    3.016175    1.432219
 H    0.934499    3.795786   -0.162782
 H   -1.045345    4.775730    0.951502
 H   -1.740497    3.138317    1.165429
 H    4.607753   -2.416003   -0.706856
 H    4.457956   -2.443593    1.052356
 H    5.625996   -0.733872    2.439115
 H    6.871156   -1.702370    1.630900
 H    6.999821    0.063445    1.670087
 H   -2.212579    2.873153   -2.381242
 H   -2.481736    2.013126   -0.833883
 H   -0.553192    0.997768   -1.973144
 H    0.226905    2.590227   -2.142239
 H   -1.104241   -0.030505    0.165456
 H   -3.098629   -3.994595   -1.015462
 H   -3.990889    1.880080    1.538263
 H   -6.327130    0.967687    1.517440
 H   -6.675767   -1.364504    0.586866
 H    7.041718   -1.615235   -0.938690
 H    5.901282   -0.598472   -1.836929
 H    7.159220    0.149678   -0.850347
