66 
6o94_ligand_dft.xyz
 C   -0.240346    0.721431   -0.180749
 C    2.803798    3.730245    0.010761
 C   -1.487280    1.324736   -0.272278
 C   -2.621038    0.517639   -0.328000
 C   -6.705618    0.690796   -1.041414
 C   -4.589469   -0.293558   -0.433536
 C   -6.648252   -1.115589    0.563241
 C   -6.979103   -0.094529    1.649358
 C   -7.056818    1.643410    0.098468
 C    1.108856    2.247293    1.123810
 C    2.504996    2.855296    1.232240
 N   -3.963321    0.856215   -0.410152
 N   -5.959713   -0.479654   -0.569641
 C   -0.111154   -0.693348   -0.141935
 N    0.971249    1.487004   -0.116091
 O    0.865603   -3.453010   -0.025835
 C    1.610301   -2.478291   -0.009093
 C    3.075106   -2.659105    0.065802
 C    4.107255   -1.724640    0.097398
 N    4.125076   -0.375096    0.073909
 C    5.299961    0.210842    0.118451
 C    6.527730   -0.504230    0.188766
 C    6.493678   -1.867081    0.212178
 N    5.280386   -2.468723    0.166410
 N    5.060021   -3.800701    0.180603
 C    3.734408   -3.898793    0.119842
 N    1.200618   -1.177960   -0.055513
 C   -1.236372   -1.515673   -0.187245
 C    1.220182    2.294208   -1.307074
 C    2.621410    2.898561   -1.262761
 C    4.156170    4.422722    0.085408
 O    5.197542    3.457092    0.112155
 C   -2.466189   -0.875959   -0.280764
 N   -3.749546   -1.387558   -0.362240
 C   -4.091305   -2.772024   -0.592504
 O   -7.755461    0.961100    1.126980
 H    2.058773    4.542348   -0.010043
 H   -1.579126    2.406406   -0.301103
 H   -6.111195    1.203056   -1.800185
 H   -7.629351    0.319889   -1.502363
 H   -7.576606   -1.559098    0.184679
 H   -6.029708   -1.918516    0.972781
 H   -6.044283    0.296019    2.084868
 H   -7.569463   -0.556889    2.445853
 H   -7.722854    2.435859   -0.253718
 H   -6.136789    2.095211    0.494200
 H    0.351709    3.053208    1.185513
 H    0.922395    1.564742    1.958506
 H    2.573311    3.447540    2.153438
 H    3.241218    2.047213    1.297142
 H    5.299983    1.299613    0.100694
 H    7.473118    0.021670    0.223533
 H    7.349949   -2.527977    0.264442
 H    3.265666   -4.872863    0.115533
 H    1.898915   -0.432444   -0.041220
 H   -1.126156   -2.590441   -0.148301
 H    0.475918    3.108257   -1.406140
 H    1.108711    1.646266   -2.181589
 H    3.359512    2.089744   -1.284787
 H    2.777901    3.521259   -2.152587
 H    4.192554    5.048575    0.990765
 H    4.272076    5.084501   -0.787107
 H    6.037531    3.925559    0.160552
 H   -4.149878   -3.338148    0.343703
 H   -5.054963   -2.814249   -1.104789
 H   -3.329165   -3.228610   -1.229882
