41 
6oa3_ligand_dft.xyz
 C    3.104685   -0.643887   -1.378261
 C    3.989463   -1.845130   -1.082527
 C    3.805918   -1.482116    1.204314
 C   -1.291256   -1.263249    0.157340
 C   -1.129223    0.127952    0.186517
 C   -2.195496    1.015346    0.027737
 C   -0.442088    2.110647    0.137218
 C    2.183396    2.602782    0.452256
 C    2.547305    1.663947   -0.699101
 C    2.934643   -0.246438    1.011815
 C   -4.610483    1.456681   -0.254940
 C   -3.729297   -0.801066   -0.077836
 C   -2.992049   -3.077346    0.038177
 N   -1.780169    2.287327   -0.010465
 N    3.291802    0.396120   -0.306104
 N    0.024695    0.878217    0.263304
 N   -3.482134    0.554796   -0.088759
 N   -2.622695   -1.662769    0.057345
 O    3.684991   -2.413039    0.160875
 O   -4.862480   -1.242708   -0.188651
 S    0.009219   -2.353641    0.204145
 S    0.652576    3.513580    0.080926
 H    2.046613   -0.926922   -1.336437
 H    3.347492   -0.185393   -2.340377
 H    5.055901   -1.553389   -1.128567
 H    3.813540   -2.611856   -1.839124
 H    3.486929   -1.986353    2.117843
 H    4.864865   -1.183451    1.324754
 H    2.963739    3.344641    0.641318
 H    1.989211    2.048365    1.369012
 H    3.183523    2.157521   -1.439425
 H    1.634863    1.309956   -1.169479
 H    3.135933    0.469736    1.809266
 H    1.866006   -0.481132    0.965164
 H   -5.107104    1.266377   -1.209458
 H   -5.333498    1.301987    0.549044
 H   -4.222468    2.474422   -0.227042
 H   -3.812726   -3.240485    0.737088
 H   -3.326669   -3.364399   -0.962284
 H   -2.118215   -3.660455    0.318425
 H    4.289665    0.623234   -0.262146
