61 
6ob0_ligand_xtb.xyz
 C    1.698011    2.924448   -0.081851
 C    1.575991    1.576783   -0.107115
 C   -0.570555    3.641861    0.689722
 O   -0.799443    2.463494    1.363598
 O    2.807764   -0.350299    0.499861
 O   -6.902915   -3.555689   -0.092399
 C   -2.006634    0.598370    0.586073
 C   -2.114642   -0.606789   -0.102449
 C   -1.000251   -1.065301   -0.804091
 C    0.176379   -0.348501   -0.797027
 C    2.783544    0.740051   -0.098006
 C   -3.372551   -1.361148   -0.097352
 C   -3.374337   -2.759221   -0.049560
 C   -4.550963   -3.474278   -0.043796
 C   -5.780586   -2.818430   -0.094903
 C   -5.787815   -1.413470   -0.147347
 C   -4.592017   -0.699913   -0.143631
 C    5.217230    0.668674   -0.566142
 C    5.421749   -0.732702   -1.153565
 C    5.605952   -2.232486    0.802469
 C    4.763717   -3.153982    1.692436
 C    3.468101   -3.815799   -0.108652
 C    4.260167   -2.917964   -1.066367
 C   -7.023407   -0.730871   -0.204820
 C   -0.823875    1.316896    0.594576
 C    0.633960    3.896953    0.016730
 C    0.831729    5.173441   -0.523090
 C   -0.140505    6.146949   -0.435047
 C   -1.327743    5.877655    0.229536
 C   -1.538010    4.630977    0.790712
 C    0.300983    0.850692   -0.093012
 N    3.871223    1.186336   -0.762227
 N    4.765325   -1.754915   -0.312263
 N   -8.047850   -0.217091   -0.248770
 O    4.276209   -4.244591    0.955230
 H    2.687875    3.364848   -0.125276
 H   -7.695097   -3.000123   -0.125401
 H   -2.834521    0.979654    1.163141
 H   -1.065538   -1.977582   -1.376772
 H    1.018552   -0.714787   -1.367000
 H   -2.436185   -3.289550    0.010757
 H   -4.551467   -4.551333    0.002318
 H   -4.631652    0.377407   -0.204654
 H    5.909737    1.356747   -1.050089
 H    5.444685    0.654640    0.506116
 H    6.489655   -0.948445   -1.233824
 H    4.986948   -0.767600   -2.154991
 H    6.457430   -2.787924    0.398017
 H    5.970150   -1.385704    1.383890
 H    3.931793   -2.581945    2.129998
 H    5.375972   -3.569965    2.493070
 H    3.132197   -4.715615   -0.625007
 H    2.593928   -3.263398    0.268781
 H    3.612286   -2.577285   -1.874761
 H    5.104410   -3.472940   -1.485436
 H    1.761163    5.386303   -1.031302
 H    0.029816    7.119148   -0.869935
 H   -2.084882    6.640541    0.319901
 H   -2.442809    4.411654    1.335394
 H    3.781144    2.046902   -1.278612
 H    3.878880   -1.214646    0.137605
