45 
6ocu_ligand_xtb.xyz
 C   40.996579   13.008864   35.416588
 C   41.966447   14.183534   35.643749
 C   41.054205   15.183762   36.353973
 C   40.042894   15.155630   35.212370
 C   40.937057   15.524599   34.022091
 C   43.086086   14.441935   33.426671
 C   44.986660   13.704918   31.490379
 C   44.937538   13.074835   32.721625
 C   38.624654   13.231934   34.643797
 C   36.532930   13.691070   33.825911
 C   37.087433   11.511059   34.033160
 C   39.224131   10.809077   34.906228
 N   39.890932    9.922149   35.205225
 C   35.543781   14.696962   33.439749
 C   35.850553   16.058776   33.457366
 C   33.362477   15.313002   32.682539
 N   39.770721   13.729467   35.117857
 N   42.184904   14.855819   34.376795
 C   43.136992   15.082899   32.182140
 C   44.071290   14.712836   31.237041
Cl   46.062676   11.808090   33.076073
 C   44.006343   13.420165   33.682372
 N   37.695457   14.123839   34.284153
 N   36.191157   12.408888   33.681629
 C   38.347494   11.838204   34.532949
 N   34.992858   17.001401   33.121506
 C   33.777408   16.636355   32.745373
 C   34.261733   14.324147   33.036859
 H   40.887713   12.383307   36.308115
 H   41.310438   12.378088   34.580068
 H   42.893592   13.922779   36.145523
 H   41.518656   16.155849   36.492250
 H   40.654882   14.814905   37.295135
 H   39.123882   15.726531   35.301948
 H   41.077473   16.608224   33.946308
 H   40.522520   15.152820   33.079799
 H   45.718428   13.415729   30.754543
 H   36.798966   10.473895   33.917565
 H   36.836424   16.388930   33.754088
 H   32.360910   15.066264   32.365832
 H   42.449764   15.883709   31.961953
 H   44.091467   15.220710   30.284586
 H   44.003247   12.887241   34.618543
 H   33.109526   17.446249   32.482195
 H   33.999723   13.277552   33.011379
