57 
6ohu_ligand_dft.xyz
 C   -1.231815   38.433227   37.608285
 C   -1.039516   39.953558   37.576360
 O    3.734316   43.423149   42.991850
 C    4.882853   44.071253   42.482315
 C    5.713838   44.496037   43.696583
 C    2.825937   42.928338   42.112132
 C    2.933124   43.023139   40.724720
 C    1.940796   42.471067   39.918636
 C    0.734063   41.757004   41.858976
 C    1.714372   42.293077   42.675153
 C    0.835121   41.817510   40.461354
 C   -0.234780   41.228561   39.604944
 C   -1.622836   41.604549   40.006761
 C   -2.582802   40.634217   40.309809
 C   -3.866346   40.998994   40.706363
 C   -4.208368   42.343442   40.811521
 C   -3.256364   43.320103   40.526426
 C   -1.973773   42.953145   40.136995
 C    3.265701   39.680453   36.711012
 C    3.970359   38.963829   37.673723
 C    3.389150   38.730636   38.917506
 C    2.116745   39.215099   39.196447
 C    1.400863   39.944931   38.241323
 C    1.989465   40.159323   36.990707
 C    0.023040   40.436618   38.541247
 N    6.952967   45.192758   43.409333
 C    7.945655   44.388509   42.726102
 C    6.778397   46.492256   42.793024
 H   -1.566247   38.099887   38.596630
 H   -1.981763   38.122614   36.873746
 H   -0.295501   37.913305   37.381426
 H   -1.989683   40.455719   37.772076
 H   -0.739846   40.241246   36.559455
 H    4.591145   44.943479   41.880413
 H    5.450164   43.386162   41.836765
 H    5.944915   43.598811   44.282589
 H    5.090060   45.138355   44.329133
 H    3.775528   43.521533   40.259174
 H    2.037566   42.547861   38.840301
 H   -0.130113   41.276532   42.309575
 H    1.641113   42.235769   43.756257
 H   -2.312933   39.584304   40.240900
 H   -4.597335   40.229983   40.938937
 H   -5.208992   42.630097   41.121362
 H   -3.513443   44.371925   40.612124
 H   -1.228048   43.715612   39.929695
 H    3.710092   39.868386   35.737763
 H    4.965066   38.586699   37.455148
 H    3.928235   38.168096   39.674217
 H    1.667938   39.039497   40.169456
 H    1.452472   40.724207   36.233068
 H    7.708522   44.182580   41.665157
 H    8.911808   44.904649   42.752269
 H    8.060998   43.429226   43.241243
 H    6.040131   47.071570   43.357149
 H    7.728349   47.037588   42.820024
 H    6.449643   46.451526   41.737337
