58 
6ohu_ligand_xtb.xyz
 C   -5.000592   -1.422074    1.264377
 C   -4.384003   -0.586171    0.144094
 O    3.547577    0.019475   -0.256145
 C    4.305620    0.768085   -1.179006
 C    5.753796    0.307832   -0.968826
 C    2.158231    0.170389   -0.237288
 C    1.455964    1.044494   -1.048097
 C    0.077927    1.110138   -0.935881
 C    0.113222   -0.548461    0.785107
 C    1.486725   -0.619350    0.687086
 C   -0.618218    0.308638   -0.035605
 C   -2.087332    0.410151    0.036631
 C   -2.592797    1.801504    0.035448
 C   -2.166516    2.688003    1.020023
 C   -2.618372    3.994754    1.030916
 C   -3.489753    4.437336    0.049482
 C   -3.902337    3.568372   -0.946563
 C   -3.457371    2.258588   -0.955012
 C   -1.702125   -4.191784    0.800526
 C   -1.258307   -4.582220   -0.451272
 C   -1.333582   -3.696119   -1.512281
 C   -1.854645   -2.429321   -1.322682
 C   -2.311635   -2.030730   -0.070551
 C   -2.225952   -2.925534    0.991074
 C   -2.882198   -0.670823    0.077468
 N    5.997963    0.180088    0.490413
 C    6.293691    1.474856    1.123308
 C    7.033331   -0.813275    0.807920
 H   -4.810031   -2.481883    1.116861
 H   -4.602222   -1.119501    2.230347
 H   -6.076876   -1.268631    1.278325
 H   -4.683593    0.453974    0.275938
 H   -4.786870   -0.938980   -0.810825
 H    4.192795    1.844909   -0.992684
 H    3.999763    0.562461   -2.210806
 H    6.464643    1.001991   -1.416940
 H    5.878912   -0.677081   -1.421801
 H    1.955124    1.673389   -1.768793
 H   -0.467669    1.792285   -1.570256
 H   -0.394648   -1.157111    1.514726
 H    2.050231   -1.287608    1.319931
 H   -1.488507    2.340475    1.787240
 H   -2.291519    4.670202    1.807829
 H   -3.844090    5.456946    0.059471
 H   -4.574371    3.911231   -1.719161
 H   -3.770216    1.585072   -1.739694
 H   -1.642020   -4.876823    1.633606
 H   -0.855960   -5.573253   -0.598978
 H   -0.988795   -3.993771   -2.491722
 H   -1.915719   -1.737556   -2.150905
 H   -2.553500   -2.624872    1.975368
 H    5.074397   -0.151221    0.837689
 H    6.361668    1.357424    2.203163
 H    7.242670    1.858577    0.750828
 H    5.507904    2.193854    0.904235
 H    7.983159   -0.509566    0.369532
 H    7.155276   -0.895386    1.886414
 H    6.757053   -1.789630    0.414952
