73 
6oim_ligand_xtb.xyz
 C    4.077793   -2.073122   -1.379002
 C    3.347965   -1.268366   -0.305036
 C    4.255819   -1.009993    0.915023
 N    5.315921   -0.081318    0.602031
 C    6.608506   -0.508093    0.618432
 O    6.885775   -1.649067    0.928734
 C    7.665528    0.520260    0.251207
 C    9.062995   -0.068661    0.400919
 C    4.808862    1.190796    0.147899
 C    3.937128    0.962953   -1.091577
 N    2.877243    0.010977   -0.818267
 C    1.635939    0.491073   -0.578484
 N    1.507998    1.785051   -0.443009
 C    0.355040    2.402230   -0.119024
 O    0.239546    3.598350   -0.007595
 N   -0.756582    1.561982    0.172744
 C   -1.956756    2.163212    0.658831
 C   -2.175217    2.203256    2.035909
 C   -1.176764    1.618176    2.982857
 C   -3.343217    2.809876    2.476510
 C   -4.210279    3.343154    1.537964
 N   -3.989966    3.303490    0.239739
 C   -2.888212    2.726066   -0.216433
 C   -2.688931    2.747786   -1.709287
 C   -3.982856    2.359310   -2.422211
 C   -2.248751    4.158944   -2.111270
 C   -0.723122    0.233709   -0.075725
 N   -1.848898   -0.451779    0.117023
 C    0.469845   -0.370775   -0.541357
 C    0.348996   -1.672334   -1.029743
 C   -0.845081   -2.341804   -0.873569
 F   -0.971649   -3.554415   -1.439598
 C   -1.924248   -1.740379   -0.202791
 C   -3.178628   -2.432553    0.086013
 C   -3.215163   -3.790824    0.414907
 F   -2.056617   -4.440795    0.638193
 C   -4.392651   -4.483366    0.592559
 C   -5.592602   -3.804487    0.440130
 C   -5.601584   -2.451788    0.175457
 C   -4.408952   -1.742619    0.030023
 O   -4.480227   -0.424431   -0.181325
 H    3.526703   -2.053718   -2.316651
 H    4.181008   -3.104520   -1.053953
 H    5.075249   -1.678652   -1.551934
 H    2.488515   -1.834752    0.058515
 H    3.651012   -0.597594    1.732006
 H    4.716261   -1.945117    1.238863
 H    7.557870    1.389953    0.903182
 H    7.509376    0.841017   -0.781904
 H    9.229699   -0.380049    1.428405
 H    9.171854   -0.943223   -0.234655
 H    9.815344    0.666436    0.126374
 H    5.615273    1.879607   -0.089065
 H    4.189632    1.633113    0.937079
 H    4.548509    0.561902   -1.904303
 H    3.473971    1.899774   -1.398021
 H   -1.502762    1.743092    4.011753
 H   -1.043075    0.554752    2.783467
 H   -0.212324    2.110097    2.856281
 H   -3.563958    2.870374    3.530953
 H   -5.128206    3.830486    1.838907
 H   -1.897501    2.040683   -1.983206
 H   -4.770602    3.051516   -2.141635
 H   -3.841664    2.396452   -3.499865
 H   -4.294101    1.355716   -2.141867
 H   -2.072779    4.207589   -3.183447
 H   -1.333870    4.431513   -1.589913
 H   -3.026334    4.870477   -1.846574
 H    1.147604   -2.158353   -1.566190
 H   -4.358727   -5.529221    0.849235
 H   -6.524313   -4.335219    0.557176
 H   -6.524989   -1.901997    0.093487
 H   -3.577436   -0.042716   -0.114984
