73 
6oim_ligand_dft.xyz
 C    4.072398   -2.244921   -1.137085
 C    3.325522   -1.302261   -0.198579
 C    4.165708   -0.896266    1.025462
 N    5.255554   -0.014877    0.651463
 C    6.541591   -0.498850    0.659737
 O    6.794595   -1.628022    1.053505
 C    7.642376    0.439056    0.175030
 C    9.027092   -0.165325    0.374544
 C    4.801218    1.203514   -0.002296
 C    3.963666    0.843211   -1.230409
 N    2.872026   -0.075217   -0.895261
 C    1.660177    0.485876   -0.571003
 N    1.595336    1.770784   -0.371708
 C    0.414669    2.403794   -0.033718
 O    0.319564    3.607249    0.075253
 N   -0.703923    1.584501    0.260698
 C   -1.922815    2.219753    0.672259
 C   -2.212625    2.299176    2.035745
 C   -1.262520    1.744468    3.058933
 C   -3.410945    2.910726    2.385933
 C   -4.235922    3.400062    1.380267
 N   -3.949466    3.323655    0.084204
 C   -2.803383    2.738272   -0.281557
 C   -2.520164    2.698073   -1.770619
 C   -3.673677    2.026735   -2.523450
 C   -2.262767    4.122379   -2.279703
 C   -0.699008    0.237553   -0.016595
 N   -1.826184   -0.444770    0.181729
 C    0.467108   -0.356821   -0.521753
 C    0.333868   -1.645864   -1.044160
 C   -0.862508   -2.311342   -0.907656
 F   -1.007541   -3.499465   -1.497985
 C   -1.925169   -1.726202   -0.195049
 C   -3.198628   -2.405618    0.091147
 C   -3.266369   -3.776162    0.383274
 F   -2.121341   -4.456151    0.537704
 C   -4.451565   -4.457473    0.566261
 C   -5.642390   -3.737450    0.477483
 C   -5.633493   -2.370872    0.259427
 C   -4.422520   -1.688941    0.102703
 O   -4.491336   -0.359233   -0.050373
 H    3.471719   -2.470822   -2.023807
 H    4.301216   -3.179089   -0.617299
 H    5.023866   -1.820526   -1.469008
 H    2.442806   -1.813068    0.188577
 H    3.519491   -0.370704    1.741190
 H    4.590280   -1.777012    1.507684
 H    7.564172    1.397054    0.703215
 H    7.478063    0.660174   -0.888059
 H    9.214167   -0.366554    1.432232
 H    9.120056   -1.113280   -0.160037
 H    9.794906    0.523006    0.008592
 H    5.646074    1.825832   -0.295906
 H    4.183443    1.781257    0.694962
 H    4.596587    0.348133   -1.974632
 H    3.533218    1.740831   -1.672295
 H   -1.640804    1.904242    4.071556
 H   -1.119330    0.668125    2.912402
 H   -0.282546    2.226122    2.975648
 H   -3.698917    3.006404    3.428252
 H   -5.179043    3.880668    1.631628
 H   -1.611591    2.110261   -1.939905
 H   -4.601763    2.583141   -2.364921
 H   -3.459049    2.000067   -3.597270
 H   -3.836191    1.001009   -2.177238
 H   -2.051558    4.108141   -3.354599
 H   -1.410438    4.570391   -1.760709
 H   -3.146012    4.745611   -2.107275
 H    1.142009   -2.122476   -1.587455
 H   -4.428670   -5.517472    0.788311
 H   -6.588839   -4.251607    0.611907
 H   -6.549727   -1.792406    0.230945
 H   -3.597203    0.016904    0.093455
