37 
6oin_ligand_xtb.xyz
 C   -2.629932    0.976343   -0.630699
 C   -3.612905   -0.112433   -0.367909
 C   -4.288750   -2.375949    0.190147
 C   -3.310872   -1.445870   -0.109337
 C   -4.956358    0.259638   -0.303972
 C   -5.946797   -0.657970   -0.015054
 C   -5.613639   -1.979870    0.233535
 C    5.182013    0.556812   -0.488627
 C    6.208120   -0.335284   -0.627630
 F   -2.029174   -1.889137   -0.133201
 O   -2.922835    2.149864   -0.534272
 N   -1.399938    0.604348   -1.103792
 N   -0.370461    1.544143   -1.053687
 S    0.230383    1.678389    0.569016
 O   -0.750821    1.139865    1.466570
 O    0.714132    3.012069    0.745149
 C    1.599909    0.541279    0.446946
 C    2.817152    1.013085    0.056891
 C    3.899292    0.120770   -0.094972
 C    5.998988   -1.701487   -0.379380
 C    4.767567   -2.155249    0.003329
 C    3.685594   -1.262679    0.156433
 C    2.404573   -1.703586    0.556534
 C    1.374641   -0.816222    0.701675
 H   -3.998493   -3.395772    0.388648
 H   -5.191632    1.297407   -0.484556
 H   -6.978078   -0.343243    0.022771
 H   -6.380288   -2.702792    0.466389
 H    5.334318    1.609345   -0.675762
 H    7.188089    0.003271   -0.929031
 H   -1.062342   -0.342304   -1.015429
 H   -0.752699    2.450114   -1.318808
 H    2.941729    2.069469   -0.121004
 H    6.821949   -2.391367   -0.493336
 H    4.604107   -3.205632    0.196094
 H    2.253156   -2.755528    0.748512
 H    0.394033   -1.126730    1.025375
