41 
6oio_ligand_dft.xyz
 C    0.009158   -0.868803   -0.252866
 C    1.057413    0.168271   -0.028093
 C    3.425824    0.684636    0.082349
 C    2.390081   -0.230638   -0.111329
 C    0.740907    1.495024    0.272022
 C    1.765129    2.413999    0.469483
 C    3.092966    2.013714    0.371287
 C    4.844517    0.256194   -0.010932
 C    7.523240   -0.554300   -0.184157
 C    6.584400   -1.368818    0.442968
 C    5.256080   -0.966956    0.529198
 C    7.124776    0.664755   -0.725372
 C    5.796166    1.066166   -0.639520
 O    0.190943   -2.062588   -0.107093
 N   -1.218173   -0.378673   -0.672328
 N   -2.217023   -1.293213   -0.989125
 S   -3.353667   -1.472904    0.288054
 O   -4.159694   -2.605601   -0.132653
 O   -2.709015   -1.433462    1.588940
 C   -4.266652    0.041507    0.089883
 C   -3.972616    1.119971    0.918042
 C   -4.674125    2.309391    0.743663
 C   -5.652436    2.403505   -0.242808
 C   -5.939595    1.311104   -1.059942
 C   -5.244459    0.118398   -0.897970
 H    2.605990   -1.268086   -0.346870
 H   -0.294837    1.800678    0.388507
 H    1.528469    3.443320    0.720342
 H    3.885958    2.734090    0.550972
 H    8.560437   -0.868419   -0.251253
 H    6.887602   -2.318396    0.873646
 H    4.533532   -1.597732    1.039556
 H    7.848772    1.302613   -1.223687
 H    5.487916    2.007750   -1.085979
 H   -1.240048    0.452351   -1.246432
 H   -1.796554   -2.214206   -1.148689
 H   -3.217832    1.013574    1.689808
 H   -4.461348    3.159639    1.383925
 H   -6.199737    3.332213   -0.372929
 H   -6.709171    1.387526   -1.821383
 H   -5.456598   -0.746776   -1.517215
