40 
6oip_ligand_xtb.xyz
 C   -1.803486   -0.562642    0.454840
 C   -3.046451   -0.987903    0.093300
 C   -4.082353   -0.048945   -0.094986
 C   -3.795589    1.331642    0.090666
 C   -4.831119    2.271064   -0.098310
 C   -6.087665    1.864600   -0.451214
 C   -6.369446    0.501012   -0.632816
 C    3.950278    3.380426    0.385804
 C    4.262221    1.945776    0.094141
 C    3.229776    1.049194   -0.159468
 F    1.966295    1.549626   -0.133364
 C    3.449211   -0.298408   -0.419201
 C    4.769878   -0.748725   -0.412511
 C    5.815168    0.120480   -0.178034
 C    5.561390    1.458802    0.073689
 C    2.391215   -1.326789   -0.621148
 O    2.601011   -2.511914   -0.467349
 N    1.186384   -0.893441   -1.109530
 N    0.094414   -1.755377   -1.002942
 S   -0.496839   -1.765873    0.628468
 O    0.520688   -1.235999    1.489795
 O   -1.054965   -3.057653    0.881929
 C   -5.389151   -0.435543   -0.459974
 C   -2.490646    1.723297    0.463697
 C   -1.506600    0.791550    0.644843
 H   -3.226441   -2.043731   -0.033301
 H   -4.612055    3.319546    0.042965
 H   -6.874769    2.590232   -0.592310
 H   -7.368493    0.200029   -0.910571
 H    3.373466    3.817137   -0.428449
 H    3.348803    3.455479    1.291004
 H    4.863013    3.953335    0.520700
 H    4.941085   -1.798649   -0.592204
 H    6.831045   -0.243093   -0.182796
 H    6.379005    2.137821    0.265000
 H    0.916878    0.077535   -1.059425
 H    0.412305   -2.698038   -1.221363
 H   -5.597036   -1.486260   -0.597216
 H   -2.284543    2.773847    0.606704
 H   -0.508732    1.065077    0.948439
