41 
6oiq_ligand_dft.xyz
 C   -0.096035   -0.996168    0.043386
 C    0.966098    0.020327    0.307453
 C    3.328397    0.654150    0.288239
 C    2.302446   -0.254608    0.023455
 C    0.641019    1.252563    0.879641
 C    1.638146    2.177114    1.160920
 C    2.962570    1.874472    0.866343
 C    4.746481    0.360335   -0.041071
 C    7.444837   -0.127518   -0.615340
 C    6.871206    1.096294   -0.946434
 C    5.531559    1.337447   -0.661422
 C    6.670540   -1.107660   -0.000026
 C    5.331154   -0.868307    0.284318
 F    2.603504   -1.415971   -0.564853
 O   -0.008804   -2.180669    0.288858
 N   -1.245702   -0.454444   -0.509236
 N   -2.287703   -1.310858   -0.838064
 S   -3.514502   -1.339695    0.366492
 O   -4.306070   -2.504947    0.012814
 O   -2.958805   -1.160556    1.696523
 C   -4.393678    0.149121   -0.055436
 C   -4.217221    1.284053    0.728490
 C   -4.896009    2.449621    0.383770
 C   -5.735183    2.464794   -0.726821
 C   -5.906153    1.316422   -1.499117
 C   -5.233661    0.147004   -1.166153
 H   -0.395141    1.459602    1.129300
 H    1.387750    3.125594    1.624175
 H    3.746028    2.588338    1.103280
 H    8.490360   -0.318193   -0.837905
 H    7.464985    1.863951   -1.433577
 H    5.082946    2.287674   -0.938536
 H    7.111457   -2.064353    0.263241
 H    4.737230   -1.635685    0.769073
 H   -1.173861    0.359282   -1.103733
 H   -1.930696   -2.267490   -0.922786
 H   -3.570983    1.239505    1.598541
 H   -4.773660    3.343301    0.987480
 H   -6.264787    3.375190   -0.990634
 H   -6.568006    1.331525   -2.359090
 H   -5.358936   -0.759624   -1.748673
