41 
6oir_ligand_xtb.xyz
 C    5.041027   -1.070341    0.617239
 C    6.347196   -1.517547    0.689077
 C    7.380163   -0.734612    0.201060
 C    7.100553    0.500624   -0.359149
 C    5.796127    0.954264   -0.425584
 C    4.750423    0.173559    0.061422
 C    3.362122    0.654673   -0.004066
 C    2.326642   -0.209572   -0.337870
 C    3.053188    1.984589    0.278853
 C    1.745456    2.426855    0.230759
 C    0.737460    1.545644   -0.112847
 F   -0.528916    2.033921   -0.136557
 C    1.001045    0.211992   -0.410316
 C   -0.012273   -0.833151   -0.724626
 O    0.237068   -2.018988   -0.661100
 N   -1.220584   -0.402550   -1.205011
 N   -2.284496   -1.305659   -1.198246
 S   -2.935042   -1.422636    0.403587
 O   -1.931532   -1.018742    1.345973
 O   -3.562810   -2.700939    0.524431
 C   -4.167684   -0.136345    0.278683
 C   -3.861138    1.140178    0.705758
 C   -4.803774    2.144450    0.552225
 C   -6.031109    1.855822   -0.023189
 C   -6.325171    0.568134   -0.446522
 C   -5.384906   -0.437939   -0.298419
 H    4.240291   -1.676651    1.013098
 H    6.560516   -2.480603    1.128778
 H    8.399798   -1.085890    0.256465
 H    7.902088    1.112397   -0.746574
 H    5.582325    1.911053   -0.879480
 H    2.526514   -1.245914   -0.565276
 H    3.836675    2.670130    0.563632
 H    1.491008    3.449036    0.464061
 H   -1.526152    0.552249   -1.090509
 H   -1.924264   -2.221296   -1.462298
 H   -2.901634    1.326953    1.161516
 H   -4.580236    3.147682    0.881279
 H   -6.765266    2.638953   -0.139938
 H   -7.284292    0.350348   -0.890762
 H   -5.574779   -1.452424   -0.608916
