47 
6ooz_ligand_xtb.xyz
 C   -3.042640    0.699152   -1.758593
 C   -4.420816    0.708920   -1.681940
 C    0.426886   -3.133430    0.305292
 C   -5.097242    0.208866   -0.567742
 C   -4.421496   -0.317479    0.512496
 C   -3.033440   -0.334776    0.454924
 N   -2.112126   -0.783421    1.366510
 C    1.154048   -4.070579   -0.411602
 C    3.049866   -2.835657   -0.290681
 C    0.088472    0.336830   -1.274439
 C    3.101374    2.525332   -0.611446
 C    0.987186    1.413029   -0.708396
 C    2.300277    1.538236   -1.168879
 C    2.623325    3.375517    0.368670
 C    0.509133    2.284472    0.258626
 C    0.762643    4.202950    1.847579
 O    0.039299   -1.402260    2.821766
 C    0.323819   -0.926371    1.529402
 C    1.073447   -1.979319    0.732744
 N    2.433295   -3.925977   -0.711865
 C    2.421754   -1.832878    0.432407
 C   -0.945247   -0.562793    0.827353
 N   -1.013961    0.001472   -0.414187
 C   -2.354470    0.170278   -0.678424
 C    2.842044    0.646614   -2.245590
 C    1.313375    3.271266    0.812714
 H   -2.530925    1.092633   -2.624715
 H   -4.991433    1.114518   -2.504064
 H   -0.617643   -3.292021    0.526744
 H   -6.176583    0.239073   -0.556552
 H   -4.938563   -0.702798    1.376346
 H    0.690482   -4.980428   -0.769716
 H    4.098301   -2.762406   -0.550492
 H    0.673518   -0.569981   -1.466321
 H   -0.327046    0.672260   -2.230509
 H    4.121665    2.629220   -0.952029
 H    3.273620    4.129706    0.787010
 H   -0.514038    2.197142    0.597080
 H    0.198466    5.002472    1.366311
 H    0.088985    3.677422    2.520970
 H    1.562612    4.654794    2.428597
 H   -0.922057   -1.519098    2.876563
 H    0.964220   -0.034827    1.626650
 H    2.964056   -0.956295    0.753736
 H    2.228159    0.709815   -3.143435
 H    2.858560   -0.395296   -1.924120
 H    3.857009    0.938586   -2.502244
