80 
6oqb_ligand_dft.xyz
 C    4.707915    1.768930    2.010746
 C    5.373800    0.620528    1.252446
 C    4.433701   -0.576699    1.083087
 C    4.113403   -1.357755    2.373467
 C    2.599633   -1.577298    2.547804
 C    1.907218   -0.267508    2.782761
 C    1.056866    0.335538    1.951838
 C    0.510839    1.712171    2.213473
 O   -0.898806    1.686992    2.411302
 C    0.809807    2.713077    1.086834
 C    0.971208    4.203516    1.468826
 C    0.279680    4.580703    0.141681
 C   -0.315253    3.154563    0.112273
 C   -0.538513    2.492388   -1.243294
 N   -0.812033    1.063113   -1.206921
 C   -2.009372    0.644021   -0.494042
 C   -3.101278    0.061953   -1.418833
 C   -3.662631    1.130803   -2.370003
 C   -4.600867    2.107945   -1.671514
 C   -5.813176    1.359315   -1.125398
 C   -5.437143    0.105472   -0.363525
 C   -6.381199   -0.450979    0.504166
 C   -6.100117   -1.619118    1.193457
Cl   -7.297985   -2.290182    2.279114
 C   -4.877902   -2.261542    1.037726
 C   -3.939489   -1.703915    0.181954
 C   -4.195605   -0.525495   -0.530945
 C   -2.423646   -1.003594   -2.300559
 O   -1.427789   -1.744948   -1.606104
 C   -0.150266   -1.255993   -1.649246
 C    0.840294   -2.208679   -1.852367
 C    2.178042   -1.857549   -1.943852
 C    2.514321   -0.509969   -1.840154
 C    1.525490    0.452689   -1.624644
 C    0.173329    0.119348   -1.484685
 C    3.905684   -0.020642   -1.999951
 O    4.181544    1.065823   -2.469508
 N    4.961428   -0.874840   -1.610752
 S    5.104299   -1.731456   -0.142673
 O    4.258030   -2.909725   -0.167785
 O    6.542737   -1.865710    0.023986
 H    5.401522    2.609544    2.105201
 H    3.814929    2.121979    1.484439
 H    4.402187    1.473147    3.019430
 H    5.680053    0.989102    0.266684
 H    6.283964    0.291385    1.764507
 H    3.492616   -0.234214    0.635237
 H    4.626093   -2.324188    2.384286
 H    4.504584   -0.796308    3.229662
 H    2.202047   -2.075210    1.656178
 H    2.437038   -2.248644    3.399761
 H    2.201744    0.258500    3.694681
 H    0.741939   -0.157445    1.032747
 H    1.000698    2.097645    3.124287
 H   -1.078224    1.035564    3.100019
 H    1.693070    2.379348    0.531122
 H    1.985267    4.573219    1.645211
 H    0.342859    4.451922    2.330779
 H    1.011312    4.726630   -0.661692
 H   -0.416002    5.423972    0.144955
 H   -1.249972    3.157156    0.679620
 H    0.310527    2.673846   -1.906579
 H   -1.395109    2.990512   -1.719477
 H   -1.749889   -0.090574    0.274402
 H   -2.408144    1.498573    0.054139
 H   -2.822999    1.653187   -2.842303
 H   -4.212974    0.631840   -3.181497
 H   -4.925560    2.886964   -2.369132
 H   -4.077105    2.617466   -0.852636
 H   -6.462855    1.072723   -1.964604
 H   -6.414792    2.012629   -0.483636
 H   -7.343159    0.034993    0.638318
 H   -4.665275   -3.178021    1.576944
 H   -2.981518   -2.200018    0.056650
 H   -1.967256   -0.525811   -3.175830
 H   -3.154433   -1.737411   -2.651226
 H    0.522938   -3.238858   -1.972251
 H    2.934363   -2.610935   -2.117956
 H    1.850694    1.481533   -1.537316
 H    5.861636   -0.464069   -1.843883
