77 
6oqc_ligand_dft.xyz
 C    2.510341    0.143212    2.302254
 C    3.279261    1.441656    2.518735
 C    4.778657    1.176140    2.428436
 C    5.155663    0.357041    1.211790
 C    6.488134    0.373234    0.790285
 C    6.890958   -0.385244   -0.296293
Cl    8.566030   -0.344253   -0.802106
 C    5.981987   -1.174687   -0.990099
 C    4.658783   -1.185173   -0.573777
 C    4.222290   -0.433606    0.525161
 C    2.744894   -0.463850    0.910007
 C    1.951603    0.308421   -0.167910
 C    2.174185   -1.895247    0.935605
 O    1.820182   -2.360241   -0.359599
 C    0.528397   -2.128995   -0.761356
 C   -0.089452   -3.185263   -1.414851
 C   -1.411971   -3.102165   -1.819848
 C   -2.129387   -1.952212   -1.515671
 C   -1.502330   -0.858268   -0.918611
 C   -0.147642   -0.898001   -0.556490
 N    0.509639    0.196993    0.011146
 C   -0.199339    1.445329    0.239819
 C   -0.419552    2.303743   -1.001109
 C    0.776576    2.990962   -1.705783
 C   -0.147708    4.194979   -1.990383
 C   -1.045200    3.706281   -0.829393
 C   -2.562098    3.867211   -0.918042
 O   -3.102522    3.222015   -2.055839
 C   -3.243929    3.324196    0.308920
 C   -4.342006    2.573149    0.290820
 C   -5.077750    2.085209    1.505670
 C   -5.378897    0.582247    1.434771
 C   -4.111403   -0.270671    1.532043
 C   -3.596000   -0.455460    2.956798
 S   -4.411562   -1.898906    0.802275
 O   -3.270354   -2.754667    1.059316
 O   -5.760448   -2.322859    1.144500
 N   -4.490675   -1.540743   -0.863867
 C   -3.575809   -1.943418   -1.861269
 O   -4.006751   -2.262268   -2.947809
 H    1.432594    0.292391    2.436281
 H    2.823459   -0.583229    3.066171
 H    2.987488    2.185789    1.766144
 H    3.033108    1.871839    3.495218
 H    5.338880    2.117874    2.425560
 H    5.098675    0.632101    3.328379
 H    7.213548    0.983815    1.319913
 H    6.303199   -1.766634   -1.839984
 H    3.943793   -1.801705   -1.110463
 H    2.246445   -0.041074   -1.163282
 H    2.226457    1.363195   -0.124513
 H    2.915427   -2.601022    1.320700
 H    1.290790   -1.931924    1.584639
 H    0.489235   -4.090871   -1.561850
 H   -1.900340   -3.936166   -2.310469
 H   -2.072314    0.054982   -0.787627
 H    0.382160    2.018573    0.974020
 H   -1.161911    1.233497    0.720373
 H   -1.003251    1.753777   -1.746607
 H    1.557254    3.271922   -0.989524
 H    1.239504    2.478568   -2.552846
 H    0.276987    5.199987   -1.922575
 H   -0.643798    4.083010   -2.961246
 H   -0.696706    4.159447    0.109538
 H   -2.775654    4.950296   -0.967255
 H   -2.855963    3.730820   -2.835829
 H   -2.799254    3.621863    1.259368
 H   -4.765458    2.301141   -0.674925
 H   -6.038553    2.612507    1.574222
 H   -4.523052    2.333956    2.418990
 H   -6.070525    0.285460    2.229285
 H   -5.891382    0.387352    0.485849
 H   -3.323482    0.158044    0.906705
 H   -3.408906    0.526072    3.402814
 H   -2.665075   -1.026364    2.966486
 H   -4.334278   -0.975964    3.575093
 H   -5.447776   -1.632615   -1.194242
