79 
6oqd_ligand_xtb.xyz
 C    2.513728    0.507247    2.092985
 C    3.579423    0.148755    3.117530
 C    4.908894    0.715306    2.639522
 C    5.218714    0.257552    1.241824
 C    6.546601    0.256123    0.830645
 C    6.893577   -0.196288   -0.427202
Cl    8.552573   -0.177356   -0.917242
 C    5.924244   -0.687564   -1.284777
 C    4.604981   -0.677813   -0.877183
 C    4.223414   -0.180302    0.367043
 C    2.756921   -0.195055    0.750811
 C    1.902111    0.495707   -0.337356
 C    2.273322   -1.665405    0.823149
 O    1.944777   -2.195194   -0.439208
 C    0.645487   -2.015190   -0.858074
 C    0.085104   -3.096604   -1.519988
 C   -1.236625   -3.091876   -1.915615
 C   -2.024688   -1.995755   -1.593304
 C   -1.453927   -0.877133   -1.001360
 C   -0.103516   -0.833365   -0.651643
 N    0.485662    0.297207   -0.112932
 C   -0.291166    1.447425    0.285710
 C   -0.605487    2.446110   -0.833332
 C    0.481924    3.478374   -1.188673
 C   -0.575046    4.587609   -1.146924
 C   -1.551357    3.611866   -0.465851
 C   -2.970749    3.616408   -1.032993
 O   -2.871656    3.427094   -2.430219
 C   -3.893920    2.550917   -0.422046
 C   -4.038389    2.644293    1.095021
 C   -5.210795    1.818498    1.631964
 C   -5.201260    0.351823    1.188222
 C   -3.944398   -0.412140    1.556088
 C   -3.759539   -0.672470    3.036002
 S   -4.075642   -2.058446    0.782502
 O   -5.299016   -2.668040    1.207814
 O   -2.851367   -2.773358    0.958174
 N   -4.310257   -1.714681   -0.870857
 C   -3.461942   -2.041099   -1.923531
 O   -3.915525   -2.324471   -3.006160
 H    1.520752    0.246362    2.463197
 H    2.543431    1.589186    1.939527
 H    3.321914    0.567983    4.091850
 H    3.650717   -0.934567    3.222713
 H    5.718397    0.413906    3.306909
 H    4.863934    1.809204    2.656036
 H    7.313738    0.604515    1.505691
 H    6.197953   -1.074960   -2.253068
 H    3.861788   -1.098287   -1.535335
 H    2.120768    1.562750   -0.337764
 H    2.169786    0.109006   -1.323682
 H    3.072400   -2.305921    1.207431
 H    1.408648   -1.742623    1.493446
 H    0.712821   -3.957630   -1.687790
 H   -1.671461   -3.941004   -2.416399
 H   -2.071867   -0.005289   -0.867920
 H    0.265057    1.968288    1.071968
 H   -1.221665    1.092355    0.736225
 H   -0.958818    1.926141   -1.723300
 H    1.222591    3.598447   -0.398690
 H    0.990806    3.333738   -2.138276
 H   -0.922656    4.866310   -2.137476
 H   -0.318933    5.482618   -0.583996
 H   -1.595837    3.772129    0.612208
 H   -3.400301    4.614321   -0.826838
 H   -3.756180    3.397693   -2.808607
 H   -3.513588    1.571094   -0.713776
 H   -4.883174    2.667675   -0.876509
 H   -3.115625    2.321707    1.577944
 H   -4.202033    3.689084    1.370807
 H   -6.146020    2.264026    1.287030
 H   -5.206966    1.871631    2.721669
 H   -6.051421   -0.165191    1.637193
 H   -5.325717    0.306750    0.105690
 H   -3.048213    0.018188    1.118382
 H   -3.588725    0.253282    3.581638
 H   -4.644975   -1.163172    3.433306
 H   -2.907692   -1.332828    3.182018
 H   -5.286489   -1.828356   -1.117031
