69 
6ow2_ligand_dft.xyz
 C    4.375052   -0.560952    1.131847
 C    5.175285   -0.127900   -0.097943
 C    6.652433    0.137542    0.228626
 C    7.316515    0.170657   -1.148591
 C   -2.325630    3.817210   -2.009117
 C   -1.724976    3.025617   -0.885198
 C    0.096203    2.501112    0.366773
 C    2.256110    0.536991    0.278279
 C    2.844663   -0.692847    0.955172
 C    6.633435   -0.977913   -1.914895
 C    5.231486   -1.139088   -1.268323
 C    2.423239   -1.934759    0.164143
 C    0.104551   -1.762712   -0.731875
 C   -0.677592    1.625749    1.123723
 C   -2.009029    1.445692    0.755517
 C   -2.463377   -0.621419    2.098623
 C   -3.249827   -1.822688    1.522305
 C   -4.068584   -2.621886   -0.736021
 C   -4.331720   -2.065532   -2.133595
 C   -4.899360    0.046751   -1.312801
 C   -4.713538   -0.405548    0.132174
 C   -4.293670    0.676920    1.150610
 F   -0.158451    1.000464    2.206140
 N   -0.435043    3.216411   -0.624517
 N    1.434911    2.743019    0.645368
 N    2.203754    1.665312    1.052914
 N    0.984658   -2.166782    0.206409
 N   -2.519758    2.150117   -0.262929
 N   -2.875589    0.605644    1.429949
 N   -3.655676   -1.477983    0.130912
 O    1.856136    0.537954   -0.874376
 O    0.470263   -2.438554    1.465232
 O   -1.115031   -1.794707   -0.596171
 O   -5.300448   -1.045772   -2.109388
 H    4.762902   -1.518999    1.504005
 H    4.555805    0.167159    1.932475
 H    4.751396    0.812735   -0.477451
 H    6.798198    1.056878    0.805066
 H    7.056053   -0.694903    0.822243
 H    7.105884    1.131141   -1.633857
 H    8.403145    0.059505   -1.102813
 H   -3.399515    3.943641   -1.860553
 H   -2.169521    3.290441   -2.957404
 H   -1.839555    4.791088   -2.088295
 H    2.397763   -0.779912    1.953526
 H    7.207619   -1.902116   -1.795600
 H    6.573161   -0.778414   -2.987988
 H    4.427433   -0.955244   -1.988458
 H    5.105381   -2.162502   -0.892423
 H    2.918897   -2.823612    0.565620
 H    2.694360   -1.840185   -0.887430
 H    0.599125   -1.424077   -1.648113
 H   -2.638057   -0.558607    3.178648
 H   -1.403503   -0.791899    1.929691
 H   -4.160600   -2.054699    2.080226
 H   -2.612691   -2.705825    1.477284
 H   -4.963733   -3.071446   -0.299695
 H   -3.247664   -3.341010   -0.743969
 H   -4.713302   -2.857702   -2.779727
 H   -3.383444   -1.696426   -2.555747
 H   -3.974991    0.510464   -1.688084
 H   -5.697100    0.790089   -1.361452
 H   -5.633859   -0.902085    0.456615
 H   -4.832993    0.525512    2.091895
 H   -4.539300    1.666678    0.768030
 H    1.871917    3.288565   -0.089838
 H    2.378789    1.615281    2.045703
 H   -2.790724   -1.115455   -0.305803
 H    0.460626   -3.405751    1.532696
