59 
6ow7_ligand_dft.xyz
 C   -3.567173    0.377054    1.012573
 C   -2.104869    0.675384    0.595404
 C   -1.668027    2.107569    0.925659
 C   -0.260021    2.449030    0.435794
 C    0.105587    3.929967    0.592695
 C    1.381912    4.079335   -0.248746
 C    1.241108    3.046724   -1.398894
 C   -0.006825    2.199976   -1.060185
 C   -1.190026   -0.339615    1.258513
 C   -1.796781   -3.293113   -0.929847
 C   -0.489022   -4.054202   -0.786605
 C    0.104697   -3.807859    0.600680
 C    0.204415   -2.312730    0.926878
 C    1.258962   -1.578481    0.080837
 C    3.571987   -0.655993    0.189544
 C    3.668574   -0.121440   -1.093409
 C    4.842250    0.559453   -1.400907
 C    5.845760    0.673108   -0.446039
 C    5.634888    0.090128    0.799200
 C   -4.608800    0.141433   -1.181811
 N   -4.532189    0.772329    0.001874
 N   -1.091072   -1.641769    0.697269
 N   -1.570660   -1.840855   -0.642203
 N    2.439032   -1.359014    0.675583
 N    4.518064   -0.563548    1.118740
 O   -5.040270    2.057443    0.056873
 O   -0.566402   -0.115819    2.268479
 O    0.975733   -1.227244   -1.071933
 O   -3.965771   -0.879641   -1.437467
 H   -3.726036   -0.690802    1.196781
 H   -3.813295    0.908875    1.933583
 H   -2.033709    0.558783   -0.490889
 H   -1.733868    2.261677    2.008293
 H   -2.393434    2.784068    0.455469
 H    0.465578    1.861950    1.014745
 H   -0.701481    4.548588    0.176958
 H    0.243518    4.226388    1.636986
 H    2.257957    3.841765    0.364141
 H    1.517323    5.099511   -0.616874
 H    1.133566    3.531596   -2.372954
 H    2.131704    2.412799   -1.456103
 H    0.145229    1.141394   -1.300255
 H   -0.875269    2.550696   -1.636171
 H   -2.211891   -3.335337   -1.938741
 H   -2.552809   -3.628807   -0.215980
 H   -0.685038   -5.119419   -0.932523
 H    0.209196   -3.741495   -1.569787
 H    1.098237   -4.257694    0.683373
 H   -0.529342   -4.271854    1.363957
 H    0.404161   -2.179808    1.989390
 H    2.867564   -0.233221   -1.809841
 H    4.966104    0.996996   -2.386350
 H    6.771389    1.195920   -0.657438
 H    6.389604    0.146977    1.578408
 H   -5.304183    0.602902   -1.891702
 H   -2.491464   -1.357147   -0.793829
 H   -0.836382   -1.466021   -1.277512
 H    2.559295   -1.629239    1.645221
 H   -5.852340    1.997670    0.585191
