80 
6oxp_ligand_dft.xyz
 C   -4.804463   -2.162623    1.152567
 O   -5.149091   -2.561007   -0.151300
 C   -3.304782   -2.035569    1.334276
 C   -2.733104   -0.940931    1.980070
 C   -1.350863   -0.835725    2.125332
 C   -0.540621   -1.852072    1.631808
 C   -1.093623   -2.959527    0.986760
 C   -2.468181   -3.035565    0.827379
 S    1.231546   -1.737075    1.821060
 O    1.715153   -2.952315    2.452845
 O    1.512522   -0.427568    2.389903
 N    1.856252   -1.720792    0.271245
 C    2.037895   -3.005982   -0.422443
 C    3.410920   -3.086828   -1.102416
 C    4.516125   -3.265367   -0.059481
 C    3.425190   -4.180958   -2.182834
 C    1.438910   -0.590352   -0.569724
 C    2.374649    0.616880   -0.426678
 C    3.112695   -5.596206   -1.691851
 O    3.721923    0.213792   -0.557126
 C    2.104506    1.668343   -1.513069
 N    0.751873    2.184049   -1.379479
 C   -0.310740    1.604325   -1.985365
 O   -0.271539    0.749470   -2.848839
 O   -1.460519    2.112642   -1.475525
 C   -2.664542    1.503486   -1.920317
 C   -2.803005    0.027811   -1.527482
 O   -4.212494   -0.179396   -1.489803
 C   -4.860947    0.995622   -1.061487
 O   -5.229513    0.908153    0.293596
 C   -4.833648    2.091824    0.971107
 C   -3.552578    2.528988    0.273457
 C   -3.842070    2.151816   -1.188161
 C    3.116351    2.829475   -1.484426
 C    3.743932    3.253094    0.928944
 C    3.638988    3.978441    2.110687
 C    2.839839    5.118360    2.164786
 C    2.149165    5.528816    1.029031
 C    2.255314    4.799605   -0.153436
 C    3.050161    3.651491   -0.218435
 H   -5.287827   -1.217705    1.428939
 H   -5.181289   -2.943217    1.823202
 H   -4.904600   -1.822159   -0.734919
 H   -3.376217   -0.153297    2.363235
 H   -0.896502    0.019032    2.615035
 H   -0.456271   -3.758625    0.622320
 H   -2.914559   -3.875227    0.304134
 H    1.233236   -3.136859   -1.161345
 H    1.952868   -3.803341    0.318878
 H    3.581773   -2.130352   -1.613654
 H    4.434058   -4.231806    0.448983
 H    4.453315   -2.499249    0.720948
 H    5.506294   -3.202689   -0.522326
 H    2.703116   -3.906792   -2.963451
 H    4.411070   -4.176249   -2.663874
 H    0.404346   -0.305305   -0.342713
 H    1.449750   -0.936852   -1.606224
 H    2.208387    1.072059    0.558788
 H    3.145708   -6.306282   -2.524104
 H    2.113640   -5.662671   -1.246556
 H    3.834196   -5.935933   -0.942051
 H    3.849451   -0.492857    0.092232
 H    2.166987    1.184107   -2.491868
 H    0.560746    2.806968   -0.606214
 H   -2.752913    1.614114   -3.004391
 H   -2.381397   -0.659879   -2.257822
 H   -2.344344   -0.152762   -0.546243
 H   -5.762418    1.093414   -1.673284
 H   -4.701376    1.846801    2.027962
 H   -5.619951    2.856442    0.890349
 H   -2.704248    1.955908    0.658692
 H   -3.329348    3.590041    0.400894
 H   -4.257350    2.998441   -1.739294
 H    2.914675    3.464615   -2.353472
 H    4.113613    2.400155   -1.607064
 H    4.358893    2.357919    0.887305
 H    4.180652    3.651181    2.993107
 H    2.758555    5.683834    3.088291
 H    1.530918    6.421569    1.059296
 H    1.722387    5.129688   -1.042662
