45 
6p1l_ligand_xtb.xyz
 C    0.839203   -1.348278    0.243150
 C    5.645451   -1.225664    0.134049
 C   -0.293963    2.815674   -0.416890
 C    0.207474    4.136100   -0.887856
 C   -0.171956    5.209935    0.133318
 C   -1.870528    3.748238    1.286764
 C   -1.461119    1.182006    0.756585
 C   -2.227607   -1.852073    1.118713
 C   -3.504702   -2.400416    1.259173
 C   -4.284800   -2.711724    0.166977
 C   -3.769050   -2.471408   -1.093105
 C   -2.521395   -1.908539   -1.265685
 C   -1.732504   -1.580911   -0.167077
 C   -0.439514   -0.850172   -0.462972
 C    3.238037   -1.193425   -0.037362
 C    4.966787   -1.981647    1.033027
 C    0.143653    1.503910   -0.901554
 C   -1.637636    5.068215    0.545573
 C   -1.212090    2.641275    0.543647
 F   -4.504806   -2.776417   -2.184370
 N    1.947481   -0.948928   -0.432173
 N    3.619110   -1.952259    0.921991
 N   -0.570089    0.578250   -0.204080
 O   -1.561749   -1.576651    2.258718
 O    0.851302   -1.980026    1.278447
 O    0.994227    1.225255   -1.739842
 S    4.552018   -0.417268   -0.926355
 H    6.702437   -1.094289    0.027411
 H    1.288666    4.091409   -1.032399
 H   -0.238408    4.362443   -1.861077
 H    0.459452    5.106677    1.018026
 H    0.000875    6.199901   -0.290432
 H   -1.446469    3.804641    2.294628
 H   -2.939160    3.550498    1.397922
 H   -1.225684    0.862788    1.778130
 H   -2.503727    0.910312    0.555279
 H   -3.859870   -2.578640    2.261404
 H   -5.267108   -3.140673    0.280145
 H   -2.170287   -1.717773   -2.268396
 H   -0.247818   -0.939639   -1.542216
 H    5.405941   -2.585795    1.805082
 H   -1.929230    5.903545    1.183640
 H   -2.262967    5.092584   -0.348797
 H    1.811085   -0.260693   -1.189722
 H   -0.594977   -1.677879    2.102776
