42 
6p3t_ligand_dft.xyz
 O    1.316880    2.272782   -1.716360
 S    0.417177    2.409058   -0.588072
 C   -0.783425    1.098568   -0.696479
 C   -2.041489    1.292997   -0.139689
 C   -2.955119    0.244622   -0.143527
 C   -2.595189   -0.991767   -0.696819
 N   -3.532755   -2.017958   -0.676663
 C   -4.807392   -1.947225   -0.156776
 C   -5.203662   -0.591376    0.442295
 N   -4.234150    0.384050    0.391105
 O   -6.295806   -0.405589    0.923096
 O   -5.568456   -2.884339   -0.168987
 C   -1.328098   -1.167198   -1.252546
 C   -0.415762   -0.124086   -1.255854
 N    1.290464    2.057168    0.808715
 C    2.042220    0.836947    0.789597
 C    3.204587    0.771322    0.062302
 C    3.947519   -0.433501   -0.003358
 C    5.143595   -0.531154   -0.762699
 C    5.850636   -1.704189   -0.803868
 C    5.398448   -2.837819   -0.086747
 C    4.248324   -2.773201    0.655833
 C    3.493338   -1.573093    0.716922
 C    2.296209   -1.469058    1.471162
 C    1.581431   -0.301985    1.501108
 C    0.636636    2.431003    2.063717
 O   -0.294693    3.646105   -0.316003
 H   -2.308864    2.262508    0.269508
 H   -3.288845   -2.915608   -1.076332
 H   -4.509975    1.277778    0.778599
 H   -1.061864   -2.126750   -1.685527
 H    0.568416   -0.249506   -1.692050
 H    3.545467    1.647575   -0.477931
 H    5.486316    0.341021   -1.312662
 H    6.763079   -1.769120   -1.388669
 H    5.969046   -3.760656   -0.127859
 H    3.898862   -3.641422    1.208688
 H    1.943178   -2.337662    2.020766
 H    0.655017   -0.247380    2.063661
 H   -0.274514    1.849921    2.267891
 H    1.352370    2.261706    2.870294
 H    0.382314    3.489331    2.027277
