62 
6p5w_ligand_xtb.xyz
 C    1.565408    1.752709   -0.698137
 C    3.415525   -3.686011   -1.696680
 C    1.381787    2.073591    0.642145
 C    2.447205    2.634057    1.337416
 C    1.941470   -2.467974    0.305479
 C    3.659232    2.857902    0.714676
 C    0.096980    1.752093    1.368852
 C    0.231429    0.386791    2.089900
 C    1.158730   -1.839269    1.406140
 C    1.768757   -3.821174    0.040947
 C    2.501218   -4.423358   -0.966259
 N    0.784917   -0.572867    1.151982
 N   -1.942085   -0.431159    1.428016
 C    2.781252    1.980705   -1.321305
 N   -2.709447    2.010732   -1.051640
 C    5.173222    2.762917   -1.281682
 C    3.619099   -2.335883   -1.427540
 C    4.628124   -1.550548   -2.208855
 C    2.873825   -1.735612   -0.424577
 C   -1.157224   -0.059540    2.610376
 C   -1.998997    0.608363    0.526701
 C    3.847624    2.528830   -0.623996
 C   -1.103361    1.663037    0.476150
 C   -1.610124    2.515854   -0.529163
 C   -1.072627    3.828141   -0.975569
 C   -4.050681    0.057321   -0.771207
 C   -5.177913    0.685791   -1.293754
 C   -6.282940   -0.064745   -1.643358
 C   -6.276439   -1.440301   -1.472904
 C   -5.147238   -2.065754   -0.972917
 C   -4.029108   -1.327039   -0.628714
 N   -2.948393    0.838531   -0.418586
 O    0.886949   -2.441909    2.436713
 O   -1.124975   -1.075851    3.531528
 H    0.749281    1.334431   -1.272280
 H    3.988564   -4.161446   -2.479833
 H    2.324791    2.894610    2.379111
 H    4.476357    3.291727    1.272982
 H   -0.064859    2.521908    2.134578
 H    0.903744    0.470088    2.954212
 H    1.059144   -4.383243    0.628428
 H    2.362299   -5.472747   -1.179770
 H    0.981329   -0.206803    0.232183
 H   -2.825554   -0.865121    1.663804
 H    2.897118    1.722679   -2.364687
 H    5.147736    2.470374   -2.328587
 H    5.952591    2.191201   -0.778228
 H    5.445441    3.815756   -1.222076
 H    5.618696   -1.989211   -2.096648
 H    4.663611   -0.518596   -1.869156
 H    4.378747   -1.562584   -3.269227
 H    3.048892   -0.693776   -0.192384
 H   -1.625993    0.804025    3.120401
 H   -0.950902    4.492193   -0.120936
 H   -0.098661    3.710057   -1.448383
 H   -1.763258    4.273812   -1.685232
 H   -5.157810    1.756207   -1.421495
 H   -7.156391    0.425696   -2.046309
 H   -7.144732   -2.023978   -1.738839
 H   -5.129480   -3.139371   -0.857495
 H   -3.137186   -1.824115   -0.279931
 H   -0.439685   -1.733703    3.258481
