50 
6p83_ligand_xtb.xyz
 C    0.708481   -1.532459   -0.398653
 C    0.576251   -0.130165   -0.375662
 C    1.913621    0.441692   -0.265615
 C    4.137043   -0.700571   -0.014199
 C    4.919083    0.400435   -0.357198
 C    6.283934    0.363561   -0.145754
 C    6.885338   -0.762394    0.392152
 C    6.107258   -1.854856    0.734171
 C    4.738601   -1.829818    0.538582
 C   -3.598142   -2.100301    1.543366
 C   -5.029648   -3.307756   -0.103886
 C   -0.875106    1.878223   -0.342314
 C   -1.413638    2.435590    0.813013
 C   -1.549211    3.803094    0.955092
 C   -1.139620    4.634088   -0.073125
 C   -0.594085    4.097247   -1.225961
 C   -0.456082    2.728293   -1.356717
 C   -1.504624   -1.868482   -0.574624
 C   -0.695233    0.421732   -0.449268
 C   -1.763772   -0.482838   -0.573316
 C   -3.140850    0.025085   -0.734623
 C   -4.263794   -0.981709   -0.604573
 C   -3.882948   -2.307426    0.054689
 C   -2.636130   -2.839323   -0.661331
 N   -0.291446   -2.395452   -0.490745
 N    2.757015   -0.670975   -0.235735
 N    2.013506   -1.850685   -0.232826
 O   -3.375888    1.181977   -1.010986
 O    2.277932    1.596489   -0.217453
Cl   -1.907331    1.396117    2.104424
 H    4.450167    1.278404   -0.767585
 H    6.882415    1.222242   -0.409498
 H    7.952727   -0.786627    0.549974
 H    6.564729   -2.733581    1.163971
 H    4.142764   -2.678202    0.840421
 H   -4.495139   -1.757926    2.054460
 H   -3.277666   -3.033347    2.001528
 H   -2.818500   -1.358728    1.696875
 H   -4.776011   -4.253207    0.369878
 H   -5.934190   -2.924087    0.362180
 H   -5.239809   -3.496744   -1.154517
 H   -1.969296    4.208874    1.862477
 H   -1.246115    5.702974    0.032893
 H   -0.269868    4.746255   -2.024921
 H   -0.029555    2.303853   -2.252598
 H   -4.622498   -1.166616   -1.623221
 H   -5.082109   -0.496135   -0.067999
 H   -2.308571   -3.790071   -0.239237
 H   -2.870892   -3.010577   -1.716863
 H    2.441816   -2.704350   -0.556229
