47 
6p84_ligand_xtb.xyz
 C    0.607531   -1.368192   -0.314000
 C    0.490381    0.034949   -0.265904
 C   -0.788606    0.596716   -0.290653
 C   -1.859245   -0.313157   -0.427674
 C   -3.230600    0.161165   -0.701794
 C   -4.367382   -0.795818   -0.409141
 C   -3.964519   -2.119808    0.241210
 C    1.840445    0.581624   -0.168452
 C    6.219890    0.415979   -0.203945
 C    6.813802   -0.728615    0.302067
 C    6.022921   -1.804881    0.665384
 C    4.649204   -1.745609    0.520675
 C   -5.118077   -3.119195    0.134244
 C   -3.621055   -1.905968    1.717155
 C   -0.333318    3.056213   -0.705713
 C   -0.753483    4.315008   -0.235575
 C   -1.699098    4.222631    0.735579
 C   -1.606456   -1.697486   -0.446918
 C    4.054451   -0.598277   -0.001883
 C    4.849318    0.487149   -0.364122
 C   -0.987294    2.018372   -0.105249
 C   -2.747908   -2.657729   -0.521312
 N   -0.395095   -2.229981   -0.385181
 N    2.669151   -0.542038   -0.178339
 N    1.910695   -1.709830   -0.174603
 O   -3.451069    1.239619   -1.210617
 O    2.235544    1.726126   -0.101499
 S   -2.123792    2.598551    1.076051
 H   -4.866055   -0.983810   -1.365295
 H   -5.086721   -0.258935    0.214334
 H    6.829027    1.262068   -0.483678
 H    7.885473   -0.779949    0.418706
 H    6.474540   -2.697783    1.071500
 H    4.043670   -2.581538    0.837694
 H   -4.852100   -4.057943    0.614511
 H   -6.007294   -2.725809    0.621302
 H   -5.360005   -3.324285   -0.906396
 H   -4.504490   -1.587416    2.265955
 H   -3.257699   -2.830751    2.159708
 H   -2.854213   -1.144693    1.837225
 H    0.410537    2.919198   -1.467961
 H   -0.359458    5.247627   -0.597309
 H   -2.176763    5.013255    1.279894
 H    4.386682    1.379174   -0.750603
 H   -3.016984   -2.809821   -1.571117
 H   -2.417653   -3.617577   -0.122780
 H    2.315677   -2.561272   -0.532585
