47 
6p84_ligand_dft.xyz
 C    0.475824   -1.393386   -0.242444
 C    0.430423   -0.002193   -0.190073
 C   -0.809925    0.629125   -0.157221
 C   -1.937788   -0.218496   -0.192526
 C   -3.331231    0.315147   -0.031636
 C   -4.457649   -0.614565   -0.435837
 C   -4.250618   -2.042507    0.094985
 C    1.819100    0.489804   -0.268042
 C    6.202574    0.081988   -0.279139
 C    6.714826   -1.062819    0.325524
 C    5.844942   -2.076358    0.713346
 C    4.475868   -1.951638    0.503834
 C   -5.396227   -2.941803   -0.377761
 C   -4.207416   -2.038413    1.630574
 C   -1.265574    2.897868   -1.208546
 C   -1.214957    4.284666   -0.891157
 C   -0.812740    4.510906    0.391361
 C   -1.752983   -1.618604   -0.317801
 C    3.973088   -0.802102   -0.109904
 C    4.839222    0.219759   -0.509815
 C   -0.896620    2.103748   -0.161137
 C   -2.923981   -2.558041   -0.477756
 N   -0.556903   -2.215481   -0.336463
 N    2.586542   -0.683119   -0.358082
 N    1.785423   -1.833637   -0.220915
 O   -3.556650    1.414711    0.428330
 O    2.266366    1.617627   -0.256693
 S   -0.477669    3.044274    1.224779
 H   -4.501605   -0.641170   -1.535099
 H   -5.393165   -0.178676   -0.073482
 H    6.870970    0.881018   -0.585235
 H    7.782425   -1.162897    0.493871
 H    6.228060   -2.971969    1.193123
 H    3.797801   -2.730541    0.834384
 H   -5.242805   -3.974802   -0.044569
 H   -6.353609   -2.595823    0.027425
 H   -5.473133   -2.946561   -1.471286
 H   -5.135683   -1.626658    2.041354
 H   -4.089315   -3.058252    2.013206
 H   -3.377569   -1.438199    2.019828
 H   -1.565214    2.502056   -2.172038
 H   -1.467967    5.074759   -1.587941
 H   -0.692399    5.459752    0.895551
 H    4.440412    1.110484   -0.976138
 H   -3.044785   -2.739739   -1.556354
 H   -2.649242   -3.520437   -0.034221
 H    2.017427   -2.556295   -0.896700
