58 
6p8a_ligand_xtb.xyz
 C   -2.967171   -0.665523   -0.174207
 C   -2.160745    1.397101   -0.467540
 C   -4.166024    2.854020    0.461819
 C   -2.971953    3.428812   -0.010095
 C   -3.712047   -2.940719   -0.611821
 C   -4.362339   -2.036120    1.313241
 C   -4.851232   -3.307411    1.276931
 C   -4.446695   -3.878995    0.048148
 C   -5.667933    0.915355    0.955222
 C    4.086861   -1.555319   -0.301249
 C    2.859638   -1.941403    0.524109
 C    6.371162   -0.658846   -0.231759
 C    4.557544    0.702202    0.588341
 C    1.707839   -2.395831   -0.391846
 C    5.590757    1.530768    1.354541
 C    7.334747    0.221605    0.571767
 C   -2.801159    4.911445   -0.009572
 C    1.117634   -0.116085   -1.228475
 C   -3.289934    0.705684    0.044558
 C   -4.368560    1.488267    0.496976
 C   -0.082517    0.724848   -1.662063
 N    5.046875   -0.693293    0.436791
 N   -1.297278    0.471550   -0.945491
 N    0.799926   -1.330514   -0.768329
 N   -1.794340   -0.772960   -0.774773
 N   -3.671981   -1.804534    0.152552
 N   -1.972819    2.710052   -0.490981
 O    2.254789    0.320218   -1.338339
 O    6.832980    1.523120    0.701220
 H   -4.954335    3.513854    0.791022
 H   -3.233522   -2.965860   -1.570081
 H   -4.411115   -1.295198    2.084770
 H   -5.435286   -3.784034    2.038428
 H   -4.677604   -4.865934   -0.299185
 H   -5.641920    0.729966    2.029315
 H   -6.474485    1.618913    0.762713
 H   -5.884300   -0.023747    0.452254
 H    3.749311   -0.986848   -1.173648
 H    4.610251   -2.457351   -0.623030
 H    2.500214   -1.095944    1.110454
 H    3.107424   -2.751998    1.210708
 H    6.768405   -1.671091   -0.318723
 H    6.230866   -0.235949   -1.228648
 H    4.393011    1.112419   -0.409898
 H    3.605000    0.708192    1.114921
 H    1.106664   -3.140230    0.130909
 H    2.124384   -2.868536   -1.289295
 H    5.696223    1.147099    2.382502
 H    5.272470    2.572752    1.398763
 H    8.287717    0.306881    0.048086
 H    7.513455   -0.225555    1.563218
 H   -3.582352    5.378977   -0.605967
 H   -2.878749    5.298561    1.004997
 H   -1.830993    5.171049   -0.421947
 H   -0.224884    0.529670   -2.734537
 H    0.150926    1.784906   -1.538007
 H    5.178881   -1.083057    1.379076
 H   -0.207724   -1.533866   -0.742762
