65 
6p8y_ligand_xtb.xyz
 C    8.157218   -4.566631   -0.918178
 C    8.191195   -3.411708    0.082884
 C    7.500534   -2.201478   -0.517356
 O    8.069009   -1.346938   -1.163967
 N    6.169379   -2.150708   -0.311095
 C    5.204836   -1.171013   -0.777840
 C    4.109327   -1.934670   -0.009287
 C    5.204677   -2.924567    0.443564
 N    3.462612   -1.195379    1.036655
 C    2.119118   -1.170041    1.185308
 O    1.355647   -1.785745    0.478990
 C    1.612616   -0.263132    2.320665
 N    0.601971    0.609000    1.796271
 C   -0.718979    0.287903    1.675821
 C   -1.389285    1.251635    0.971824
 C   -2.828119    1.399053    0.675078
 O   -3.366950    2.495613    0.722102
 N   -3.532882    0.286338    0.354632
 C   -2.972361   -1.019846    0.096030
 C   -3.746431   -1.722638   -1.021100
 C   -5.167322   -1.874196   -0.573135
 C   -5.884130   -3.068802   -0.702254
 O   -5.229492   -4.100995   -1.311785
 C   -5.898318   -5.329371   -1.452643
 C   -7.185320   -3.133242   -0.218921
 C   -7.754020   -2.028084    0.394664
 C   -7.044065   -0.852578    0.535146
 C   -5.746147   -0.776993    0.046985
 C   -4.957332    0.492309    0.118109
 C   -0.412499    2.240687    0.626756
 C   -0.489108    3.444759   -0.068017
 C    0.681721    4.145099   -0.243657
Br    0.642624    5.802822   -1.186406
 C    1.913739    3.694267    0.236180
 C    1.999790    2.506612    0.929687
 C    0.829327    1.784151    1.128840
 H    7.133186   -4.857099   -1.143043
 H    8.640692   -4.267179   -1.844630
 H    8.681596   -5.430201   -0.515880
 H    9.227241   -3.139758    0.286421
 H    7.708070   -3.704473    1.015903
 H    5.097814   -1.148705   -1.863333
 H    5.407279   -0.157939   -0.421195
 H    3.322244   -2.369578   -0.625781
 H    5.387656   -2.932352    1.522979
 H    5.075455   -3.950675    0.092786
 H    4.055904   -0.659735    1.651592
 H    2.419098    0.327110    2.761233
 H    1.168092   -0.898024    3.093219
 H   -1.093685   -0.601511    2.143742
 H   -3.033527   -1.640691    1.000671
 H   -1.921647   -0.913215   -0.181818
 H   -3.304195   -2.695611   -1.228382
 H   -3.699166   -1.118900   -1.931391
 H   -6.173016   -5.752785   -0.480964
 H   -6.794772   -5.231760   -2.073291
 H   -5.190957   -5.993900   -1.946745
 H   -7.765820   -4.037302   -0.311109
 H   -8.765098   -2.095825    0.767460
 H   -7.490940    0.004125    1.015894
 H   -5.080126    1.041117   -0.828312
 H   -5.335882    1.146211    0.909729
 H   -1.437857    3.806259   -0.430257
 H    2.798861    4.285622    0.060448
 H    2.954414    2.162854    1.299383
