56 
6pdj_ligand_dft.xyz
 C   -7.149300   -2.690651   -0.363491
 C    4.460565   -0.599668    0.368440
 C    3.101880   -0.066475    0.187769
 C    0.909713    1.365761    2.022334
 C   -8.748885    2.281954   -0.699720
 C    5.619988    0.012001   -0.132811
 C    4.939336   -1.740948    1.030887
 C    5.920270    1.176563   -0.881688
 C    7.218452    1.447971   -1.194146
 C    8.268168    0.575519   -0.774284
 C    7.975350   -0.545673   -0.049923
 C   -8.730646   -0.883551   -0.783426
 C   -8.435250   -2.230095   -0.725419
 N    2.086158   -0.900844    0.598071
 C    0.705047   -0.604306    0.441514
 C   -0.070888   -1.436119   -0.363233
 C   -1.431084   -1.219005   -0.505187
 C   -2.034205   -0.141000    0.148425
 C   -1.257337    0.693859    0.953358
 C    0.109606    0.467122    1.120695
 N   -3.419498    0.030462   -0.034950
 C   -4.250025    0.991102    0.496333
 O   -3.888513    1.903713    1.213384
 C   -5.674867    0.787227    0.099840
 N   -6.455823    1.836782   -0.073661
 N   -7.663717    1.369699   -0.424847
 C   -7.690406    0.006117   -0.478101
 C   -6.395915   -0.429618   -0.135258
 C   -6.130769   -1.809593   -0.063079
 O    2.895247    1.044697   -0.281572
 N    6.659738   -0.796255    0.251454
 N    6.262977   -1.870182    0.966294
 O    9.514976    0.948759   -1.143016
 C   10.583658    0.118292   -0.743479
 H   -6.967027   -3.759393   -0.312701
 H    1.602076    0.782870    2.639327
 H    1.513960    2.057970    1.428140
 H    0.253233    1.940665    2.680438
 H   -8.370964    3.291498   -0.542918
 H   -9.089921    2.174664   -1.734281
 H   -9.586643    2.095813   -0.020469
 H    4.380189   -2.485220    1.584126
 H    5.098672    1.817308   -1.174913
 H    7.492173    2.329206   -1.763695
 H    8.676992   -1.276121    0.324562
 H   -9.722319   -0.530563   -1.047784
 H   -9.210429   -2.955235   -0.953396
 H    2.320617   -1.873482    0.729938
 H    0.402491   -2.259554   -0.891240
 H   -2.022014   -1.881560   -1.133332
 H   -1.731149    1.522400    1.462098
 H   -3.840023   -0.583239   -0.717720
 H   -5.155813   -2.177063    0.243806
 H   10.645392    0.049046    0.350415
 H   10.482903   -0.889907   -1.166174
 H   11.490343    0.584205   -1.129212
