56 
6pdj_ligand_xtb.xyz
 C   -6.486943   -2.912442    1.121201
 C    4.438271    0.436583    0.119710
 C    3.086045   -0.110006   -0.036076
 C    0.494640    3.117114    0.688640
 C   -9.094312    0.930730   -1.255975
 C    5.620319   -0.309618   -0.058594
 C    4.897810    1.717950    0.446858
 C    5.918910   -1.637764   -0.392368
 C    7.223442   -2.018666   -0.484276
 C    8.268283   -1.084590   -0.245678
 C    7.957706    0.208841    0.082816
 C   -8.405959   -1.850007    0.090756
 C   -7.829412   -2.929147    0.717093
 N    2.100740    0.817903    0.154627
 C    0.714494    0.668218    0.071414
 C    0.123160   -0.547502   -0.259945
 C   -1.248696   -0.659343   -0.341919
 C   -2.063659    0.441294   -0.092939
 C   -1.472701    1.655338    0.241626
 C   -0.097525    1.784228    0.326650
 N   -3.447554    0.271569   -0.184686
 C   -4.443550    1.191777   -0.001517
 O   -4.270460    2.360484    0.267045
 C   -5.783891    0.581324   -0.159035
 N   -6.781005    1.246412   -0.705159
 N   -7.856779    0.466764   -0.702967
 C   -7.594079   -0.740874   -0.136987
 C   -6.228345   -0.717422    0.243163
 C   -5.678682   -1.823648    0.898178
 O    2.892430   -1.281579   -0.311583
 N    6.652740    0.566357    0.168918
 N    6.222240    1.782870    0.473646
 O    9.527014   -1.572481   -0.369618
 C   10.607482   -0.694059   -0.159350
 H   -6.085913   -3.779478    1.624476
 H    1.090706    3.049055    1.599958
 H    1.126433    3.497983   -0.115382
 H   -0.299493    3.838291    0.860272
 H   -8.938003    1.952260   -1.595370
 H   -9.397800    0.307996   -2.100545
 H   -9.881862    0.914820   -0.499798
 H    4.342312    2.609427    0.669405
 H    5.097799   -2.313544   -0.565924
 H    7.504411   -3.027117   -0.738452
 H    8.667009    0.993345    0.284485
 H   -9.443169   -1.855503   -0.206712
 H   -8.422054   -3.809703    0.914734
 H    2.407533    1.750798    0.381251
 H    0.749782   -1.401398   -0.452870
 H   -1.690929   -1.610706   -0.603058
 H   -2.103505    2.507111    0.433592
 H   -3.735235   -0.657626   -0.458890
 H   -4.653904   -1.819286    1.239324
 H   10.589902    0.137594   -0.870402
 H   10.609562   -0.300215    0.861617
 H   11.505008   -1.288482   -0.319791
