48 
6pf4_ligand_xtb.xyz
 N   -5.905061    1.831500   -0.518570
 C   -4.984781    1.361048    0.278434
 O   -4.896267   -2.099394   -0.857000
 N   -6.090872   -0.297443   -1.579777
 C   -4.566873   -0.021838    0.196771
 O    2.976689   -2.781050   -0.481840
 N   -4.311229    2.026773    1.270948
 C   -5.182744   -0.919032   -0.810551
 O    2.543450    2.275653    0.525798
 C    0.466853   -2.722411    0.794351
 C    1.130039   -1.570859    0.373019
 C    0.432308   -0.367425    0.336889
 C   -0.892623   -0.322222    0.732698
 C    2.544489   -1.722177   -0.075302
 C    4.606612   -0.378112   -0.373015
 C    5.340053    0.698619    0.150729
 C    6.625380    0.935270   -0.314420
 C    7.205736    0.115418   -1.265729
 C    6.489703   -0.959466   -1.762235
 C    5.203768   -1.205633   -1.322116
 C    4.744716    1.613090    1.199594
 C    3.724379    2.500128    0.510337
 C   -6.442391    0.971257   -1.531869
 C   -3.715461   -0.215445    1.248135
 C   -3.597175    1.107814    1.864621
 C   -2.990704   -1.444993    1.629191
 C   -1.547675   -1.465184    1.170529
 C   -0.851684   -2.668937    1.194166
 N   -7.251489    1.591553   -2.310637
 N    3.293200   -0.582751    0.050360
 O    4.222502    3.529045   -0.177756
 H   -6.174740    2.809665   -0.549151
 H    1.009110   -3.655847    0.796935
 H    0.893208    0.543180   -0.015614
 H   -1.419422    0.621318    0.690206
 H    7.193713    1.762554    0.090376
 H    8.208986    0.314355   -1.609335
 H    6.930854   -1.608884   -2.502497
 H    4.647774   -2.042377   -1.709169
 H    5.530818    2.218846    1.654606
 H    4.249449    1.035009    1.982016
 H   -2.948832    1.361024    2.684634
 H   -3.505328   -2.295327    1.171117
 H   -3.004953   -1.562406    2.718367
 H   -1.352747   -3.568494    1.519534
 H   -7.641375    1.003017   -3.037782
 H    2.830013    0.211939    0.470770
 H    5.189079    3.557514   -0.160250
