50 
6pf4_ligand_dft.xyz
 N   30.660017  -43.757986  -15.349039
 C   30.331118  -42.439213  -15.437089
 O   26.768142  -42.496640  -15.951739
 N   28.347829  -44.109452  -15.644820
 C   29.071878  -41.874721  -15.637749
 O   25.146571  -38.979958  -10.085955
 N   31.228221  -41.425522  -15.366016
 C   27.948811  -42.753405  -15.766660
 O   27.257489  -34.352830  -11.053565
 C   26.006476  -39.530987  -12.684789
 C   26.432562  -38.390605  -11.999106
 C   27.421968  -37.588392  -12.573882
 C   27.957284  -37.921264  -13.812767
 C   25.797503  -38.124081  -10.664554
 C   25.530775  -36.379346   -8.917124
 C   26.298715  -35.417150   -8.236886
 C   25.813288  -34.871832   -7.049465
 C   24.601820  -35.288645   -6.511953
 C   23.864366  -36.265634   -7.173194
 C   24.317772  -36.806587   -8.369565
 C   27.661571  -34.995830   -8.756796
 C   27.534657  -34.034103   -9.914150
 C   29.630610  -44.548975  -15.447092
 C   29.230515  -40.450996  -15.690457
 C   30.565988  -40.216261  -15.519816
 C   28.138182  -39.427028  -15.838908
 C   27.523625  -39.052338  -14.503781
 C   26.539583  -39.856757  -13.923479
 N   29.793356  -45.907703  -15.303527
 N   26.005201  -36.864651  -10.153144
 O   27.726461  -32.758890   -9.559858
 H   27.579326  -44.767426  -15.640410
 H   32.217493  -41.554460  -15.229465
 H   25.247824  -40.154698  -12.224031
 H   27.797651  -36.701874  -12.071048
 H   28.728401  -37.289272  -14.247305
 H   26.406623  -34.121198   -6.533652
 H   24.243096  -34.861308   -5.580882
 H   22.919756  -36.607908   -6.761320
 H   23.748283  -37.568003   -8.884424
 H   28.209513  -35.872696   -9.117754
 H   28.237066  -34.526121   -7.956966
 H   31.109041  -39.283125  -15.487455
 H   28.544691  -38.529541  -16.318316
 H   27.361727  -39.829096  -16.496689
 H   26.202269  -40.744322  -14.452199
 H   30.765738  -46.182417  -15.311060
 H   29.199957  -46.504076  -15.862626
 H   26.455322  -36.176385  -10.746092
 H   27.577866  -32.221292  -10.355381
