48 
6pf6_ligand_xtb.xyz
 C   -1.746891   -0.795256   -0.581137
 C    1.919113   -1.131260   -1.259280
 C    5.611611    0.932649    0.852356
 C    4.436213    2.128618   -0.445967
 C    4.407575    0.787717   -1.032171
 C    6.836570   -0.847301    1.792164
 C    5.485339   -1.415698   -0.088447
 C    5.095447    0.014201   -0.137284
 C    3.668325    0.374763   -2.246359
 C   -0.050697    0.799643   -1.599990
 C   -0.375276   -0.425295   -1.020815
 C    0.621640   -1.389423   -0.867719
 C   -3.886456    0.287927    0.050232
 C   -4.639018   -0.889664    0.086130
 C   -5.973815   -0.873972    0.451880
 C   -6.592078    0.337242    0.764336
 C   -5.861673    1.503495    0.744863
 C   -4.503095    1.509448    0.412596
 C   -3.727544    2.775518    0.419287
 C   -6.818638   -2.112449    0.500798
 C    2.239610    0.092903   -1.833417
 C    1.249821    1.052654   -1.996496
 N    6.474735    0.539619    1.748703
 N    6.365621   -1.682647    0.888522
 N    5.110565    2.198285    0.668552
 N    7.617842   -1.111677    2.773811
 N   -2.562623    0.279818   -0.330217
 O    5.054209   -2.217273   -0.894976
 O   -2.090980   -1.952965   -0.443782
 O   -4.218960    3.794206    1.128692
 O   -2.676832    2.920204   -0.167381
 O   -8.017490   -2.061512    0.537767
 O   -6.176992   -3.284685    0.518168
 H    2.689422   -1.877626   -1.133779
 H    3.904321    2.984908   -0.820223
 H    4.114767   -0.542452   -2.635520
 H    3.697480    1.162414   -3.000603
 H   -0.797153    1.560911   -1.771074
 H    0.355320   -2.341400   -0.434273
 H   -4.137728   -1.796372   -0.215964
 H   -7.641146    0.334994    1.013935
 H   -6.378493    2.430485    0.956368
 H    1.488606    2.003178   -2.451174
 H    6.813748    1.133480    2.499116
 H    7.888700   -2.087003    2.823313
 H   -2.157723    1.213060   -0.402027
 H   -5.030367    3.573439    1.605981
 H   -5.212872   -3.198347    0.499055
