42 
6pgb_ligand_xtb.xyz
 C   24.018578   73.432828    4.963336
 N   22.925212   73.902555    7.123759
 C   21.668438   73.509717    7.409641
 C   20.636268   75.629861    6.724057
 C   19.708433   76.222535    4.583877
 C   21.449374   76.755628    6.664977
 O   17.422103   73.015569    6.169187
 C   17.393762   71.902511    5.287517
 C   18.585494   71.952964    4.398111
 C   18.716469   72.054756    3.039385
 N   20.029806   72.047884    2.691688
 C   20.698323   71.950282    3.813745
 N   19.865140   71.882790    4.880082
 C   22.175563   71.952424    3.982686
 C   22.690827   73.383279    4.206729
 C   23.876207   73.054395    6.443016
 C   20.754445   74.646194    7.856312
 C   19.757613   75.375826    5.676642
 C   20.530429   77.335834    4.526738
 C   21.393351   77.606542    5.574324
 O   21.292362   72.355628    7.318535
 H   24.737612   72.756387    4.499105
 H   24.421624   74.447083    4.900454
 H   23.121600   74.892516    7.118769
 H   19.029407   76.006459    3.773169
 H   22.118659   76.983804    7.485234
 H   16.640163   72.992544    6.729438
 H   16.488018   71.922406    4.667472
 H   17.401787   70.967607    5.870495
 H   17.950160   72.122565    2.293239
 H   20.144728   71.856527    5.854168
 H   22.643585   71.520323    3.098801
 H   22.413980   71.331695    4.847390
 H   21.941822   73.952139    4.762609
 H   22.804707   73.872174    3.238742
 H   23.515062   72.030620    6.551952
 H   24.847642   73.136953    6.940367
 H   19.780992   74.219272    8.098194
 H   21.175377   75.119410    8.745104
 H   19.105647   74.517374    5.724028
 H   20.494362   77.994773    3.672121
 H   22.026868   78.481367    5.543804
