46 
6pgc_ligand_xtb.xyz
 O   24.001670    4.369805   -5.605866
 C   23.115140    4.036197   -4.557819
 C   21.834190    4.781472   -4.730083
 C   21.407751    5.528009   -5.792128
 N   20.166000    5.985399   -5.450583
 C   19.892921    5.504063   -4.213218
 C   18.622373    5.838512   -3.517348
 C   18.678777    7.254716   -2.923781
 C   17.291741    7.865255   -2.724571
 C   16.664246    8.338145   -4.040886
 N   17.435325    9.386411   -4.682735
 C   18.145552    9.100205   -5.788879
 O   18.760039   10.184383   -6.321461
 C   19.569729    9.919776   -7.455986
 O   18.249565    7.989571   -6.271233
 C   17.284271   10.735116   -4.164287
 C   15.936137   11.306032   -4.527471
 C   14.951892   11.484726   -3.565293
 C   13.707281   11.978789   -3.917627
 C   13.434070   12.292035   -5.237466
 C   14.410151   12.113087   -6.204102
 C   15.653911   11.622855   -5.850751
 N   20.879926    4.777406   -3.753313
 H   24.817413    3.873636   -5.484110
 H   22.905180    2.954692   -4.555925
 H   23.546713    4.293970   -3.579093
 H   21.881204    5.754056   -6.723328
 H   19.553813    6.581946   -5.993016
 H   17.812161    5.778332   -4.246258
 H   18.441579    5.108220   -2.729670
 H   19.206859    7.215809   -1.970252
 H   19.254265    7.903022   -3.587500
 H   17.365806    8.711667   -2.038748
 H   16.624965    7.130090   -2.271431
 H   15.654411    8.718483   -3.857947
 H   16.601835    7.508219   -4.746513
 H   19.875229   10.890584   -7.838240
 H   20.446107    9.332234   -7.173012
 H   19.003717    9.370579   -8.211167
 H   17.398515   10.700719   -3.077306
 H   18.080937   11.351798   -4.581873
 H   15.160805   11.241846   -2.532671
 H   12.949865   12.116387   -3.160014
 H   12.463013   12.675608   -5.513050
 H   14.200912   12.357998   -7.234909
 H   16.418041   11.484142   -6.601079
