28 
6pge_ligand_dft.xyz
 C    4.629288   -3.321867  102.275693
 C    4.987501   -4.523656  101.738577
 C    2.851168   -4.592369  101.920325
 C   -0.198196   -6.826306  101.247829
 C   -1.584788   -9.923324   99.968438
 C    6.357238   -5.012458  101.399091
 C    1.414416   -5.011577  101.891590
 C    1.247633   -6.393206  101.272320
 C   -1.663186   -8.558416  100.619104
 N    3.255500   -3.378104  102.387267
 N    3.877949   -5.308203  101.520251
 O   -1.132357   -6.180064  101.664812
 O    7.285035   -3.996820  101.728321
 O   -0.326794   -8.041969  100.695476
 H    5.209168   -2.464532  102.575606
 H   -2.587335  -10.355136   99.890076
 H   -1.159418   -9.850443   98.963396
 H   -0.961260  -10.600097  100.559657
 H    6.559877   -5.940469  101.956329
 H    6.397384   -5.264366  100.327767
 H    0.818138   -4.283477  101.328423
 H    0.999803   -5.014409  102.907006
 H    1.833036   -7.138900  101.819758
 H    1.641742   -6.414207  100.251116
 H   -2.280355   -7.864568  100.039940
 H   -2.082846   -8.610590  101.628523
 H    2.658087   -2.651939  102.748810
 H    8.165574   -4.318531  101.509500
