59 
6pgo_ligand_dft.xyz
 C    7.699549    1.140332    0.305686
 C    7.719528   -0.325318   -0.146858
 C    6.563410   -1.111217    0.455399
 O    6.726250   -1.761316    1.478619
 N    5.339040   -1.037239   -0.160474
 C    4.197782   -1.701357    0.446312
 C    3.120965   -0.681351    0.791163
 N    2.749858    0.076607   -0.413188
 C    3.904396    0.787018   -0.955825
 C    4.989136   -0.226669   -1.314368
 C    1.568313    0.818930   -0.319401
 N    1.648834    2.123622   -0.409177
 N    0.544096    2.894446   -0.275940
 C   -0.627543    2.359040   -0.032422
 C   -1.733841    3.322926    0.207031
 C   -1.871062    4.436343   -0.626262
 C   -2.882326    5.362545   -0.401003
 C   -3.762764    5.193693    0.665179
 C   -3.621639    4.097394    1.510698
 C   -2.612408    3.166998    1.283631
 C   -0.833322    0.934389   -0.042665
 C   -2.099210    0.312527    0.004594
 C   -2.239812   -1.054578   -0.100889
 C   -1.073391   -1.833152   -0.303639
Cl   -1.210367   -3.556244   -0.532585
 C    0.172584   -1.261045   -0.369629
 C    0.309193    0.132089   -0.212661
 C   -3.594104   -1.662487   -0.040615
 C   -4.524680   -1.481214   -1.072956
 O   -4.123146   -0.744718   -2.138353
 C   -5.799168   -2.043817   -0.988849
 C   -6.153489   -2.790166    0.128906
 C   -5.254903   -2.985110    1.171035
 C   -3.997459   -2.414725    1.057887
 F   -3.119670   -2.587233    2.055341
 H    6.815314    1.672611   -0.061052
 H    7.694982    1.196651    1.398270
 H    8.585578    1.667824   -0.059756
 H    8.623246   -0.810608    0.227528
 H    7.740147   -0.394596   -1.239414
 H    4.549271   -2.215713    1.340406
 H    3.790995   -2.439976   -0.258330
 H    3.502688    0.004270    1.565459
 H    2.243095   -1.187657    1.197737
 H    4.297903    1.520957   -0.235463
 H    3.592503    1.336181   -1.846419
 H    4.617084   -0.883429   -2.112722
 H    5.864073    0.299788   -1.693714
 H   -1.171773    4.567084   -1.445465
 H   -2.982475    6.220772   -1.058777
 H   -4.551880    5.918828    0.840634
 H   -4.292344    3.968680    2.354915
 H   -2.491778    2.326848    1.962053
 H   -2.992354    0.918562    0.100328
 H    1.042439   -1.868611   -0.588619
 H   -4.840072   -0.699747   -2.782191
 H   -6.509872   -1.898393   -1.798373
 H   -7.146129   -3.224965    0.187488
 H   -5.507414   -3.560010    2.053804
