69 
6pgp_ligand_xtb.xyz
 C   -1.637678    3.420590    3.078211
 C   -1.036239    3.602721    1.683344
 C   -0.326824    4.952419    1.553334
 C   -2.085688    3.480848    0.606365
 C   -3.232471    4.266945    0.635019
 C   -4.196697    4.173693   -0.350313
 C   -4.031676    3.288016   -1.401873
 C   -2.895915    2.504732   -1.459508
 C   -1.934337    2.597670   -0.461142
 N   -0.759339    1.796657   -0.569766
 C   -0.814093    0.441245   -0.434833
 C   -2.017918   -0.214153   -0.147872
 C    0.413200    2.446232   -1.038842
 O    0.359881    3.605095   -1.378773
 N    1.551418    1.724447   -1.004417
 C    1.586983    0.447444   -0.729430
 N    2.819206   -0.092482   -0.607771
 C    3.135047   -1.284637    0.153460
 C    4.358211   -1.024939    1.027771
 C    3.943873    0.791792   -0.860073
 C    5.230442   -0.007008   -1.017274
 N    5.514341   -0.739879    0.200656
 C    6.704997   -1.301402    0.533004
 O    6.820568   -1.977173    1.537463
 C    7.885479   -1.012749   -0.374451
 C    8.565061    0.289953    0.050967
 C    0.364049   -0.323129   -0.596920
 C    0.256426   -1.714712   -0.672204
 C   -0.954978   -2.334237   -0.467924
Cl   -1.062256   -4.052956   -0.642361
 C   -2.098981   -1.589997   -0.148418
 C   -3.383643   -2.256010    0.137690
 C   -3.531534   -3.118789    1.216038
 F   -2.484537   -3.303352    2.043869
 C   -4.717581   -3.772220    1.492877
 C   -5.799905   -3.557117    0.659644
 C   -5.694096   -2.695064   -0.416626
 C   -4.497860   -2.039206   -0.682024
 O   -4.359461   -1.193103   -1.732950
 H   -2.330859    4.223109    3.315852
 H   -2.169904    2.473436    3.144552
 H   -0.846652    3.424337    3.824894
 H   -0.289764    2.814902    1.535892
 H    0.101503    5.044423    0.558007
 H   -1.025455    5.771010    1.709123
 H    0.471154    5.030972    2.288485
 H   -3.372114    4.969188    1.442687
 H   -5.077077    4.797479   -0.301631
 H   -4.778030    3.215229   -2.178584
 H   -2.741796    1.814079   -2.275698
 H   -2.903126    0.366751    0.055616
 H    3.353778   -2.124090   -0.519097
 H    2.291546   -1.553331    0.791812
 H    4.595915   -1.905083    1.630549
 H    4.160446   -0.188161    1.707982
 H    4.046211    1.523732   -0.050556
 H    3.727673    1.351796   -1.771842
 H    6.039707    0.690226   -1.239323
 H    5.126839   -0.698551   -1.865516
 H    7.586362   -0.972383   -1.421371
 H    8.590807   -1.834913   -0.245287
 H    7.892476    1.140013   -0.042890
 H    8.878930    0.217899    1.089283
 H    9.442531    0.474292   -0.564396
 H    1.107696   -2.316851   -0.938300
 H   -4.777189   -4.431053    2.343394
 H   -6.733941   -4.061439    0.851314
 H   -6.544914   -2.527725   -1.062784
 H   -5.184781   -1.152198   -2.231667
