33 
6phr_ligand_xtb.xyz
 C    4.416865    0.857214   -1.009831
 C    3.357214   -0.217489   -0.804645
 C    2.311001    0.214628    0.220669
 C    0.700688    2.001968    0.703883
 C   -0.518854    1.167392    1.138903
 C   -1.438319    0.819671   -0.029405
 C   -2.696550    0.092993    0.440260
 C   -3.599142   -0.263297   -0.728421
 N    4.885111   -2.933950    0.595423
 N    1.603604    1.393127   -0.245130
 S   -5.097231   -1.127006   -0.108105
 H    4.979607    1.012497   -0.092497
 H    5.110515    0.565193   -1.794731
 H    3.824451   -1.143329   -0.462660
 H    2.857578   -0.419369   -1.755443
 H    2.807323    0.482373    1.158270
 H    1.641723   -0.638808    0.425726
 H    1.286370    2.255547    1.593214
 H    0.346424    2.936496    0.256654
 H   -1.077813    1.743895    1.878850
 H   -0.180169    0.249147    1.622611
 H   -0.907087    0.182106   -0.740839
 H   -1.723033    1.737568   -0.551039
 H   -3.248121    0.726096    1.139113
 H   -2.418377   -0.821125    0.970026
 H   -3.093961   -0.934761   -1.423401
 H   -3.927760    0.632556   -1.256017
 H    4.629816   -2.842509    1.571273
 H    5.872149   -2.721453    0.515144
 H    4.756979   -3.903626    0.333012
 H    1.117205    1.181878   -1.110706
 H    3.944624    1.796301   -1.285368
 H   -5.661160   -1.297298   -1.302035
