34 
6pht_ligand_xtb.xyz
 C   27.234908   35.634310   73.186333
 B   26.275796   36.412215   74.196785
 C   35.019457   34.221782   72.022174
 C   34.354433   34.799861   73.271166
 C   33.342798   35.914037   72.944997
 C   31.202461   34.731975   72.931898
 C   29.975473   34.464529   72.061330
 C   29.264838   35.748542   71.631178
 C   28.463393   36.432147   72.739844
 N   34.057166   33.493323   71.205641
 N   32.174262   35.515385   72.194880
 O   26.276613   37.767474   74.204930
 O   25.472126   35.671738   75.003851
 H   26.653272   35.369288   72.299266
 H   27.542339   34.691049   73.637847
 H   35.873087   33.593347   72.332787
 H   35.413014   35.039538   71.410646
 H   33.853304   33.998124   73.818139
 H   35.130476   35.212039   73.919055
 H   33.855055   36.685142   72.359633
 H   33.004025   36.371070   73.880780
 H   30.914121   35.305950   73.817735
 H   31.600181   33.761658   73.281596
 H   29.287254   33.814820   72.603458
 H   30.304066   33.928968   71.166955
 H   30.026833   36.439038   71.266922
 H   28.589279   35.518650   70.803660
 H   29.106054   36.615572   73.600802
 H   28.126059   37.404378   72.377859
 H   34.501104   33.141511   70.364337
 H   33.695094   32.696920   71.721205
 H   32.478180   34.992226   71.376608
 H   25.679331   38.203097   74.814676
 H   24.882147   36.147298   75.591027
