66 
6phx_ligand_dft.xyz
 C   -3.205591    1.093851   -1.024033
 C   -4.082386    1.632175    0.099583
 C   -3.895418    0.785477    1.360284
 C   -4.158877   -0.686016    1.045154
 C   -3.322915   -1.126765   -0.162985
 C   -3.688559   -2.508244   -0.686667
 O   -3.740484    2.976921    0.342934
 O   -4.753640    1.260477    2.377057
 O   -5.556039   -0.792383    0.845782
 O   -3.505074   -0.253860   -1.283700
 O   -5.015858   -2.526525   -1.202334
 C    2.742015    0.748045   -1.167682
 C    3.085235    2.201277   -0.838312
 C    2.066974    2.741464    0.150219
 C    0.653156    2.590514   -0.396267
 C    0.430813    1.124009   -0.806599
 C   -0.883651    0.898901   -1.530790
 O    4.396854    2.266446   -0.306305
 O    2.405446    4.092401    0.391724
 O   -0.202764    3.027899    0.632305
 O    1.446224    0.699043   -1.708935
 O   -1.886474    1.262139   -0.605098
 C    5.032991   -0.934033   -0.080317
 C    3.538048   -1.210820    0.030735
 C    3.134418   -1.893726    1.346975
 C    1.753928   -2.399955    0.959950
 C    1.975495   -2.829500   -0.493441
 C    0.760475   -2.589624   -1.385782
 O    5.415678   -0.063552    0.961726
 O    2.818617    0.011134    0.016998
 O    3.107779   -1.072349    2.474284
 O    1.269296   -3.516281    1.679005
 O    3.113105   -2.092782   -0.969376
 O   -0.450363   -2.912042   -0.716922
 H   -3.382369    1.618639   -1.971338
 H   -5.127384    1.540386   -0.228765
 H   -2.871126    0.917849    1.721991
 H   -3.853202   -1.300924    1.906982
 H   -2.264952   -1.141935    0.129797
 H   -3.657388   -3.238608    0.125995
 H   -2.962050   -2.811661   -1.447693
 H   -4.136099    3.190085    1.200888
 H   -5.622076    0.876373    2.177753
 H   -5.717091   -1.512192    0.209670
 H   -5.036310   -1.847257   -1.891985
 H    3.397108    0.341820   -1.942189
 H    3.032001    2.784256   -1.767855
 H    2.135000    2.155982    1.078488
 H    0.554578    3.222346   -1.295686
 H    0.441816    0.504532    0.099251
 H   -0.942993    1.523773   -2.434447
 H   -0.986810   -0.151990   -1.823843
 H    4.473631    3.140001    0.104877
 H    1.719434    4.444878    0.974857
 H   -1.121949    2.862266    0.364814
 H    5.581502   -1.871664    0.039445
 H    5.280655   -0.521371   -1.068117
 H    3.798065   -2.763161    1.486971
 H    1.045764   -1.564320    1.020377
 H    2.243737   -3.893777   -0.487843
 H    0.854550   -3.165070   -2.316336
 H    0.732160   -1.529247   -1.644790
 H    5.071707    0.815504    0.708554
 H    3.946505   -0.582526    2.460257
 H    1.118247   -3.229888    2.588717
 H   -0.259998   -3.568778   -0.032088
