40 
6phz_ligand_dft.xyz
 C   -5.580539    1.729902   -0.286264
 C   -4.578863    0.717174   -0.836920
 C   -3.987248   -0.187534    0.238028
 C   -2.417898   -1.997488    0.650013
 C   -1.381608   -2.923127    0.012002
 C   -0.231816   -2.192668   -0.687600
 C    0.651535   -1.386356    0.263989
 C    1.760602   -0.651920   -0.485073
 C    2.648837    0.176164    0.439462
 C    3.807740    0.836621   -0.346874
 F    3.379532    1.504978   -1.420880
 F    4.683941   -0.101266   -0.770700
 F    4.484155    1.695884    0.430507
 N   -2.995281   -1.088870   -0.328846
 N   -4.949485    2.592841    0.710638
 O    1.879230    1.166720    1.024010
 O    3.226195   -0.579906    1.477927
 H   -6.400823    1.195345    0.209321
 H   -6.027017    2.280405   -1.132567
 H   -3.760126    1.242734   -1.345884
 H   -5.081260    0.109143   -1.602270
 H   -4.805004   -0.726168    0.756050
 H   -3.496072    0.432053    0.995458
 H   -1.947837   -1.386558    1.430502
 H   -3.184413   -2.610893    1.160542
 H   -1.888961   -3.572503   -0.715532
 H   -0.983598   -3.588205    0.789735
 H   -0.649278   -1.522651   -1.448382
 H    0.386951   -2.930148   -1.217191
 H    1.092040   -2.048106    1.019758
 H    0.053554   -0.645507    0.802216
 H    1.325177    0.020478   -1.231144
 H    2.395120   -1.364862   -1.027812
 H   -1.375040    0.795293   -0.609739
 H   -3.423874   -1.635776   -1.073166
 H   -5.627204    3.251138    1.083241
 H   -0.915698    1.375971   -0.513013
 H   -4.220195    3.146838    0.268313
 H    2.419968    1.581903    1.710407
 H    3.810427   -1.243210    1.088193
