29 
6pi6_ligand_xtb.xyz
 C   -4.329852   -0.682254   -0.911595
 C    4.107194   -1.352194   -0.934198
 C    3.465751   -1.276040    0.447475
 N    2.023172   -1.399151    0.396991
 C    1.252578   -0.303086    0.190690
 N    1.741447    0.876031    0.245503
 C    0.914221    1.988590    0.096001
 O    1.361735    3.104652    0.153774
 N   -0.441979    1.764204   -0.122078
 C   -0.903676    0.570461   -0.173680
 N   -0.098617   -0.542276   -0.016030
 N   -2.217712    0.388138   -0.453543
 C   -3.005344   -0.794220   -0.164013
 C   -3.235464   -0.958950    1.341648
 H   -4.900124    0.167072   -0.543108
 H   -4.152830   -0.547027   -1.975287
 H   -4.919572   -1.583276   -0.766554
 H    3.880425   -2.300477   -1.419503
 H    3.737496   -0.539369   -1.553602
 H    5.185462   -1.257926   -0.846087
 H    3.672827   -0.304880    0.897224
 H    3.846572   -2.071519    1.093477
 H    1.660907   -2.289489    0.088647
 H   -0.468859   -1.479088   -0.053929
 H   -2.722022    1.263595   -0.454579
 H   -2.467337   -1.670377   -0.550064
 H   -2.288852   -1.006077    1.875984
 H   -3.799517   -0.111949    1.725110
 H   -3.795073   -1.868899    1.542199
