29 
6pi6_ligand_dft.xyz
 C   -4.321150   -1.077731   -0.649216
 C    4.376727   -2.066047   -0.177989
 C    3.551649   -0.831502    0.153896
 N    2.142969   -1.078269   -0.134676
 C    1.253997   -0.042247   -0.064913
 N    1.630470    1.169904    0.128681
 C    0.657352    2.193915    0.081635
 O    0.988965    3.352712    0.177919
 N   -0.702476    1.847178   -0.048571
 C   -1.009464    0.613004   -0.246534
 N   -0.075081   -0.408334   -0.245795
 N   -2.304884    0.252572   -0.504658
 C   -2.903744   -1.016445   -0.087224
 C   -2.881796   -1.205273    1.432085
 H   -4.943514   -0.288832   -0.209908
 H   -4.315615   -0.949591   -1.735189
 H   -4.784590   -2.039007   -0.410022
 H    4.076819   -2.926969    0.432162
 H    4.268565   -2.336831   -1.232769
 H    5.434479   -1.874416    0.022401
 H    3.861241    0.022642   -0.451377
 H    3.687021   -0.538142    1.203226
 H    1.793037   -1.977372    0.168642
 H   -0.288024   -1.281735   -0.704409
 H   -2.907551    1.062410   -0.415227
 H   -2.333306   -1.830107   -0.555091
 H   -1.860134   -1.158532    1.821510
 H   -3.467212   -0.418351    1.919901
 H   -3.311344   -2.174263    1.707485
