24 
6pic_ligand_dft.xyz
 C   -4.783665   -3.700221  -27.608861
 C   -4.053812   -4.667376  -28.540629
 C   -3.226957   -5.710006  -27.787150
 C   -2.454045   -6.676100  -28.690749
 C   -3.365496   -7.585192  -29.518997
 C   -2.697437   -8.633353  -30.381757
 N   -5.732011   -4.418292  -26.758846
 N   -1.366335   -8.857662  -30.182038
 O   -3.307068   -9.328513  -31.188374
 O   -0.761881   -9.696377  -31.113622
 H   -4.051416   -3.213802  -26.952442
 H   -5.246744   -2.901970  -28.214206
 H   -3.403484   -4.089745  -29.211544
 H   -4.797868   -5.159955  -29.182341
 H   -3.886510   -6.271477  -27.116373
 H   -2.509055   -5.186227  -27.142570
 H   -1.805293   -7.296021  -28.059129
 H   -1.798957   -6.097447  -29.358737
 H   -3.995799   -7.003180  -30.198752
 H   -4.054525   -8.124392  -28.856851
 H   -6.145926   -3.783697  -26.082600
 H   -6.498089   -4.772296  -27.326418
 H   -0.743726   -8.102181  -29.934453
 H   -1.543900   -9.994519  -31.626562
