30 
6pid_ligand_dft.xyz
 C   44.557595   43.121430   23.695945
 C   44.373289   41.786528   24.410955
 C   43.079642   41.724043   25.224074
 C   42.920897   40.442481   26.047747
 C   42.844338   39.169010   25.200441
 C   42.445296   37.918708   25.988013
 C   43.458353   37.533079   27.072759
 C   43.010226   36.304152   27.825803
 N   45.776483   43.107536   22.890011
 N   43.926437   35.299856   27.937338
 O   43.444082   34.105465   28.463609
 O   41.916853   36.189407   28.369359
 H   44.523021   43.937205   24.441131
 H   43.710477   43.282540   23.017650
 H   44.400756   40.992208   23.656650
 H   45.230023   41.613229   25.080015
 H   43.039902   42.586579   25.902847
 H   42.220505   41.826513   24.546065
 H   43.758022   40.372906   26.755863
 H   42.008700   40.518887   26.654857
 H   42.109202   39.321640   24.399029
 H   43.806983   38.991967   24.702697
 H   41.470123   38.066553   26.465051
 H   42.329264   37.076897   25.293895
 H   44.455313   37.385174   26.638041
 H   43.547934   38.339636   27.808797
 H   45.865213   43.981222   22.379109
 H   46.587146   43.053104   23.501765
 H   44.582003   35.117782   27.190310
 H   42.529920   34.365265   28.707174
