14 
6pii_ligand_dft.xyz
 N    1.782375   -1.588734   -0.001832
 C    2.604165   -0.573883    0.001664
 N    2.067976    0.746864    0.003052
 C    0.794987    0.544546    0.000529
 C   -0.386740    1.476004   -0.000739
 O   -0.210128    2.678426   -0.002618
 N   -1.594272    0.844523    0.001681
 C   -1.770079   -0.469473    0.000658
 N   -2.841754   -1.181166    0.001706
 N   -0.617960   -1.399205   -0.002200
 C    0.575959   -0.932339   -0.001995
 H    3.680570   -0.706403    0.003081
 H   -3.645876   -0.552294    0.003557
 H   -0.837973   -2.393812   -0.003248
