55 
6pl2_ligand_xtb.xyz
 C    5.059186   -3.814166   -1.293697
 C    5.390280   -3.005636   -0.033628
 C    5.066195   -3.837518    1.213245
 C    6.872371   -2.630622   -0.034573
 C    4.548154   -1.764331   -0.014574
 C    3.138022   -1.694005   -0.044956
 C    2.854757   -0.350188    0.004044
 C   -0.703470    0.761852   -0.169729
 C   -5.647385    0.178724   -0.053143
 C   -5.307773   -1.167140   -0.063697
 C   -7.632989   -1.749407    0.175980
 C   -7.966786   -0.395455    0.182971
 C   -6.983093    0.560338    0.069435
 C    4.295436    1.688568    0.129880
 C    4.842610    4.406704    0.206544
 C    5.657331    3.554446   -0.522062
 C    5.387704    2.200487   -0.564690
 N    1.646917    0.333627   -0.076020
 C    0.418840   -0.247854   -0.015528
 O    0.215378   -1.425911    0.151175
 S   -2.260795   -0.177085   -0.080416
 C   -3.320336    1.182120   -0.196146
 N   -2.907974    2.431597   -0.315768
 N   -3.997803    3.179961   -0.360626
 N   -5.046333    2.484493   -0.276695
 N   -4.687105    1.190407   -0.168842
 C   -6.299262   -2.123028    0.051382
 O   -8.631419   -2.656793    0.291102
 N    4.046871    0.312040    0.066158
 N    5.070343   -0.556805    0.037614
 C    3.498596    2.537654    0.893459
 C    3.772001    3.894208    0.918912
 H    4.011006   -4.101735   -1.303689
 H    5.263965   -3.225957   -2.185634
 H    5.665810   -4.716392   -1.327698
 H    5.292988   -3.271152    2.113784
 H    4.013451   -4.108059    1.232493
 H    5.659130   -4.749426    1.218945
 H    7.110622   -2.039961   -0.914589
 H    7.110125   -2.036899    0.843247
 H    7.486806   -3.528058   -0.034128
 H    2.427687   -2.490440   -0.095272
 H   -0.664517    1.276501   -1.130452
 H   -0.702202    1.502984    0.630396
 H   -4.281405   -1.479956   -0.163371
 H   -9.003394   -0.117087    0.279151
 H   -7.227689    1.610201    0.071731
 H    5.049694    5.465540    0.231564
 H    6.504494    3.948074   -1.062970
 H    6.011975    1.518099   -1.118936
 H    1.710622    1.329648   -0.240313
 H   -6.030742   -3.170314    0.042829
 H   -8.272990   -3.552872    0.273370
 H    2.698300    2.140253    1.500789
 H    3.150559    4.550234    1.509892
