55 
6pl2_ligand_dft.xyz
 C    5.032853   -3.822147   -1.286534
 C    5.359118   -3.025569   -0.010937
 C    5.022370   -3.879840    1.224511
 C    6.850325   -2.670246    0.003142
 C    4.511514   -1.772890    0.017714
 C    3.095436   -1.704996   -0.036699
 C    2.817658   -0.362313    0.031774
 C   -0.741319    0.800881   -0.215426
 C   -5.594622    0.196355   -0.093232
 C   -5.488242   -0.949720   -0.871902
 C   -7.360738   -1.903402    0.311167
 C   -7.473636   -0.738962    1.076058
 C   -6.587265    0.305926    0.879235
 C    4.247520    1.691385    0.194609
 C    4.715198    4.432099    0.259310
 C    5.454225    3.614291   -0.594153
 C    5.219460    2.246020   -0.637015
 N    1.620776    0.350326   -0.043833
 C    0.376438   -0.220736   -0.068747
 O    0.171382   -1.415080    0.018699
 S   -2.319700   -0.099241   -0.161479
 C   -3.344315    1.309348   -0.332679
 N   -2.958721    2.559701   -0.496816
 N   -4.096494    3.293712   -0.542629
 N   -5.135905    2.556211   -0.423022
 N   -4.693545    1.280219   -0.288604
 C   -6.365677   -2.006552   -0.661448
 O   -8.249563   -2.894790    0.560105
 N    4.009363    0.296221    0.140930
 N    5.055762   -0.571295    0.112743
 C    3.526216    2.497442    1.076159
 C    3.753766    3.871268    1.093280
 H    3.975584   -4.106552   -1.322232
 H    5.255644   -3.232795   -2.182482
 H    5.630369   -4.740495   -1.322643
 H    5.243602   -3.332979    2.147207
 H    3.962727   -4.157214    1.240702
 H    5.614668   -4.802380    1.221169
 H    7.120461   -2.063564   -0.866570
 H    7.112914   -2.100350    0.899031
 H    7.449049   -3.588036   -0.014591
 H    2.377224   -2.502897   -0.121115
 H   -0.656464    1.342335   -1.162269
 H   -0.709466    1.541789    0.588814
 H   -4.730863   -1.018755   -1.646089
 H   -8.255788   -0.675938    1.824250
 H   -6.660390    1.213056    1.468847
 H    4.896360    5.502019    0.280373
 H    6.213160    4.046648   -1.238788
 H    5.782094    1.593457   -1.294917
 H    1.693478    1.352037   -0.164128
 H   -6.279033   -2.905785   -1.265905
 H   -8.071643   -3.643907   -0.021338
 H    2.819971    2.047479    1.767794
 H    3.190639    4.498116    1.777619
