56 
6pl3_ligand_dft.xyz
 C    2.529490   -1.764795    0.090170
 C    0.224760   -1.389410    0.101680
 C   -0.729141   -0.198268    0.176479
 C   -3.125492    0.297996    0.085333
 C   -6.238247   -3.179185   -1.091281
 C   -5.707294   -4.159337   -0.254062
 C   -4.756239   -3.812313    0.699582
 C   -4.331877   -2.491170    0.818169
 C   -5.244116    3.309057    0.067424
 C   -6.765836    3.181961   -0.068111
 C    3.863049   -1.106257    0.032565
 C    4.995548   -1.920031    0.037212
 C    5.259093    0.858544   -0.064811
 C    8.845304    0.190096    0.407149
 O    2.349117   -2.957081    0.188263
 O    1.533066   -0.868773    0.020936
 O   -0.359371    0.939755    0.358650
 N   -2.041204   -0.578357    0.045756
 C   -3.200724    1.668412    0.110642
 C   -4.591501    1.944365    0.056080
 N   -5.309026    0.834876    0.002144
 N   -4.404631   -0.180003    0.039952
 C   -4.844615   -1.522982   -0.046223
 C   -5.805516   -1.862713   -0.997773
 C   -4.691295    4.138604   -1.104930
 C   -4.902745    4.010056    1.394686
 C    6.260508   -1.354329   -0.019166
 C    6.381028    0.033167   -0.060573
 C    3.997306    0.283076   -0.024464
 N    7.671414    0.621724   -0.094925
 N    9.771951    1.077648    0.145098
 N    9.144454    2.071655   -0.531309
 N    7.895150    1.818294   -0.680739
 H    0.012169   -2.018189   -0.771009
 H    0.118443   -2.016939    0.994271
 H   -6.989245   -3.443559   -1.829212
 H   -6.043204   -5.187956   -0.338518
 H   -4.356783   -4.564830    1.372404
 H   -3.636156   -2.204024    1.601234
 H   -7.039341    2.687882   -1.005415
 H   -7.188454    2.594163    0.751819
 H   -7.222473    4.178123   -0.054927
 H    4.870711   -2.996809    0.072452
 H    5.384153    1.934187   -0.101699
 H    8.975436   -0.729368    0.955618
 H   -2.248855   -1.545729   -0.165123
 H   -2.370961    2.353493    0.151387
 H   -6.205312   -1.086388   -1.640182
 H   -4.913514    3.656758   -2.063127
 H   -5.144805    5.136558   -1.109527
 H   -3.605374    4.262554   -1.031781
 H   -5.353460    5.008980    1.423394
 H   -5.283951    3.436733    2.246402
 H   -3.820263    4.122957    1.519187
 H    7.141300   -1.987021   -0.052515
 H    3.111988    0.909107   -0.024416
