35 
6pml_ligand_xtb.xyz
 C   -5.339285   -0.932790    0.543397
 C   -4.854236   -0.248361   -0.736490
 C   -3.622822    0.562801   -0.519929
 C   -3.537174    1.897092   -0.285228
 C   -1.480435    1.213294   -0.203681
 C   -0.099182    1.159444   -0.079459
 C    0.498952   -0.081768   -0.238153
 C    2.696252    0.768299    0.134880
 C    4.112107    0.255233    0.143884
 C    4.987538    0.600271    1.163475
 C    6.291484    0.135777    1.151301
 C    6.727316   -0.684316    0.125118
 C    5.855502   -1.036855   -0.891471
 C    4.555236   -0.566115   -0.884774
 C   -0.279420   -1.223911   -0.516235
 C   -1.644229   -1.160530   -0.633039
 C   -2.269293    0.079246   -0.469749
 O   -4.377136   -1.439085    1.322861
 O   -6.495428   -1.036226    0.828998
 O   -2.259574    2.310437   -0.095259
 O    1.829666   -0.313580   -0.151701
 H   -5.668753    0.370044   -1.112621
 H   -4.656307   -1.040087   -1.465444
 H   -4.298809    2.650262   -0.236797
 H    0.455026    2.058742    0.128067
 H    2.591446    1.545794   -0.638450
 H    2.444727    1.209679    1.108695
 H    4.649937    1.235764    1.969763
 H    6.966358    0.411250    1.948193
 H    7.743523   -1.049644    0.118688
 H    6.190623   -1.678271   -1.693133
 H    3.870550   -0.840191   -1.672863
 H    0.243927   -2.158923   -0.634991
 H   -2.214066   -2.050208   -0.858909
 H   -3.488286   -1.257461    0.977532
