37 
6pnn_ligand_xtb.xyz
 C   -5.281503   -0.360640    0.574107
 C   -3.769788   -0.394071    0.500237
 O   -3.117089   -1.406381    0.562939
 N   -3.231844    0.857137    0.337205
 C   -1.878712    1.174964    0.201106
 C   -0.877032    0.377654    0.743056
 C   -1.521350    2.333585   -0.490010
 C   -0.193383    2.656460   -0.678706
 C    0.802021    1.824453   -0.177322
Cl    2.444081    2.213753   -0.467943
 C    0.450579    0.701017    0.549736
 S    1.657367   -0.425116    1.287154
 O    2.834468    0.305698    1.647255
 O    0.964304   -1.134042    2.320469
 N    2.098187   -1.543292    0.146849
 C    3.064953   -1.152087   -0.846309
 C    1.118935   -2.540874   -0.193765
 C    0.402113   -2.313909   -1.532323
 O    0.053197   -0.953991   -1.661556
 C   -0.843185   -0.710137   -2.712825
 H   -5.696166   -0.008637   -0.368568
 H   -5.651054   -1.362509    0.771169
 H   -5.605149    0.305182    1.370866
 H   -3.875557    1.615552    0.160025
 H   -1.113117   -0.503055    1.315036
 H   -2.289785    2.980256   -0.889801
 H    0.084547    3.544395   -1.223702
 H    2.602368   -0.656197   -1.705244
 H    3.757780   -0.468506   -0.361608
 H    3.610384   -2.034463   -1.184409
 H    0.398683   -2.536445    0.624060
 H    1.605141   -3.523186   -0.228055
 H   -0.498508   -2.943210   -1.555899
 H    1.050535   -2.609439   -2.373061
 H   -0.431490   -1.042326   -3.674299
 H   -1.798129   -1.221120   -2.540934
 H   -1.003058    0.366092   -2.738158
