37 
6pnn_ligand_dft.xyz
 C   -5.688546   -0.533688   -0.421220
 C   -4.190606   -0.690715   -0.229945
 O   -3.608312   -1.738776   -0.420002
 N   -3.569678    0.468444    0.189604
 C   -2.212792    0.683484    0.476747
 C   -1.251928   -0.330419    0.441709
 C   -1.820282    1.979581    0.818939
 C   -0.495762    2.261836    1.114867
 C    0.460049    1.255265    1.074973
Cl    2.111653    1.699250    1.411879
 C    0.074931   -0.042400    0.739991
 S    1.212583   -1.439833    0.693293
 O    1.850068   -1.542125    1.994551
 O    0.443013   -2.547717    0.151413
 N    2.383470   -1.032579   -0.396123
 C    3.765979   -0.857306    0.017496
 C    2.106290   -1.108990   -1.823928
 C    1.992507    0.262179   -2.472362
 O    0.784513    0.837707   -2.053474
 C    0.692665    2.210153   -2.323848
 H   -5.922808    0.303437   -1.087564
 H   -6.078845   -1.455867   -0.850846
 H   -6.180821   -0.352814    0.540652
 H   -4.165523    1.275130    0.304525
 H   -1.529174   -1.339992    0.171625
 H   -2.553198    2.781960    0.855168
 H   -0.197374    3.271420    1.374687
 H    4.160762    0.088794   -0.369130
 H    3.821951   -0.841559    1.104502
 H    4.380763   -1.685292   -0.358133
 H    1.176978   -1.661519   -1.981210
 H    2.912340   -1.680830   -2.301424
 H    2.018447    0.158300   -3.570382
 H    2.847477    0.893733   -2.178890
 H    1.479290    2.775850   -1.800140
 H    0.767115    2.420632   -3.402328
 H   -0.282651    2.541041   -1.960529
