33 
6pno_ligand_xtb.xyz
 C    5.376149   -0.574640   -0.058351
 C    3.864444   -0.606892   -0.099940
 O    3.214676   -1.615597   -0.208158
 N    3.318049    0.649630    0.013148
 C    1.968741    0.993453    0.026028
 C    0.973296    0.142495   -0.451393
 C    1.604060    2.247743    0.521381
 C    0.279330    2.632558    0.574134
 C   -0.705677    1.764428    0.121360
Cl   -2.360314    2.213359    0.215381
 C   -0.348610    0.532562   -0.399720
 S   -1.599829   -0.581751   -1.083102
 O   -0.915562   -1.701591   -1.643017
 O   -2.452738    0.191561   -1.934187
 N   -2.558554   -1.064555    0.174177
 C   -2.103853   -1.791450    1.349272
 C   -1.340192   -0.904074    2.336921
 C   -1.270627   -2.996894    0.936636
 H    5.720076   -0.164643    0.889087
 H    5.756039   -1.585917   -0.167129
 H    5.760118    0.041571   -0.868354
 H    3.955910    1.410722    0.201171
 H    1.207899   -0.825486   -0.863102
 H    2.367233    2.926675    0.873519
 H    0.002823    3.597446    0.967605
 H   -3.237122   -0.346309    0.373641
 H   -3.020021   -2.148255    1.840029
 H   -0.364070   -0.637482    1.939193
 H   -1.894804    0.009270    2.544096
 H   -1.196091   -1.439314    3.272143
 H   -1.802003   -3.575473    0.187240
 H   -0.323435   -2.685068    0.507816
 H   -1.079785   -3.623061    1.804871
