33 
6pno_ligand_dft.xyz
 C    5.348578   -0.401680   -0.042485
 C    3.833532   -0.419839   -0.101124
 O    3.205990   -1.457954   -0.172504
 N    3.240868    0.825486   -0.064838
 C    1.863732    1.101457   -0.041476
 C    0.914894    0.214440   -0.553227
 C    1.437252    2.317059    0.496624
 C    0.087925    2.633579    0.543942
 C   -0.859106    1.737692    0.061736
Cl   -2.540857    2.166647    0.235350
 C   -0.438643    0.529041   -0.496754
 S   -1.573890   -0.727076   -1.121928
 O   -0.736190   -1.788867   -1.644466
 O   -2.564729   -0.073942   -1.955334
 N   -2.400811   -1.297069    0.189243
 C   -1.808984   -1.881478    1.411974
 C   -1.363780   -0.827374    2.431365
 C   -0.695255   -2.881334    1.111697
 H    5.668144   -0.951381    0.846912
 H    5.732854   -0.936685   -0.914490
 H    5.786110    0.600241   -0.019536
 H    3.849209    1.617867    0.074411
 H    1.216996   -0.731032   -0.982085
 H    2.161790    3.020728    0.898118
 H   -0.237352    3.574452    0.973480
 H   -3.206989   -0.704985    0.359416
 H   -2.645952   -2.440856    1.846620
 H   -0.463224   -0.303266    2.097220
 H   -2.149990   -0.085209    2.607952
 H   -1.134906   -1.312454    3.386199
 H   -1.004463   -3.600962    0.351332
 H    0.217682   -2.389929    0.763627
 H   -0.454946   -3.418494    2.034677
