37 
6poq_ligand_xtb.xyz
 C   -2.572762    1.040264    0.002143
 C   -2.716036   -0.230635    0.548886
 C   -5.092529   -0.173911    0.171359
 C    1.015462    1.978086    0.086916
 C    2.310127    1.545356   -0.048456
 C    2.526175    0.248570   -0.511172
 C    5.461170   -0.139838    0.925081
 C    5.101623   -0.156387   -0.560728
 C    3.683449   -0.554522   -0.784360
 C    3.202396   -1.745962   -1.228049
 C    1.422943   -0.561552   -0.837417
 C    0.114139   -0.131534   -0.711729
 C   -0.090124    1.156652   -0.223605
 C   -3.958520   -0.835852    0.625967
 C   -6.558905   -1.967105    0.718248
 C   -4.957533    1.115349   -0.345735
 C   -3.719863    1.711066   -0.428267
 N   -1.347213    1.694311   -0.065532
 O    6.195692    0.663639    1.418339
 O    4.909568   -1.124596    1.647166
 O    1.844696   -1.773205   -1.274237
 O   -6.361016   -0.677547    0.194899
 H   -1.854744   -0.746122    0.943813
 H    0.822487    2.978721    0.446294
 H    3.140866    2.186253    0.202721
 H    5.775355   -0.866454   -1.048333
 H    5.298686    0.837398   -0.964699
 H    3.708261   -2.633571   -1.557801
 H   -0.705641   -0.762915   -1.008562
 H   -4.025246   -1.822538    1.056558
 H   -6.001353   -2.721695    0.153654
 H   -6.275422   -2.021070    1.774729
 H   -7.625673   -2.163609    0.622758
 H   -5.844315    1.629962   -0.679607
 H   -3.631437    2.710621   -0.829461
 H   -1.393079    2.702145   -0.049814
 H    4.302945   -1.661900    1.112635
