87 
6prg_ligand_xtb.xyz
 C    4.720185   -0.087213   -0.935789
 C    5.725319    0.997173   -0.509407
 C    5.030997    1.969997    0.443491
 C    3.769251    2.536578   -0.219326
 C    2.885267    1.366678   -0.683166
 C    1.654144    1.847492   -1.449200
 O    4.346548   -0.822056    0.194605
 O    6.834138    0.388901    0.101744
 O    5.947141    2.985185    0.775794
 O    3.140793    3.358063    0.730395
 O    3.605178    0.502708   -1.548857
 O    0.829558    2.556214   -0.540890
 C    5.761873   -2.795748    0.204366
 C    4.325309   -2.242506    0.076453
 C    3.383350   -2.763171    1.203762
 C    2.426069   -3.701211    0.457870
 C    2.467697   -3.136742   -0.972603
 C    1.443960   -2.007041   -1.176664
 O    6.442232   -2.225905    1.279963
 O    3.795422   -2.668529   -1.145963
 O    2.644717   -1.747163    1.820351
 O    2.928893   -5.007837    0.549021
 O    0.145628   -2.495129   -1.412688
 C   -0.471029    2.784805   -1.008003
 C   -1.128962    3.793227   -0.054296
 C   -1.308977    3.143935    1.327446
 C   -2.103402    1.836587    1.151211
 C   -1.367109    0.936855    0.148508
 C   -2.083903   -0.388461   -0.112268
 O   -0.335348    4.945664    0.019649
 O   -1.965933    4.028347    2.197126
 O   -3.408135    2.177280    0.734085
 O   -1.212320    1.602912   -1.096875
 O   -3.374336   -0.145260   -0.652193
 C   -4.150674   -1.301510   -0.772552
 C   -5.369279   -0.989108   -1.653969
 C   -6.267414    0.037499   -0.943881
 C   -6.662719   -0.547472    0.422260
 C   -5.379113   -0.883514    1.198879
 C   -5.635250   -1.488896    2.583066
 O   -4.951156   -0.533077   -2.909084
 O   -7.394877    0.320739   -1.729629
 O   -7.485197   -1.658236    0.158028
 O   -4.554981   -1.790677    0.479491
 O   -6.490768   -2.608963    2.496446
 H    5.155394   -0.740435   -1.699473
 H    6.040327    1.547757   -1.408851
 H    4.730008    1.424555    1.352028
 H    4.069337    3.126208   -1.102939
 H    2.552242    0.813592    0.206982
 H    1.952486    2.500582   -2.280169
 H    1.119665    0.982818   -1.855395
 H    7.325366    1.092768    0.547422
 H    5.440127    3.693545    1.191610
 H    2.237573    3.541030    0.431005
 H    6.282291   -2.618390   -0.746027
 H    5.700126   -3.871880    0.378301
 H    3.966341   -3.328619    1.941326
 H    1.418031   -3.624168    0.882869
 H    2.319063   -3.918814   -1.727587
 H    1.796216   -1.373517   -2.000134
 H    1.381297   -1.407354   -0.266832
 H    6.583764   -1.286148    1.071659
 H    3.261703   -1.043057    2.053681
 H    2.329631   -5.611160    0.095390
 H    0.131592   -2.954761   -2.260367
 H   -0.448044    3.190109   -2.030209
 H   -2.126171    4.037763   -0.457197
 H   -0.324516    2.944435    1.762210
 H   -2.167492    1.322297    2.122838
 H   -0.376483    0.703468    0.567591
 H   -1.496403   -0.988834   -0.816875
 H   -2.171908   -0.937778    0.833404
 H   -0.554974    5.386147    0.852755
 H   -2.908065    3.986213    1.979255
 H   -3.587189    1.674673   -0.075215
 H   -3.559327   -2.113417   -1.220165
 H   -5.943804   -1.925475   -1.759305
 H   -5.725814    0.980500   -0.823044
 H   -7.228826    0.206248    0.995653
 H   -4.835881    0.062099    1.352406
 H   -6.086974   -0.716565    3.221681
 H   -4.664326   -1.777096    3.000351
 H   -5.659618    0.029110   -3.253102
 H   -8.005707   -0.421225   -1.616442
 H   -7.370896   -2.289088    0.883336
 H   -6.441259   -3.112974    3.314323
