48 
6ps4_ligand_dft.xyz
 C    3.390020    2.089757   -0.040327
 N   -2.536792    0.325018    0.133195
 O   -0.161582   -0.980357    0.406337
 C    2.137819    2.725606    0.603476
 O   -2.679262   -1.695277    1.730651
 C    0.990940    1.712722    0.373920
 C    1.721672    0.408375    0.184300
 C    3.076427    0.612424   -0.044954
 C    3.950922   -0.455470   -0.271134
 C    5.415503   -0.218250   -0.525281
 C    3.404871   -1.737201   -0.244388
 C    2.044991   -1.964904   -0.017479
 C    1.202172   -0.879567    0.189020
 C   -0.762278   -2.252541    0.301423
 C   -2.272548   -2.087689    0.433722
 C   -2.866378   -1.008407   -0.489810
 C   -2.396977   -1.077452   -1.932618
 C   -3.121258    1.574455   -0.478999
 C   -2.724782    2.753838    0.401413
 C   -4.630393    1.444595   -0.631816
 H    4.305613    2.328586    0.509680
 H    3.538728    2.445511   -1.068671
 H   -1.506019    0.377895    0.166291
 H   -2.821787    0.245284    1.118229
 H    1.912157    3.715306    0.199707
 H    2.302183    2.838783    1.679384
 H   -2.379691   -2.336137    2.386933
 H    0.291892    1.687896    1.219603
 H    0.413520    1.966006   -0.530016
 H    5.566713    0.435477   -1.391655
 H    5.892112    0.268053    0.333662
 H    5.944024   -1.156002   -0.714762
 H    4.053085   -2.594237   -0.404592
 H    1.677479   -2.985037   -0.001862
 H   -0.526334   -2.713430   -0.667122
 H   -0.393452   -2.924366    1.089126
 H   -2.735699   -3.043025    0.149021
 H   -3.952885   -1.101724   -0.430086
 H   -2.548323   -2.090424   -2.316053
 H   -1.334416   -0.832390   -2.024213
 H   -2.970551   -0.402147   -2.572470
 H   -2.646258    1.669545   -1.459344
 H   -1.640663    2.830648    0.522147
 H   -3.187203    2.678885    1.392111
 H   -3.074915    3.680797   -0.058848
 H   -5.030732    2.395342   -0.992179
 H   -5.109463    1.226263    0.329211
 H   -4.919169    0.676857   -1.354303
