41 
6ps5_ligand_xtb.xyz
 C    0.964366   -0.972342    0.033208
 C    1.354695   -2.241045   -0.297841
 C    2.679511   -2.483323   -0.688924
 C    3.582029   -1.458742   -0.741118
 C    4.118589    0.932116   -0.444312
 C    3.729657    2.196907   -0.101402
 C    2.409361    2.447591    0.302622
 C    1.496328    1.431749    0.350692
 C    1.867963    0.116842    0.000202
 C    3.205427   -0.142337   -0.402110
 O   -0.371306   -0.709812    0.386522
 C   -0.750589   -1.140385    1.684928
 C   -2.050478   -0.423773    2.098255
 O   -1.854833    0.958489    2.305980
 C   -3.114697   -0.521204    0.993463
 N   -2.699838    0.395227   -0.088814
 C   -3.559472    0.481876   -1.302528
 C   -3.439860   -0.805103   -2.102618
 C   -3.103650    1.689192   -2.108458
 H    0.645376   -3.054554   -0.262916
 H    2.972743   -3.488350   -0.948075
 H    4.601920   -1.643168   -1.042503
 H    5.133976    0.734227   -0.752866
 H    4.435255    3.012429   -0.135715
 H    2.119993    3.451012    0.576573
 H    0.480722    1.624908    0.667496
 H    0.042336   -0.904749    2.405378
 H   -0.913753   -2.225473    1.697368
 H   -2.428374   -0.908725    3.007779
 H   -1.302050    1.107938    3.080149
 H   -3.180123   -1.542338    0.620929
 H   -4.086443   -0.206879    1.379156
 H   -1.728891    0.092205   -0.335851
 H   -2.599731    1.319288    0.354081
 H   -4.592140    0.624383   -0.968209
 H   -2.400769   -1.003671   -2.356015
 H   -3.998423   -0.710518   -3.028897
 H   -3.844237   -1.657051   -1.563718
 H   -3.179587    2.605159   -1.526998
 H   -2.075664    1.565573   -2.441504
 H   -3.729246    1.804228   -2.988312
