44 
6ps9_ligand_xtb.xyz
 C    5.460162    1.014799   -1.224275
 C    4.229403   -0.687518    0.052048
 C    2.774886   -1.124351    0.178643
 C    1.973580    0.079657   -0.323042
 C    1.610865    1.036728    0.816664
 C    0.504291    0.500012    1.734663
 C   -1.552727    1.336254    0.604049
 C   -1.469601    2.703631    0.831618
 C   -2.451233    3.503862    0.283629
 C   -3.493845    2.965645   -0.473618
 C   -3.589360    1.610088   -0.698215
 C   -2.610872    0.783284   -0.154604
 C   -2.393682   -0.628692   -0.161323
 C   -1.249862   -0.864484    0.566197
 C   -0.706845   -2.235347    0.777749
 C   -1.889235   -3.207461    0.700570
 C   -3.136158   -1.697084   -0.821674
 C    2.960953    0.746608   -1.295203
 N    4.255466    0.374560   -0.778735
 N   -0.733605    0.310313    1.028304
 N   -2.691824   -2.946872   -0.473413
 O   -4.018694   -1.546585   -1.644846
 O    5.190121   -1.192366    0.587380
 H    6.294096    0.544833   -0.705293
 H    5.437546    2.081441   -0.988403
 H    5.589100    0.892464   -2.302962
 H    2.551637   -1.414551    1.202637
 H    2.634519   -1.998193   -0.460712
 H    1.060580   -0.215367   -0.844321
 H    2.499833    1.237347    1.417353
 H    1.266638    1.979288    0.386389
 H    0.804826   -0.450133    2.179178
 H    0.336923    1.216133    2.545702
 H   -0.674056    3.134253    1.421870
 H   -2.413254    4.571318    0.444628
 H   -4.238194    3.631365   -0.884707
 H   -4.390609    1.180702   -1.277784
 H   -0.214381   -2.341087    1.745542
 H    0.021255   -2.475041   -0.003473
 H   -2.497167   -3.099231    1.612820
 H   -1.526920   -4.236528    0.651778
 H    2.831806    0.369621   -2.318854
 H    2.857371    1.835027   -1.316383
 H   -3.237544   -3.711841   -0.841615
