41 
6psb_ligand_dft.xyz
 C   -2.499608    2.166519    0.038057
 C   -0.206777    3.080236   -0.206992
 C    0.250334    1.876834   -1.038097
 C   -1.875335    0.855345   -0.150806
 C   -0.608955    0.715445   -0.657691
 C    0.997073   -1.155176   -1.119947
 C    1.813692   -1.593760    0.110148
 C    1.920637   -0.487027    1.172917
 C    3.430762    1.537170    1.340232
 C    3.925946   -0.434460   -0.056926
 C    3.278889   -1.798062   -0.296863
 C   -1.385787   -1.358658   -0.338740
 C   -2.400964   -0.463844    0.060716
 C   -3.613909   -0.965572    0.545581
 C   -3.773576   -2.338932    0.628147
 C   -2.749194   -3.217723    0.232987
 C   -1.541596   -2.743245   -0.255573
 N   -1.654434    3.225958   -0.249133
 N   -0.302459   -0.614420   -0.794398
 N    3.059976    0.289247    0.722295
 O   -3.660460    2.338602    0.377996
 O    5.006551   -0.053418   -0.460662
 H    0.148778    2.947950    0.828260
 H    0.244081    3.995406   -0.599090
 H    1.312769    1.688840   -0.847338
 H    0.137070    2.090398   -2.109108
 H    1.547005   -0.393257   -1.679880
 H    0.866840   -2.008927   -1.793568
 H    1.362821   -2.491322    0.540787
 H    2.101230   -0.914728    2.170501
 H    1.020427    0.133351    1.238530
 H    3.625405    1.406936    2.412688
 H    2.632315    2.278731    1.219731
 H    4.338778    1.896652    0.853003
 H    3.422418   -2.115353   -1.333238
 H    3.783561   -2.528979    0.345033
 H   -4.396917   -0.276542    0.842029
 H   -4.705961   -2.749293    1.003898
 H   -2.906530   -4.289229    0.311078
 H   -0.756793   -3.427256   -0.565765
 H   -2.037383    4.119117    0.029524
