77 
6pt3_ligand_xtb.xyz
 C    7.603474   -2.329144    1.853325
 C    7.147182   -2.451756    0.404071
 N    6.136723   -1.458235    0.069623
 C    6.586407   -0.134531   -0.310379
 C    6.958642   -0.050369   -1.788890
 C    4.851086   -1.804760    0.119718
 O    4.420036   -2.907941    0.417878
 C    3.797151   -0.777163   -0.209935
 C    3.151096   -0.104588    0.823681
 C    1.976886    0.582757    0.585935
 C    3.272891   -0.709070   -1.496477
 C    2.096712   -0.023748   -1.736116
 C    1.422695    0.602978   -0.691851
 C    0.066294    1.223813   -0.939179
 C   -0.013334    2.647046   -0.445638
 C   -0.299430    2.958802    0.878053
 C   -0.304947    4.284935    1.308860
 O   -0.613802    4.501287    2.599531
 C   -0.009157    5.301415    0.404200
 C    0.278053    4.987530   -0.909472
 C    0.269440    3.671055   -1.340955
 N   -0.971164    0.343926   -0.243816
 C   -2.375771    0.858686   -0.305206
 C   -3.257154   -0.051075    0.555034
 C   -2.895660    1.014004   -1.729502
 C   -0.897838   -1.062342   -0.689203
 C   -1.776155   -1.978565    0.166922
 C   -1.248666   -2.140120    1.587406
 N   -3.184199   -1.463120    0.119452
 C   -4.191785   -2.309917    0.845849
 C   -5.574997   -1.955294    0.366810
 C   -5.939390   -2.249861   -0.945393
 C   -7.206066   -1.934572   -1.402762
 C   -8.117052   -1.325558   -0.553184
 C   -7.759241   -1.029536    0.751713
 C   -6.489027   -1.336780    1.211054
 H    8.351379   -3.087746    2.062758
 H    6.762465   -2.478492    2.525749
 H    8.041718   -1.353158    2.049134
 H    7.992922   -2.327594   -0.274277
 H    6.699829   -3.434690    0.242503
 H    7.457079    0.114958    0.299846
 H    5.795351    0.587252   -0.087956
 H    7.736757   -0.768033   -2.033107
 H    7.329289    0.944913   -2.016177
 H    6.094827   -0.250980   -2.417638
 H    3.561527   -0.139326    1.820972
 H    1.502254    1.108455    1.401014
 H    3.768539   -1.221958   -2.305597
 H    1.695074    0.011524   -2.738400
 H   -0.145836    1.192235   -2.010697
 H   -0.512192    2.215389    1.634982
 H   -0.551357    5.438678    2.825431
 H   -0.000753    6.329272    0.733994
 H    0.509351    5.775038   -1.608047
 H    0.502500    3.441404   -2.368548
 H   -0.668191    0.374121    0.739018
 H   -2.367978    1.854840    0.153083
 H   -2.968950    0.000442    1.607396
 H   -4.298476    0.275829    0.483146
 H   -2.875771    0.097916   -2.314035
 H   -3.924133    1.364956   -1.692436
 H   -2.328765    1.771373   -2.263163
 H   -1.183386   -1.106995   -1.742534
 H    0.141878   -1.396359   -0.619910
 H   -1.778934   -2.968272   -0.303273
 H   -1.831368   -2.870658    2.141050
 H   -1.232069   -1.216703    2.159940
 H   -0.231048   -2.522290    1.542455
 H   -3.497125   -1.490126   -0.861773
 H   -4.096933   -2.143432    1.918615
 H   -3.969490   -3.356107    0.624126
 H   -5.247734   -2.760384   -1.603921
 H   -7.487225   -2.177681   -2.414893
 H   -9.108779   -1.093689   -0.906333
 H   -8.469912   -0.565971    1.416688
 H   -6.219750   -1.118339    2.233829
