30 
6pvu_ligand_xtb.xyz
 O    0.187039    3.322355   -0.432091
 O    3.116798   -0.387140   -2.041061
 O   -3.493103    1.277346   -1.074297
 O   -2.160594    0.161866    0.758273
 O   -1.388041   -1.734209   -0.676533
 O    0.502227    1.081988    0.663528
 O   -2.533264   -2.149051    1.539244
 O    1.598897    0.079709    2.634668
 O   -3.855274   -1.261188   -0.488944
 O    2.560873    2.253123    1.660121
 O    0.897065   -0.897520   -0.970597
 O   -1.012442    1.242199   -1.201880
 O    0.103889   -1.662418    1.361651
 O    1.498976    1.577781   -1.674830
 O    0.457501   -3.331053   -0.535956
 O    2.780082    0.065268    0.411775
 O    2.869078   -2.328442   -0.405440
 O   -2.128008    2.692675    0.567208
 P   -2.610627   -1.285489    0.256565
 P    1.922499    0.985446    1.422940
 P    0.064203   -1.898633   -0.087839
 P    0.413054    1.825460   -0.745952
 P    2.511490   -0.958087   -0.749700
 P   -2.240098    1.455353   -0.183979
 H   -0.612500    3.479935    0.110634
 H    2.727475    0.488372   -2.239478
 H   -3.848345    0.363172   -1.112438
 H   -1.653657   -2.110231    1.951716
 H    1.034997   -0.682263    2.391672
 H    1.430630   -3.426072   -0.541370
