36 
6pvy_ligand_xtb.xyz
 C   -0.039020    0.125066    0.511387
 C    3.524161    0.056897   -0.795627
 C    4.983938    1.346497    0.795986
 C    1.830578   -1.443725   -0.749662
 C    0.582046   -1.990916   -0.511744
 C   -2.953126    0.038924   -0.364379
 C   -5.518434    2.467388   -1.181544
 C   -4.173239    0.711626   -0.303331
 C   -5.144579    0.293856    0.599512
 C   -4.889721   -0.791365    1.422620
 C   -3.683343   -1.457955    1.374197
 C   -2.706247   -1.032637    0.477299
 C   -0.354588   -1.187292    0.123852
 C    1.203149    0.662473    0.266216
 C    2.161654   -0.126048   -0.372234
 C    4.367471    1.270581   -0.602969
 C    3.883818   -1.121200   -1.366778
 O   -4.305683    1.753031   -1.168630
 O   -1.551152   -1.770999    0.422357
 O    4.181956    0.970367    1.798409
 O    6.095645    1.736733    0.996537
 O    2.883561   -2.034907   -1.352614
 H   -0.787770    0.712223    1.020785
 H    0.336075   -2.999397   -0.797454
 H   -2.219425    0.365447   -1.084864
 H   -6.362363    1.821653   -1.443896
 H   -5.712841    2.947442   -0.217122
 H   -5.400190    3.233062   -1.946535
 H   -6.096003    0.795590    0.667424
 H   -5.649852   -1.115411    2.117254
 H   -3.479862   -2.303143    2.011066
 H    1.420384    1.678683    0.562313
 H    3.760458    2.171821   -0.732020
 H    5.181957    1.298184   -1.326326
 H    4.807025   -1.425079   -1.819995
 H    3.320689    0.652105    1.484092
