34 
6pvz_ligand_dft.xyz
 C   -2.387511    0.756028   -1.409317
 C   -5.280100   -1.411455   -0.178672
 C   -4.558417    0.002780    1.629420
 C   -0.475660   -0.663313   -0.560728
 C    4.427071   -1.432226    0.017424
 C    3.911356   -0.518118    1.133688
 C    2.927234    0.514676    0.684951
 C    3.086356    1.860469    0.646922
 C    1.069468    1.540061   -0.107813
 C   -0.205256    1.747891   -0.619648
 C   -0.985675    0.621273   -0.849343
 C   -3.449242    0.139633   -0.519998
 C   -4.304100   -0.851124   -1.000740
 C   -5.410289   -0.985256    1.138235
 C   -3.585680    0.557597    0.806917
 C    0.797230   -0.852099   -0.053607
 C    1.589228    0.278504    0.182084
 O    4.485570   -0.884452   -1.209157
 O    1.985322    2.508461    0.177805
 O    4.798186   -2.557478    0.215304
 H   -2.428862    0.284327   -2.398709
 H   -2.611412    1.818165   -1.565602
 H   -5.936785   -2.182953   -0.570093
 H   -4.651664    0.339356    2.657879
 H   -1.113845   -1.524558   -0.737840
 H    4.789752   -0.037140    1.581119
 H    3.484027   -1.170608    1.899749
 H    3.911179    2.497094    0.933364
 H   -0.568612    2.748440   -0.831039
 H   -4.207705   -1.188702   -2.030041
 H   -6.169140   -1.420837    1.781354
 H   -2.914642    1.318944    1.197446
 H    1.170890   -1.850279    0.154835
 H    4.098124    0.004585   -1.182688
