34 
6pvz_ligand_xtb.xyz
 C   -2.370995    0.833263   -1.413295
 C   -5.207597   -1.379670   -0.201773
 C   -4.424081   -0.062167    1.637022
 C   -0.512803   -0.620407   -0.572083
 C    4.325948   -1.448787   -0.035095
 C    3.813247   -0.629099    1.149173
 C    2.874853    0.447699    0.725438
 C    3.084168    1.790581    0.705098
 C    1.072576    1.553011   -0.074306
 C   -0.191762    1.776214   -0.597308
 C   -0.985514    0.671596   -0.848087
 C   -3.400538    0.177479   -0.529376
 C   -4.267231   -0.785405   -1.026103
 C   -5.288020   -1.019735    1.131659
 C   -3.487447    0.531928    0.811828
 C    0.738867   -0.845037   -0.049257
 C    1.548724    0.259682    0.205989
 O    4.545460   -0.746188   -1.155002
 O    2.015346    2.477102    0.233195
 O    4.546151   -2.621746    0.021215
 H   -2.409629    0.385252   -2.409673
 H   -2.602059    1.896694   -1.513963
 H   -5.877257   -2.126618   -0.602599
 H   -4.481342    0.221807    2.677734
 H   -1.163267   -1.457601   -0.777564
 H    4.686002   -0.195170    1.644971
 H    3.330990   -1.316473    1.845947
 H    3.930843    2.376278    1.009718
 H   -0.533270    2.778916   -0.801320
 H   -4.209124   -1.072907   -2.066776
 H   -6.020224   -1.483815    1.775703
 H   -2.811591    1.276724    1.207633
 H    1.091715   -1.844351    0.153568
 H    4.278198    0.181050   -1.055786
