53 
6py0_ligand_dft.xyz
 C    4.073970    1.228258    0.081243
 C    5.404468    1.321116   -0.692467
 C    6.288461    0.083785   -0.547607
 C    5.532193   -1.165141   -0.993865
 C    4.207506   -1.346746   -0.244643
 C    3.327014   -0.076803   -0.350216
 C    2.041083   -0.264644    0.405089
 C    0.815836   -0.122788   -0.115743
 C   -0.450621   -0.289411    0.602412
 C   -1.606347   -0.126466   -0.080102
 C   -2.959778   -0.237248    0.428016
 C   -4.046900   -0.076092   -0.349884
 C   -5.442909   -0.170260    0.086557
 C   -6.412137   -0.022117   -0.835442
 C   -7.900025   -0.066451   -0.650136
 O   -8.533254    1.045072   -1.264105
 C    4.337369    1.262754    1.596025
 C    3.219732    2.448783   -0.287439
 C    3.467104   -2.581491   -0.762283
 C   -0.377641   -0.632962    2.066607
 C   -5.695551   -0.440743    1.548435
 H    5.945257    2.219350   -0.366725
 H    5.177689    1.465008   -1.759195
 H    6.610391   -0.031869    0.495624
 H    7.201700    0.206426   -1.141281
 H    6.152695   -2.059985   -0.860614
 H    5.318582   -1.090241   -2.070988
 H    4.439346   -1.513137    0.818336
 H    3.080313    0.050352   -1.416721
 H    2.149263   -0.543763    1.453347
 H    0.729762    0.143916   -1.169944
 H   -1.529201    0.115563   -1.140668
 H   -3.092739   -0.460216    1.483193
 H   -3.897302    0.139187   -1.408261
 H   -6.115327    0.165714   -1.867630
 H   -8.313857   -0.945535   -1.156704
 H   -8.183246   -0.145172    0.408394
 H   -8.143756    1.839629   -0.879286
 H    3.399288    1.328132    2.157344
 H    4.879083    0.380978    1.952623
 H    4.935628    2.144786    1.852899
 H    3.744301    3.376379   -0.028979
 H    2.260860    2.441126    0.240153
 H    3.010629    2.471208   -1.364012
 H    2.547592   -2.771612   -0.200880
 H    3.188990   -2.447956   -1.815425
 H    4.101896   -3.471996   -0.693815
 H    0.149409   -1.583473    2.212128
 H    0.183632    0.133601    2.614122
 H   -1.359794   -0.724133    2.532210
 H   -5.284106   -1.415645    1.834773
 H   -6.756827   -0.443391    1.800944
 H   -5.201062    0.314207    2.170525
