36 
6pya_ligand_xtb.xyz
 C  -15.119598  -31.643845   -2.332990
 C  -14.476365  -32.657126   -1.660181
 C  -13.542806  -33.479164   -2.298834
 C  -13.227581  -33.308155   -3.629475
 C  -13.874637  -32.288527   -4.315094
 C  -14.821814  -31.448670   -3.682190
 C  -15.274216  -30.522373   -4.668429
 C  -14.603600  -30.814785   -5.836421
 C  -14.693915  -30.195744   -7.151378
 C  -14.630141  -30.984615   -8.301149
 C  -14.722714  -30.410262   -9.554095
 C  -14.878009  -29.039659   -9.682455
 C  -14.934607  -28.246640   -8.548614
 C  -14.841125  -28.815700   -7.292256
 C  -16.316995  -29.477864   -4.455852
 C  -16.477659  -27.189753   -3.463619
 C  -14.439099  -26.667145   -3.215210
 C  -14.451683  -27.926078   -3.744154
 N  -13.776343  -31.890505   -5.616023
 N  -15.767827  -28.255836   -3.900879
 N  -15.710133  -26.221007   -3.047094
 H  -15.833258  -31.009311   -1.828972
 H  -14.690831  -32.825659   -0.615265
 H  -13.059902  -34.262657   -1.734115
 H  -12.505411  -33.941570   -4.123243
 H  -14.533420  -32.057512   -8.210189
 H  -14.677344  -31.034389  -10.434608
 H  -14.951103  -28.592134  -10.662300
 H  -15.046196  -27.176512   -8.642282
 H  -14.850856  -28.183078   -6.418303
 H  -16.809703  -29.244559   -5.408622
 H  -17.076313  -29.855459   -3.760925
 H  -17.549513  -27.163862   -3.469150
 H  -13.599255  -26.058132   -2.947505
 H  -13.659466  -28.597454   -4.003442
 H  -13.148562  -32.276260   -6.300686
