61 
6pyd_ligand_xtb.xyz
 C    3.026056   -0.443896    0.838444
 C    3.934878   -1.610490    0.401784
 C    4.273740   -1.615528   -1.084614
 C    4.972351   -0.313250   -1.475117
 C    4.127599    0.891802   -1.057680
 C    3.742568    0.887480    0.433308
 C    2.845485    2.094462    0.747176
 O   -6.099146   -1.072524   -0.002923
 O   -7.670939    0.309320    0.737475
 O    4.912162    1.069644    1.210714
 O    6.248480   -0.201120   -0.862095
 C   -6.527932    0.186152    0.374930
 C   -4.852046   -1.291932   -0.419116
 C   -5.533242    1.232937    0.289183
 C   -4.275351    0.984878   -0.135729
 C   -3.894768   -0.340640   -0.513808
 C   -2.517847   -0.687866   -1.008506
 C   -1.404399   -0.677965    0.093649
 C   -1.982044   -0.700026    1.506660
 C   -0.477083   -1.878731   -0.149429
 C    0.848548   -1.778379    0.598835
 C    1.624068   -0.524341    0.182934
 C    2.932379   -0.517536    2.369822
 C   -2.037107    0.274099   -2.119244
 C   -0.972082    1.133122   -1.475588
 O   -1.369192    1.757458   -0.282875
 C   -0.590290    0.590222   -0.170751
 C    0.766404    0.712026    0.496315
 C    1.475320    2.004071    0.095705
 H    3.480740   -2.563518    0.674331
 H    4.864607   -1.525645    0.969366
 H    3.374523   -1.732566   -1.689881
 H    4.929735   -2.463234   -1.306202
 H    5.105345   -0.284978   -2.570558
 H    3.239585    0.913421   -1.685892
 H    4.704415    1.799380   -1.248476
 H    2.749064    2.159554    1.830466
 H    3.359995    2.997227    0.413663
 H    5.648008    0.662093    0.731444
 H    6.762147   -0.991266   -1.059635
 H   -4.690573   -2.330767   -0.677433
 H   -5.858070    2.217506    0.584598
 H   -3.536246    1.770654   -0.184642
 H   -2.583819   -1.703263   -1.409441
 H   -2.662760   -1.540215    1.626192
 H   -2.521356    0.221898    1.708536
 H   -1.187486   -0.794001    2.241379
 H   -0.995743   -2.793321    0.146293
 H   -0.263294   -1.943738   -1.219585
 H    1.429065   -2.672820    0.372173
 H    0.668052   -1.762983    1.672527
 H    1.751239   -0.559399   -0.903971
 H    2.134408    0.103555    2.762154
 H    2.765808   -1.541821    2.693854
 H    3.869078   -0.169094    2.797457
 H   -2.857619    0.877603   -2.507827
 H   -1.595610   -0.277661   -2.950066
 H   -0.309540    1.705185   -2.111433
 H    0.576276    0.752892    1.573826
 H    0.863631    2.855585    0.398476
 H    1.584245    2.047480   -0.989051
