49 
6pyu_ligand_xtb.xyz
 C    3.348144   -1.767193   -0.027300
 C    1.240491   -1.994951   -0.865900
 C    0.162514   -2.379673   -1.637574
 C   -1.055427   -1.760499   -1.404266
 C   -1.202869   -0.769538   -0.435628
 C   -0.097180   -0.388729    0.333029
 C    2.465213   -1.157839    2.286647
 C    3.604917   -0.289879    2.810460
 C    3.209341    1.078010   -0.487411
 C    3.783674    2.455610   -0.481820
 C    4.039944    3.102093   -1.812779
 C    5.191185    2.607387   -1.006437
 C   -3.669199   -0.867283   -0.244873
 C   -7.169771   -0.358965    0.148446
 C   -4.969115    1.154554    0.207786
 O    4.535414   -1.916916    0.114391
 N    2.547378   -2.451480   -0.892387
 C    1.107646   -1.011100    0.119145
 C    2.437491   -0.818942    0.789786
 C    3.433277    1.003576    2.015981
 N    2.944492    0.547199    0.729970
 O    2.969933    0.455551   -1.508184
 C   -2.507852   -0.129475   -0.221038
 C   -4.912736   -0.247607   -0.032894
 N   -6.044037   -0.986725   -0.056378
 C   -7.223906    1.030121    0.387642
 N   -6.149679    1.772263    0.417131
 C   -3.769607    1.894838    0.222112
 C   -2.577411    1.264635    0.014892
 H    0.263335   -3.130231   -2.405977
 H   -1.907559   -2.031709   -2.008984
 H   -0.197127    0.371147    1.093867
 H    2.630252   -2.220024    2.456525
 H    1.514912   -0.870026    2.739868
 H    4.557804   -0.752421    2.553688
 H    3.557500   -0.131632    3.885799
 H    3.481112    3.082749    0.346066
 H    3.880916    4.165902   -1.899799
 H    3.753303    2.530315   -2.681920
 H    5.836415    3.322754   -0.518119
 H    5.692974    1.709931   -1.334554
 H   -3.656074   -1.934310   -0.404450
 H   -8.070732   -0.958038    0.126362
 H    2.914678   -3.061332   -1.606150
 H    2.690575    1.659399    2.489510
 H    4.372218    1.547291    1.906969
 H   -8.166851    1.533100    0.556850
 H   -3.829227    2.958283    0.394905
 H   -1.660850    1.836051    0.003494
