31 
6q4g_ligand_dft.xyz
 C    0.114930   -8.377864  -26.143592
 C   -0.152064   -9.511615  -25.387879
 C   -0.682181   -9.394888  -24.107477
 C   -0.091487   -4.581854  -26.039356
 C   -0.953016   -8.134130  -23.572880
 C   -1.516815   -7.984497  -22.180684
 C   -2.889204   -8.601851  -21.999426
 C   -0.686015   -6.999220  -24.333871
 C   -0.558455   -2.719336  -25.119436
 C    0.266668   -3.590525  -26.965819
 N    1.446452   -5.372684  -29.685671
 N    0.668391   -6.112488  -27.653585
 C   -0.149578   -7.107832  -25.622494
 N   -0.607144   -3.997399  -24.887620
 C    0.956398   -5.063762  -28.447565
 C    0.142338   -5.908504  -26.443160
 O   -3.573113   -7.983600  -21.015632
 O   -3.336534   -9.546591  -22.601210
 N   -0.040233   -2.402953  -26.355185
 N    0.791789   -3.763301  -28.170997
 H    0.528386   -8.456619  -27.142320
 H    0.053034  -10.495343  -25.799389
 H   -0.900781  -10.284520  -23.525370
 H   -0.865950   -8.479543  -21.446592
 H   -1.565257   -6.932901  -21.886929
 H   -0.895008   -6.015090  -23.927443
 H   -0.884298   -1.950117  -24.432159
 H    1.903761   -4.630230  -30.190146
 H    1.804773   -6.306545  -29.804153
 H   -4.416082   -8.458225  -20.934306
 H    0.087295   -1.485973  -26.752656
