41 
6q6m_ligand_xtb.xyz
 C   -2.057238   -0.979547   -0.673932
 C   -0.961609   -1.066674    0.190301
 C    0.005718   -1.704943    2.429874
 C    1.297188   -1.624369   -0.594485
 C    1.159365   -2.069733   -2.046673
 C    2.702583   -1.066308   -0.336451
 C    3.970913    0.159489    1.239183
 C    3.856235    1.654986    0.986473
Cl   -1.860288   -0.247785   -2.231353
 C   -1.130896   -1.630635    1.458070
 C   -2.386082   -2.106303    1.817195
 C   -3.459999   -2.021384    0.951929
 C   -3.302793   -1.448083   -0.297703
 N    0.308617   -0.614793   -0.230269
 O    3.644795   -1.242054   -1.055008
 O    2.754604   -0.499476    0.876344
 C    0.578229    0.660864   -0.621091
 O    1.606008    0.926494   -1.225018
 C   -0.352140    1.727347   -0.233684
 S   -1.438663    1.669551    1.116920
 C   -1.938068    3.284815    0.825583
 C   -1.311529    3.836471   -0.247384
 C   -0.394758    2.951945   -0.844188
 H    0.403999   -2.719132    2.472388
 H   -0.343972   -1.446574    3.426923
 H    0.809387   -1.030351    2.148695
 H    1.156864   -2.478805    0.076501
 H    1.275621   -1.211064   -2.702558
 H    1.942266   -2.785524   -2.279706
 H    0.187012   -2.527548   -2.212788
 H    4.121330   -0.057474    2.300192
 H    4.787503   -0.269969    0.650702
 H    3.074921    2.085634    1.608770
 H    3.600557    1.824698   -0.056654
 H    4.801487    2.140593    1.211181
 H   -2.517910   -2.540628    2.796861
 H   -4.427505   -2.394139    1.250374
 H   -4.132973   -1.366277   -0.980441
 H   -2.672594    3.728066    1.468667
 H   -1.492213    4.837147   -0.596236
 H    0.215433    3.187081   -1.697341
