41 
6q6m_ligand_dft.xyz
 C   -2.066890   -1.306875   -0.368543
 C   -0.879758   -1.060606    0.336291
 C    0.405150   -1.005626    2.514579
 C    1.319460   -1.587819   -0.653950
 C    1.150238   -2.212665   -2.035133
 C    2.733206   -1.028068   -0.473754
 C    4.076423    0.452610    0.759783
 C    3.882394    1.490473    1.844911
Cl   -2.173962   -0.960874   -2.074036
 C   -0.837348   -1.308928    1.720189
 C   -1.976165   -1.809411    2.348925
 C   -3.144504   -2.051194    1.636830
 C   -3.198632   -1.793190    0.273767
 N    0.288890   -0.592477   -0.327071
 O    3.677619   -1.370248   -1.140313
 O    2.814949   -0.201856    0.574880
 C    0.429847    0.662385   -0.875555
 O    1.356436    0.898110   -1.639803
 C   -0.499570    1.763703   -0.505756
 S   -1.647027    1.831283    0.800949
 C   -2.051186    3.458643    0.429113
 C   -1.354066    3.930024   -0.645811
 C   -0.461930    2.961430   -1.172393
 H    1.192096   -1.747245    2.337581
 H    0.182649   -1.003030    3.584771
 H    0.825803   -0.037189    2.234638
 H    1.217645   -2.374603    0.103620
 H    1.205512   -1.440327   -2.804118
 H    1.947565   -2.937957   -2.210215
 H    0.184124   -2.718929   -2.101265
 H    4.829865   -0.293079    1.032044
 H    4.375160    0.905570   -0.189401
 H    3.565312    1.021176    2.781350
 H    3.123123    2.218273    1.544494
 H    4.822149    2.021251    2.025585
 H   -1.947516   -1.996935    3.418407
 H   -4.023416   -2.435020    2.145048
 H   -4.106290   -1.964045   -0.293701
 H   -2.793492    3.977692    1.020937
 H   -1.471655    4.929390   -1.047002
 H    0.206892    3.119314   -2.008928
