41 
6q6o_ligand_xtb.xyz
 C    2.453810   -0.548011    0.617946
 C    1.199886   -0.862292    0.082730
 C   -0.867219   -1.109648    1.379462
 C   -0.505095   -1.088760    2.860551
 C   -2.316513   -0.645930    1.169091
 C   -3.818015    0.137982   -0.493809
 C   -3.660495    1.627980   -0.773399
 C   -4.299882   -0.636994   -1.712681
Cl    2.558127    0.623967    1.882486
 C    1.148626   -1.800175   -0.950756
 C    2.298525   -2.414461   -1.420449
 C    3.523885   -2.086532   -0.869406
 C    3.607917   -1.148181    0.144331
Cl   -0.371904   -2.172351   -1.672394
 N    0.029381   -0.272794    0.588344
 O   -3.144797   -0.630978    2.036319
 O   -2.533711   -0.389711   -0.116228
 C   -0.198434    1.073418    0.610978
 O   -1.086985    1.557352    1.289697
 C    0.619375    1.910731   -0.273345
 O    1.400117    1.399562   -1.253813
 C    1.962438    2.434656   -1.888699
 C    1.564584    3.618673   -1.342534
 C    0.684611    3.282106   -0.293757
 H   -0.798274   -2.131512    0.989826
 H   -1.227067   -1.681620    3.414311
 H    0.492566   -1.493909    3.013896
 H   -0.545827   -0.067687    3.230138
 H   -4.499817   -0.013719    0.352013
 H   -4.630953    2.074165   -0.970971
 H   -3.210132    2.113206    0.089298
 H   -3.013479    1.780440   -1.634681
 H   -3.595378   -0.515319   -2.532021
 H   -4.383765   -1.695796   -1.479818
 H   -5.272643   -0.265915   -2.022287
 H    2.225465   -3.135053   -2.218824
 H    4.420795   -2.560563   -1.235581
 H    4.559623   -0.882908    0.575578
 H    2.618973    2.206407   -2.705349
 H    1.857956    4.601308   -1.649311
 H    0.165505    3.943392    0.368484
