55 
6q74_ligand_dft.xyz
 N    2.923693    1.321771    0.754756
 N    2.686339   -1.737118   -0.317045
 C    0.467653    1.531697    0.725707
 C    1.705429    1.628873    0.121550
 C    2.251371   -1.284081    0.895947
 C    1.040732   -1.819612    1.231924
 C   -0.544214   -3.326373    0.017683
 C   -2.955692   -2.726869   -0.343023
 C   -2.300735   -0.617934   -2.024296
 C    1.753221   -2.569117   -0.718423
 C   -2.037770    1.618813    0.594527
 C   -4.516194    1.919579    0.619992
 C   -3.180031    2.531667    0.209354
 O    2.248467    0.238508    2.955104
 S    3.066443   -0.002854    1.777969
 O    4.490896   -0.241997    1.873930
 C   -0.698761    1.826917   -0.003559
 O   -4.484981    1.476835    1.958796
 C   -3.590200    0.403315    2.126181
 C   -2.262597    0.625674    1.461422
 C   -0.526282    2.275985   -1.306022
 N    0.668555    2.395977   -1.905349
 C    1.740369    2.069068   -1.219916
 O    2.965507    2.160842   -1.773469
 C    3.031410    2.603724   -3.121702
 C    1.770966   -3.337561   -1.996871
 N    0.732046   -2.659380    0.197697
 C   -1.612746   -2.434738   -0.589445
 C   -1.291766   -1.364829   -1.423687
 C   -3.636473   -0.920722   -1.786281
 C   -3.963536   -1.974476   -0.936199
 H    3.729073    1.386463    0.139574
 H    0.404105    1.241843    1.768540
 H    0.405446   -1.680626    2.092380
 H   -0.869564   -3.703344    0.991679
 H   -0.375146   -4.201741   -0.617846
 H   -3.216269   -3.551252    0.317067
 H   -2.033992    0.210785   -2.672043
 H   -4.758223    1.078615   -0.050483
 H   -5.322634    2.654450    0.556155
 H   -3.193660    2.707635   -0.872900
 H   -3.046404    3.512074    0.683696
 H   -4.035261   -0.533361    1.743520
 H   -3.457635    0.282924    3.207088
 H   -1.479280   -0.090455    1.698227
 H   -1.377737    2.540884   -1.926638
 H    2.480450    1.926534   -3.780438
 H    2.614148    3.609488   -3.221334
 H    4.091483    2.603054   -3.375498
 H    0.877935   -3.140965   -2.600548
 H    2.651631   -3.034277   -2.564193
 H    1.830139   -4.416991   -1.818050
 H   -0.254720   -1.087332   -1.591581
 H   -4.421525   -0.335524   -2.255879
 H   -5.003892   -2.209463   -0.732469
