42 
6q7a_ligand_xtb.xyz
 C    1.170696   -2.011184    0.833820
 C    1.379718   -1.070361   -0.176932
 C    2.972348    1.252957    1.128287
 C    0.690853    1.326821   -0.061185
 C   -1.287636    1.170921   -0.868884
 C   -0.780938   -0.105756   -0.873543
 C   -1.366322   -1.388916   -1.333809
 C   -2.652274    1.614892   -1.282285
 C   -3.706381    0.859990   -0.516925
 C   -4.740153    0.200613   -1.166119
 C   -5.688209   -0.506560   -0.446122
 C   -5.609869   -0.566154    0.933840
Cl   -0.178170   -1.813178    1.890935
 C    2.490290   -1.223757   -1.010835
 C    3.365903   -2.283485   -0.839896
 C    3.133559   -3.205952    0.165917
 C    2.040548   -3.076036    1.004987
Cl    2.761338   -0.060592   -2.253898
 N    0.490753   -0.003120   -0.353995
 N   -0.371822    2.033012   -0.361858
 C   -4.582160    0.090609    1.591043
 C   -3.639019    0.798683    0.870419
 C    1.890343    1.854893    0.528019
 O    2.043158    3.194730    0.553638
 C    3.208936    3.454711    1.157398
 C    3.826784    2.300817    1.533767
 H    3.136964    0.205480    1.277091
 H   -2.135257   -1.191941   -2.076220
 H   -0.599906   -2.028254   -1.770984
 H   -1.830239   -1.925583   -0.505039
 H   -2.790318    1.464818   -2.356482
 H   -2.726751    2.683936   -1.072673
 H   -4.807462    0.240901   -2.244787
 H   -6.488470   -1.014454   -0.965127
 H   -6.346779   -1.121160    1.495917
 H    4.217500   -2.380233   -1.493347
 H    3.813276   -4.032643    0.299221
 H    1.859968   -3.789035    1.792977
 H   -4.517185    0.049553    2.668945
 H   -2.836392    1.311361    1.380836
 H    3.489817    4.484052    1.260313
 H    4.767502    2.203735    2.035803
