44 
6q7h_ligand_dft.xyz
 C   -2.250960   -2.059377    1.590632
 C   -1.157312   -2.086642    2.439542
 C    0.076091   -1.625894    1.999333
 C    3.432072   -0.545758   -0.672058
 C    2.480324   -1.458872   -0.297925
 C    1.029017    1.746143    0.572707
 C    4.779687   -0.776943   -1.271309
 C   -0.088768    1.871543    1.347506
 C   -0.404923    3.262999    1.382446
 C    0.550818    3.861115    0.627129
 C   -3.679673   -0.502436   -1.455498
 C   -5.160806   -0.879280   -1.172539
 C   -4.634115   -1.756580   -0.028943
 C   -6.055304    0.273753   -0.764308
 C    0.215665   -1.170572    0.687838
 C   -0.885924   -1.183763   -0.173948
 C   -2.156586   -1.589939    0.270448
 N    1.461450   -0.683981    0.226601
Cl   -0.634116   -0.716933   -1.830437
 C    1.855635    0.633983    0.138615
 N    3.044181    0.738181   -0.394932
 F    4.988611    0.012858   -2.331503
 O    1.422969    2.970924    0.127755
Cl    1.433269   -1.598591    3.084034
Cl    0.815991    5.498388    0.219807
 N   -3.270278   -1.589563   -0.549599
 O   -6.292937    0.573962    0.374243
 O   -6.554608    1.002392   -1.783030
 F    5.766272   -0.531507   -0.394045
 F    4.929920   -2.053124   -1.685510
 C    2.363762   -2.943219   -0.362006
 H   -3.206471   -2.412902    1.960738
 H   -1.264442   -2.449641    3.455286
 H   -0.622733    1.081059    1.852591
 H   -1.218970    3.748053    1.898558
 H   -3.406123    0.494551   -1.086323
 H   -3.341123   -0.614188   -2.486726
 H   -5.603979   -1.455661   -1.990112
 H   -4.979525   -2.793797    0.005115
 H   -4.804954   -1.270948    0.940275
 H   -6.274445    0.638781   -2.633706
 H    1.505084   -3.241894   -0.973956
 H    3.263846   -3.369327   -0.800735
 H    2.230103   -3.369070    0.638442
