31 
6q7v_ligand_xtb.xyz
 C    3.738027   -0.519279    1.056603
 C    2.403769   -0.717888   -0.923877
 C   -3.944508   -0.028072   -0.638248
 C   -1.085341    1.380942    1.097954
 C   -2.580437    0.080448   -0.006685
 C   -1.756559   -1.021851   -0.002537
 C   -0.491482   -0.898531    0.605339
 C    1.675712   -1.946802    1.165838
 C    2.622741   -1.038410    0.409250
 C    4.624378    0.306718    0.391015
 C    4.376398    0.613854   -0.934756
 C    3.275913    0.112717   -1.604270
 C   -0.161489    0.333571    1.159761
 F    5.230493    1.426908   -1.589255
 F   -3.901210   -0.676772   -1.820837
 F   -4.526790    1.147577   -0.871034
 F   -4.798077   -0.737450    0.128904
 N   -0.829849    2.585740    1.675647
 N   -2.280696    1.258559    0.517966
 N    0.335147   -1.977517    0.643534
 H    3.915424   -0.763980    2.093775
 H    1.540238   -1.110641   -1.438794
 H   -2.068204   -1.949870   -0.453992
 H    1.645900   -1.634742    2.217085
 H    2.066521   -2.968460    1.140325
 H    5.492600    0.714256    0.884062
 H    3.111623    0.372275   -2.637961
 H    0.794064    0.501758    1.628073
 H    0.121270    2.837184    1.878214
 H   -1.471639    3.325524    1.446316
 H    0.057514   -2.777648    0.100556
