37 
6q7w_ligand_xtb.xyz
 C   -1.099977    2.606569   -0.764080
 C    2.265039    1.064680   -0.294084
 C    0.157812   -0.050150   -0.481720
 C   -3.069337   -1.395582    1.181313
 C   -2.974665   -0.039971    1.432492
 C   -3.345662    0.895825    0.472008
 C   -3.836510    0.446279   -0.747951
 C   -3.939872   -0.907228   -1.020150
 C   -3.545197   -1.809005   -0.050457
 C   -3.142100    2.359578    0.741397
 C   -1.649719    2.710226    0.668866
 C    0.875107    1.141088   -0.517393
 C    2.816711   -0.173255   -0.055897
 C    0.831416   -1.253126   -0.244234
 C    4.301308   -0.278212    0.179839
 F   -3.615826   -3.133408   -0.313234
 F    4.746256    0.677369    1.023278
 F    5.005188   -0.107190   -0.958255
 F    4.685943   -1.445819    0.694491
 N    0.318239    2.353460   -0.803492
 N    2.146594   -1.315005   -0.023761
 N    0.179038   -2.441424   -0.259514
 H   -1.291900    3.533202   -1.310317
 H   -1.603923    1.796487   -1.294890
 H    2.877814    1.951656   -0.304567
 H   -0.907268   -0.078320   -0.637326
 H   -2.781349   -2.126332    1.920694
 H   -2.602587    0.296143    2.388724
 H   -4.142760    1.160444   -1.498372
 H   -4.313624   -1.264557   -1.966334
 H   -3.511840    2.602100    1.739588
 H   -3.693899    2.960169    0.016678
 H   -1.490152    3.718998    1.053591
 H   -1.092834    2.016890    1.303057
 H    0.912256    3.148768   -0.624068
 H   -0.823452   -2.470835   -0.230975
 H    0.698263   -3.248908    0.035694
