57 
6q8b_ligand_xtb.xyz
 N   -2.984432    0.891958   -1.036665
 C   -3.226023    0.676201    0.409799
 C   -1.939732    0.806436    1.223514
 O   -1.807040    1.632327    2.080523
 C   -3.874222   -0.683314    0.688045
 C   -5.162492   -0.947718   -0.110200
 C   -5.680830   -2.335299    0.263344
 C   -6.233798    0.105019    0.165363
 C    3.473591    0.127922   -0.617551
 C    2.074689    2.036289    0.009712
 C    3.485669   -0.340802    0.869412
 C    3.632241   -1.873419    0.747679
 C    0.522717    3.715199    0.832187
 C   -0.103365    2.309549   -1.036525
 C    3.064526   -2.147376   -0.654066
 C    0.302201    1.375895   -2.043439
 C    1.552243   -2.416640   -0.674129
 C    1.492352    0.753781   -1.924202
 N    2.309837    1.000076   -0.878481
 N    0.854462    2.667865   -0.122880
 N   -0.922039   -0.097906    0.968236
 O   -1.273356   -1.118548   -1.296292
 O    2.878398    2.334876    0.863221
 O    4.532063    0.181768    1.609886
 O   -1.118806   -2.626179    0.615591
 O    4.958422   -2.281944    0.784564
 O   -1.249304    2.774989   -0.938806
 O    3.408778   -1.003758   -1.418517
 O    0.858300   -1.316100   -0.059325
 S   -0.709448   -1.433827   -0.018602
 H   -2.371388    1.787668   -1.159200
 H   -3.874126    0.981496   -1.531423
 H   -2.440527    0.083989   -1.408460
 H   -3.873640    1.484685    0.768061
 H   -4.112552   -0.730325    1.752552
 H   -3.156603   -1.477758    0.475021
 H   -4.929842   -0.960483   -1.181121
 H   -6.553597   -2.585545   -0.332859
 H   -5.964266   -2.366979    1.311861
 H   -4.918177   -3.089830    0.089273
 H   -5.949453    1.095719   -0.182618
 H   -6.441766    0.161714    1.230528
 H   -7.155887   -0.168837   -0.339617
 H    4.387782    0.689567   -0.853992
 H    2.510541   -0.114722    1.324377
 H    3.046409   -2.383535    1.526042
 H    1.432150    4.011922    1.347303
 H   -0.212362    3.348674    1.549934
 H    0.095825    4.559685    0.294438
 H    3.576159   -2.999664   -1.109677
 H   -0.353355    1.179401   -2.872780
 H    1.202367   -2.508087   -1.706005
 H    1.315021   -3.329994   -0.123562
 H    1.849848    0.018367   -2.628791
 H   -0.181646   -0.034655    1.653895
 H    4.388741    1.134321    1.722397
 H    5.452475   -1.669303    1.350172
