47 
6q8k_ligand_dft.xyz
 N  -13.258461   13.172550   18.860862
 C  -14.228386   12.284879   18.424267
 C  -13.916748   11.419056   17.353181
 C  -14.904163   10.526465   16.854462
 C  -16.178923   10.467491   17.411774
 C  -16.491360   11.318582   18.470192
 C  -17.780147   11.309359   19.092883
 N  -18.146503   12.089756   20.069491
 C  -17.221212   12.995174   20.520215
 C  -15.955809   13.107151   20.027503
 C  -15.524317   12.247062   18.972660
 N  -12.658929   11.459632   16.829346
 C  -12.396060   10.641092   15.829991
 N  -13.280490    9.746757   15.254717
 C  -14.473354    9.707827   15.766332
 N  -11.144667   10.644908   15.317575
 C  -10.745180    9.966163   14.102017
 C   -9.228528    9.781302   14.059303
 C   -8.429010   11.086398   13.980258
 N   -8.583816   11.932537   15.169614
 C   -7.826449   11.469709   16.337784
 C   -6.338884   11.809508   16.249355
 O   -6.146603   13.195724   16.048992
 C   -6.792004   13.637489   14.870922
 C   -8.290308   13.348868   14.939302
 H  -13.213358   13.316351   19.859610
 H  -12.355443   12.961181   18.451427
 H  -16.918579    9.769285   17.027539
 H  -18.521806   10.596881   18.728151
 H  -17.565171   13.648094   21.317731
 H  -15.293492   13.871943   20.420001
 H  -15.176863    9.001785   15.321808
 H  -10.520321   11.386907   15.622393
 H  -11.071440   10.526492   13.210762
 H  -11.243708    8.995317   14.063542
 H   -8.914654    9.185869   14.924844
 H   -8.981514    9.189436   13.169911
 H   -7.374828   10.847559   13.761619
 H   -8.798168   11.663483   13.123565
 H   -7.968861   10.392377   16.465266
 H   -8.246932   11.962033   17.223213
 H   -5.830137   11.555396   17.183207
 H   -5.857075   11.242294   15.435163
 H   -6.604869   14.712248   14.797179
 H   -6.344085   13.149654   13.988177
 H   -8.792934   13.677210   14.023345
 H   -8.715451   13.917768   15.775549
