48 
6q8k_ligand_xtb.xyz
 N    3.430718    2.271982   -0.952457
 C    3.146000    1.063476   -0.433447
 C    1.802332    0.776781   -0.100025
 C    1.442921   -0.514796    0.435092
 C    2.418367   -1.485797    0.651954
 C    3.744339   -1.203343    0.337805
 C    4.780493   -2.161586    0.543009
 N    6.027415   -1.956444    0.264037
 C    6.384863   -0.768646   -0.253504
 C    5.499050    0.245746   -0.498650
 C    4.127764    0.062565   -0.208137
 N    0.871066    1.735666   -0.270162
 C   -0.376337    1.492071    0.020042
 N   -0.803453    0.254241    0.448244
 C    0.075970   -0.709055    0.652255
 N   -1.310843    2.449840   -0.226305
 C   -2.340452    2.907721    0.709319
 C   -3.279592    1.850844    1.288439
 C   -4.008631    1.015257    0.225097
 N   -3.336293   -0.274757    0.028171
 C   -3.821539   -1.325119    0.936773
 C   -5.174600   -1.898363    0.496387
 O   -5.114413   -2.372608   -0.827539
 C   -4.750698   -1.345131   -1.719016
 C   -3.375291   -0.779623   -1.350612
 H    2.677126    2.931733   -1.037879
 H    4.373424    2.562983   -1.132787
 H    2.148117   -2.447577    1.057616
 H    4.529516   -3.128642    0.958894
 H    7.438600   -0.662564   -0.467582
 H    5.858244    1.173377   -0.915305
 H   -0.303526   -1.667120    0.981495
 H   -0.872188    3.243922   -0.678923
 H   -2.937232    3.631355    0.149465
 H   -1.867974    3.438981    1.546340
 H   -4.014492    2.399191    1.879032
 H   -2.744745    1.197668    1.979355
 H   -4.006073    1.559570   -0.720639
 H   -5.050856    0.874017    0.523459
 H   -1.883126    0.031112    0.361668
 H   -3.896008   -0.923262    1.947955
 H   -3.087087   -2.135496    0.927892
 H   -5.965110   -1.138417    0.588874
 H   -5.439294   -2.754182    1.117804
 H   -5.506833   -0.545345   -1.709208
 H   -4.723201   -1.795759   -2.711411
 H   -2.639613   -1.586479   -1.426602
 H   -3.092391    0.020107   -2.036597
