64 
6q96_ligand_dft.xyz
 C   -4.302313   -1.395594    1.105518
 C   -6.137222   -0.701613   -0.026123
 C   -1.015825    1.714441    2.913571
 C   -1.686941    2.599428    0.641060
 C   -4.003415    1.309524   -2.744438
 C   -8.346315   -1.500357    0.652488
 C    0.018755   -0.331436    0.812075
 C   -0.129646   -1.516387    0.094784
 C    1.190012   -2.115331   -0.184290
 C    1.460675   -0.057352    1.093487
 C    1.972629    1.247997    0.512744
 C    1.719468    1.571412   -0.822916
 C    2.898812    3.653396   -0.549011
 C    3.160858    3.334052    0.785186
 C    2.177830    2.764422   -1.357323
 C    2.701333    2.130157    1.307290
 C   -8.087591   -0.032070   -1.320802
 C    3.371907    4.895633   -1.095052
 N   -5.625834   -1.402718    1.003040
 N   -5.418545   -0.018703   -0.944311
 C   -4.108091   -0.029795   -0.810252
 C   -3.467835   -0.716939    0.235886
 N   -2.058353   -0.767340    0.354570
 N   -1.385542   -1.805187   -0.197853
 C   -1.252685    0.160685    0.977284
 C   -1.773817    1.414423    1.616199
 O   -3.344080    0.626557   -1.681812
 N   -7.487477   -0.659225   -0.159377
 N    2.092750   -1.230457    0.433491
 O    1.490211   -3.111778   -0.804178
 N    3.752167    5.898338   -1.535161
 C    3.483280   -1.387726    0.371519
 C    4.262985   -1.027322    1.556982
 C    6.258535   -1.723271    0.299350
 C    5.508149   -2.076568   -0.771918
 N    5.631086   -1.201718    1.393574
 C    4.099759   -1.893080   -0.739469
 O    3.827200   -0.599335    2.622673
Cl    6.261694   -2.738760   -2.192731
 H   -3.867660   -1.965878    1.924356
 H   -1.435008    2.601421    3.399069
 H    0.041230    1.919032    2.707760
 H   -1.071885    0.876796    3.615531
 H   -2.209647    2.377294   -0.293073
 H   -2.132581    3.493387    1.090275
 H   -0.640853    2.821570    0.402905
 H   -3.204134    1.764485   -3.328659
 H   -4.677055    2.076900   -2.354085
 H   -4.576085    0.609890   -3.357925
 H   -9.236980   -0.934790    0.944860
 H   -8.665025   -2.392763    0.096855
 H   -7.806152   -1.814554    1.543044
 H    1.691523   -0.091458    2.159221
 H    1.147647    0.885565   -1.441727
 H    3.726056    4.022987    1.403840
 H    1.981956    3.016913   -2.393968
 H    2.925389    1.860653    2.334700
 H   -7.551748    0.882369   -1.574107
 H   -9.126953    0.211605   -1.085756
 H   -8.072409   -0.696649   -2.195430
 H   -2.830090    1.249213    1.860901
 H    7.333948   -1.832141    0.349979
 H    6.171512   -0.959212    2.213806
 H    3.508050   -2.182544   -1.598196
