64 
6q9u_ligand_xtb.xyz
 C   -4.168517   -1.896792    0.481439
 C   -6.097331   -0.915563   -0.193399
 C   -1.330955    1.196101    3.073471
 C   -1.358904    2.602902    0.986773
 C   -4.287055    2.262421   -1.706395
 C   -8.186119   -2.096068    0.153632
 C    0.036408   -0.319905    0.675773
 C   -0.064805   -1.490683   -0.100002
 C    1.260544   -2.046878   -0.349806
 C    1.464381   -0.046074    0.984831
 C    1.946706    1.260449    0.404094
 C    1.869241    1.470039   -0.969435
 C    2.805135    3.661393   -0.692281
 C    2.888918    3.453806    0.684685
 C    2.294320    2.660854   -1.520779
 C    2.460724    2.256863    1.224698
 C   -8.184065    0.118491   -0.889740
 C    3.239937    4.885957   -1.248988
 N   -5.477489   -1.962778    0.368462
 N   -5.467697    0.175000   -0.668805
 C   -4.158317    0.228201   -0.561023
 C   -3.424843   -0.802562    0.063182
 N   -2.025243   -0.784109    0.175738
 N   -1.323933   -1.766063   -0.390404
 C   -1.252173    0.127302    0.844873
 C   -1.799333    1.280158    1.618565
 O   -3.499902    1.277898   -1.062321
 N   -7.431353   -0.955298   -0.296639
 N    2.128680   -1.176157    0.314869
 O    1.598314   -3.028691   -0.967423
 N    3.590745    5.880504   -1.698697
 C    3.509185   -1.321691    0.345552
 C    4.246248   -0.809379    1.499583
 C    6.282045   -1.643700    0.441471
 C    5.578082   -2.130587   -0.613603
 N    5.610191   -1.000777    1.430467
 C    4.178902   -1.960730   -0.664777
 O    3.784156   -0.253185    2.486753
Cl    6.386072   -2.946283   -1.898426
 H   -3.678676   -2.753438    0.923422
 H   -1.759801    2.011380    3.651065
 H   -0.247675    1.268558    3.125801
 H   -1.637876    0.254241    3.522842
 H   -1.666259    2.643166   -0.054406
 H   -1.807681    3.438722    1.518048
 H   -0.277151    2.701557    1.033791
 H   -3.587897    3.005391   -2.083814
 H   -4.982973    2.719439   -0.999589
 H   -4.855024    1.821967   -2.527942
 H   -8.904159   -1.792233    0.919219
 H   -8.732822   -2.537917   -0.683067
 H   -7.497704   -2.827634    0.566540
 H    1.679668   -0.077506    2.057707
 H    1.470801    0.693022   -1.605712
 H    3.290592    4.230350    1.318669
 H    2.235135    2.826868   -2.586179
 H    2.540594    2.083026    2.286889
 H   -7.499567    0.910445   -1.178442
 H   -8.911820    0.505737   -0.172113
 H   -8.721093   -0.239453   -1.771873
 H   -2.892814    1.224146    1.598497
 H    7.349991   -1.743646    0.541927
 H    6.119255   -0.661944    2.238634
 H    3.633708   -2.363806   -1.502065
