65 
6q9w_ligand_xtb.xyz
 C    3.963899   -0.559387    0.094207
 C    4.823605   -1.647725    0.080347
 C   -1.650369    0.800630    0.253769
 C   -2.574277    1.258052   -0.676397
 C   -3.090211    2.539031   -0.584881
 C   -2.673155    3.367571    0.444655
 C   -1.747206    2.926899    1.379424
 C   -1.240411    1.645595    1.279894
 C   -0.390135   -1.898620    2.070484
 C   -1.098947   -0.602350    0.172587
 C    0.386874   -0.666229    0.263218
 C    0.788057   -1.397441    1.359037
 C    2.551897   -0.737520    0.392517
 C    1.616728    0.470171   -1.626655
 C    0.879495   -0.298137   -2.722344
 C    1.095913    1.900175   -1.502369
 C   -2.823469   -1.717340    1.716687
 N    6.123436   -1.545975   -0.147909
 C    6.599417   -0.327324   -0.354875
 N    5.886955    0.796195   -0.320362
 C    4.593997    0.693172   -0.081831
 O    3.869124    1.809308    0.014436
 C    4.581509    3.029598   -0.111604
 O    7.888287   -0.162460   -0.612161
 C    8.679964   -1.338604   -0.625718
Cl   -3.314764    4.967346    0.566404
 N   -1.454218   -1.398919    1.347128
 N    1.510007   -0.233766   -0.365009
 N    2.141851   -1.443021    1.420538
 O   -0.510268   -2.599156    3.048983
 C   -3.617899   -2.022247    0.469032
 C   -3.290160   -3.162493   -0.260848
 C   -3.951699   -3.464267   -1.436319
 C   -4.952846   -2.632456   -1.910615
 C   -5.276655   -1.500436   -1.183282
 C   -4.622425   -1.189385   -0.001700
Cl   -6.515144   -0.436652   -1.760615
 C   -3.428679   -0.644993    2.623418
 H    4.447020   -2.644503    0.259547
 H   -2.902361    0.609376   -1.475855
 H   -3.813610    2.889272   -1.303631
 H   -1.432258    3.581139    2.176631
 H   -0.525555    1.289017    2.006389
 H   -1.483911   -1.094898   -0.732639
 H    2.683602    0.496698   -1.871663
 H    1.209658   -1.334366   -2.751123
 H    1.082425    0.157257   -3.687773
 H   -0.193725   -0.275196   -2.551204
 H    1.577221    2.398635   -0.666174
 H    1.317119    2.449724   -2.413239
 H    0.020869    1.906637   -1.343088
 H   -2.737003   -2.639037    2.310465
 H    5.051259    3.098699   -1.094254
 H    3.845703    3.820163    0.018285
 H    5.358622    3.098887    0.650822
 H    8.337656   -2.024931   -1.402746
 H    8.628153   -1.848809    0.337759
 H    9.696023   -1.008020   -0.829113
 H   -2.508292   -3.812830    0.103408
 H   -3.690550   -4.353157   -1.990359
 H   -5.474740   -2.858811   -2.826661
 H   -4.903327   -0.298867    0.535232
 H   -3.472674    0.323501    2.132832
 H   -2.810066   -0.552387    3.512480
 H   -4.429055   -0.941778    2.927464
