59 
6qas_ligand_xtb.xyz
 C    0.290025    1.027747   -2.373338
 C    1.403494    1.720673   -1.623899
 O    1.213869    2.398086   -0.630676
 N    2.636730    1.518846   -2.133603
 C    3.847478    2.035284   -1.531048
 C    4.705031    0.860451   -1.042604
 O    5.644354    0.447494   -1.696113
 N    4.338333    0.320117    0.125543
 C    4.738008   -1.005934    0.597675
 C    4.871325   -0.740866    2.111283
 C    3.757086    0.296022    2.359423
 C    3.146040    0.478270    0.951525
 C    2.432544   -0.809203    0.626870
 C    3.441658   -1.751442    0.400881
 C    3.120880   -3.049811    0.080117
 C    1.777711   -3.378160   -0.049372
 C    0.770763   -2.433597    0.156925
 C    1.102016   -1.126190    0.530277
 N   -0.543527   -2.839895   -0.029371
 C   -1.701086   -2.136738   -0.063738
 N   -2.774575   -2.902754   -0.323473
 C   -3.935096   -2.286237   -0.384521
 C   -4.072963   -0.921324   -0.190749
 C   -2.885267   -0.189998    0.091898
 N   -1.712691   -0.826364    0.140421
 N   -2.900429    1.132795    0.294267
 C   -1.770277    1.915033    0.713612
 C   -1.795752    3.395540    0.307870
 C   -1.471765    3.781486    1.759433
 C   -1.742289    2.334788    2.197665
 C   -5.396180   -0.251983   -0.261389
 F   -6.403381   -1.087787   -0.530659
 F   -5.729085    0.379414    0.892473
 F   -5.447247    0.717893   -1.206752
 H   -0.602548    1.647245   -2.347606
 H    0.060814    0.092017   -1.864382
 H    0.562749    0.817512   -3.403215
 H    2.759404    0.914086   -2.930339
 H    3.558464    2.703634   -0.719044
 H    4.425724    2.586872   -2.278044
 H    5.619649   -1.393169    0.096237
 H    4.731438   -1.654188    2.685991
 H    5.853672   -0.329771    2.336817
 H    3.008529   -0.051974    3.068221
 H    4.166734    1.239288    2.716847
 H    2.581007    1.393364    0.807307
 H    3.883767   -3.794971   -0.085219
 H    1.502532   -4.385917   -0.325475
 H    0.325522   -0.406838    0.718565
 H   -0.685923   -3.822228   -0.227458
 H   -4.794598   -2.908250   -0.595966
 H   -3.791047    1.604883    0.336596
 H   -0.861566    1.410577    0.394162
 H   -2.779455    3.727638   -0.019487
 H   -1.049833    3.678838   -0.428978
 H   -2.110376    4.540150    2.205712
 H   -0.431716    4.068907    1.885253
 H   -2.710943    2.208073    2.678634
 H   -0.977556    1.861811    2.808367
