70 
6qau_ligand_dft.xyz
 C  105.288666   10.061982  -29.384666
 C  103.789176   10.037369  -29.758772
 C  103.444712   10.019773  -28.251543
 C  104.885643   10.481305  -27.936537
 C  105.001864   11.984208  -27.754266
 O  104.128938   12.770000  -28.096418
 N  106.185150   12.404216  -27.224325
 C  106.524828   13.815632  -27.134651
 C  106.853414   14.453630  -28.484828
 C  108.004275   13.746117  -29.203284
 N  108.427437   14.408498  -30.422213
 C  109.141672   15.564877  -30.411443
 N  109.593170   15.993111  -29.227845
 C  109.406770   16.264458  -31.613845
 C  108.906879   15.772128  -32.926199
 C  108.376683   16.733445  -33.954431
 C  107.421779   15.819040  -33.240741
 C  110.178151   17.401321  -31.461531
 N  110.645730   17.855703  -30.295782
 C  110.315332   17.113188  -29.229715
 N  110.794905   17.607612  -28.041056
 C  110.622388   17.195679  -26.716427
 C  111.280412   17.952463  -25.733836
 C  109.850420   16.099695  -26.316526
 C  109.753176   15.791147  -24.961970
 C  110.399119   16.546806  -23.994024
 C  111.170856   17.643883  -24.385138
 C  111.859994   18.499654  -23.344595
 N  112.527186   17.706024  -22.326019
 C  112.968372   18.519793  -21.202435
 C  113.609879   17.629390  -20.145914
 O  114.696443   16.902465  -20.676555
 C  114.278106   16.107190  -21.766267
 C  113.653913   16.954199  -22.865639
 H  105.938889   10.748352  -29.937472
 H  105.738897    9.065175  -29.397095
 H  103.443018    9.197647  -30.367034
 H  103.473679   10.974591  -30.222622
 H  103.257991    9.009612  -27.876402
 H  102.651000   10.691782  -27.920467
 H  105.406091    9.954660  -27.129154
 H  106.894607   11.718311  -27.020016
 H  105.680821   14.340764  -26.679313
 H  107.379129   13.905408  -26.454532
 H  107.129706   15.499893  -28.315777
 H  105.955692   14.439539  -29.111563
 H  107.713694   12.725001  -29.470804
 H  108.874745   13.676079  -28.542123
 H  107.927550   14.205381  -31.274403
 H  109.431678   14.904135  -33.325493
 H  108.595617   16.533945  -34.998352
 H  108.347713   17.786962  -33.693666
 H  106.767336   16.262744  -32.495669
 H  106.985213   14.995533  -33.798341
 H  110.436953   17.992970  -32.338755
 H  111.331453   18.451743  -28.180112
 H  111.893459   18.799776  -26.037306
 H  109.346833   15.504237  -27.063353
 H  109.153232   14.935385  -24.662466
 H  110.332395   16.292902  -22.940998
 H  112.560871   19.198758  -23.842441
 H  111.108649   19.119251  -22.837602
 H  113.699425   19.289800  -21.518202
 H  112.102123   19.035095  -20.770763
 H  112.849507   16.938428  -19.746604
 H  114.006514   18.230995  -19.323836
 H  113.545849   15.356037  -21.428021
 H  115.167801   15.590845  -22.135767
 H  114.423502   17.632337  -23.284140
 H  113.298937   16.306927  -23.673899
