85 
6qe0_ligand_xtb.xyz
 O   -3.814063    1.101030    1.125166
 O    5.051323   -0.046306   -3.341338
 C   -0.486254    0.253673    2.230550
 C    0.914174    0.005403    1.639947
 C    1.637264   -1.223900    2.207163
 C    2.783984   -3.257148    1.345590
 C    2.246013   -3.995284    0.089510
 C   -0.000218   -3.035272   -0.068143
 C   -1.002458   -2.306896   -0.719730
 C   -2.272416   -1.093894   -1.912174
 C   -4.265780   -0.798623   -0.384089
 C   -5.992664    0.136944   -1.630141
 C   -5.704180    0.666504   -3.038997
 C   -5.632131    1.150167   -0.530242
 C   -4.197170    0.736278   -0.174984
 C   -2.194264   -2.115959    0.010437
 C   -1.410557   -3.264192    1.732819
 C    3.769381   -0.981152    0.958541
 C    4.144634   -1.025184   -0.531526
 C    2.969695    0.198954   -2.161681
 C    4.439912    0.641141   -2.286330
 C    5.077143    0.146939   -0.954883
 C    0.730901    1.016470   -1.528139
 C    1.128670    2.690695   -0.264328
 C    1.157961    3.773298    0.634956
 C    3.443770    3.782662    0.420318
 C    2.364967    2.262394   -0.777505
 C   -0.372735    0.511482    3.746439
 N   -1.154164    1.379229    1.537491
 N    2.554456   -1.796948    1.190224
 N    1.263790   -3.168409   -0.583283
 N   -1.090455   -1.637338   -1.914246
 N   -2.983071   -1.328057   -0.769432
 N   -2.412743   -2.563150    1.245351
 N   -0.230442   -3.487172    1.163210
 N    2.080500    1.194296   -1.595566
 N    0.129570    1.863844   -0.735926
 N    0.045035    4.250066    1.263055
 N    2.343193    4.272815    0.962473
 N    3.538368    2.788749   -0.447680
 O   -5.225646   -1.034500   -1.362445
 O   -4.389273    1.191725   -3.091207
 O   -6.369651    0.999380    0.655854
 O    2.953686   -0.929727   -1.311562
 O    6.391231   -0.238532   -1.083143
 O   -0.974756    1.636579    4.100286
 O    0.211324   -0.229424    4.475917
 H   -4.624910    1.066973    1.663293
 H    5.281643    0.543830   -4.065792
 H   -1.094136   -0.651083    2.111575
 H    1.511891    0.908360    1.782550
 H    0.776342   -0.159188    0.568893
 H    0.899089   -1.988984    2.455224
 H    2.196376   -0.985541    3.112771
 H    2.251442   -3.608058    2.227912
 H    3.844422   -3.464760    1.479032
 H    1.808256   -4.945093    0.406607
 H    3.053130   -4.195445   -0.613560
 H   -2.672249   -0.501196   -2.711493
 H   -4.529477   -1.303768    0.560146
 H   -7.048905   -0.149323   -1.578592
 H   -5.814978   -0.166868   -3.741759
 H   -6.440235    1.441737   -3.281920
 H   -5.686285    2.178923   -0.903472
 H   -3.489034    1.176802   -0.882199
 H   -1.541158   -3.669886    2.725401
 H    4.601581   -1.331565    1.569214
 H    3.552432    0.050921    1.236957
 H    4.633381   -1.974068   -0.779633
 H    2.564773   -0.111783   -3.131525
 H    4.523367    1.724664   -2.376918
 H    5.038011    0.953624   -0.216003
 H    0.229208    0.222783   -2.053478
 H    4.372762    4.241346    0.724630
 H   -0.981015    2.255209    2.050540
 H   -0.786068    1.532690    0.522923
 H   -2.197266    1.245432    1.486456
 H    2.039230   -1.785209    0.263422
 H    1.328365   -3.083412   -1.586960
 H   -0.801640    4.278998    0.712868
 H    0.223577    5.098223    1.786727
 H   -4.248725    1.548833   -3.975862
 H   -7.303369    1.176372    0.499957
 H    6.532269   -0.588296   -1.978870
 H   -0.929600    1.787531    5.060716
