52 
6qfg_ligand_dft.xyz
 C   -4.712038  -16.811045   68.069160
 C   -3.307075  -17.289132   69.604653
 C   -4.696547  -16.606663   71.687396
 C   -5.843464  -15.418367   73.465005
 C   -4.051941  -17.386081   72.655883
 C   -3.055071  -15.359600   65.609196
 C   -2.188029  -14.507616   64.938800
 C   -1.219924  -13.769078   67.002227
 C   -2.536288  -13.884631   69.147067
 C   -4.527804  -12.590425   69.378851
 N   -1.099772  -12.347493   63.106947
 C   -1.123615  -13.682866   62.757880
 N   -0.429027  -14.078103   61.755103
 C   -2.060734  -14.550494   63.541011
 C   -2.843040  -15.489050   62.863547
 C   -3.728699  -16.334569   63.513344
 C   -3.850995  -16.265946   64.905272
 N   -4.754714  -17.067788   65.593946
 C   -5.426177  -16.551845   66.766602
 N   -5.303606  -16.508904   69.259223
 C   -4.413299  -16.819349   70.268188
 N   -3.497913  -17.275656   68.245500
 C   -5.594502  -15.618382   72.111416
 C   -5.191599  -16.194225   74.418736
 C   -4.292354  -17.175684   74.007757
 O   -1.416145  -13.595482   65.610966
 C   -2.396018  -13.362483   67.864149
 C   -3.614889  -13.485718   69.925924
 N   -4.423011  -12.090466   68.145345
 C   -3.371491  -12.470708   67.417440
 H   -2.370621  -17.617366   70.035174
 H   -6.541842  -14.646529   73.774319
 H   -3.372036  -18.171825   72.340211
 H   -3.102715  -15.357344   66.687247
 H   -0.947089  -14.811760   67.211982
 H   -0.353901  -13.141705   67.234262
 H   -1.822681  -14.610291   69.528455
 H   -5.388461  -12.258049   69.956661
 H   -1.248809  -12.145839   64.084647
 H   -0.326034  -11.848621   62.688470
 H   -0.569802  -15.075132   61.602937
 H   -2.774511  -15.528936   61.780081
 H   -4.341735  -17.025774   62.941322
 H   -5.350500  -17.615980   64.993131
 H   -5.588809  -15.465001   66.672901
 H   -6.418690  -17.014468   66.820041
 H   -6.247807  -16.180287   69.389631
 H   -6.082681  -14.978062   71.380285
 H   -5.382930  -16.035937   75.475455
 H   -3.783395  -17.789656   74.744691
 H   -3.752755  -13.873718   70.929689
 H   -3.310417  -12.060873   66.411872
