52 
6qfh_ligand_xtb.xyz
 C   -5.313506  -16.859915   67.644718
 C   -3.881634  -17.853203   68.869861
 C   -4.168822  -16.489599   71.036786
 C   -4.875325  -15.461317   73.100972
 C   -2.953143  -16.815288   71.641063
 C   -3.648869  -15.204403   65.716321
 C   -2.462777  -14.601367   65.330022
 C   -1.849075  -14.016963   67.562087
 C   -3.162471  -13.568668   69.650552
 C   -5.117009  -12.217005   69.546884
 N   -0.487085  -12.910670   63.865126
 C   -0.647469  -14.238810   63.594896
 N    0.251434  -14.835151   62.918109
 C   -1.920420  -14.848336   64.062275
 C   -2.590642  -15.749324   63.237611
 C   -3.757461  -16.366521   63.625301
 C   -4.320480  -16.085963   64.873008
 N   -5.544174  -16.630643   65.198236
 C   -6.156548  -16.422791   66.486050
 N   -5.339723  -16.235572   68.851699
 C   -4.417650  -16.862197   69.659948
 N   -4.447833  -17.840168   67.639139
 C   -5.128558  -15.809601   71.787622
 C   -3.663180  -15.783126   73.687956
 C   -2.705307  -16.464074   72.953370
 O   -1.772026  -13.761891   66.179810
 C   -3.003866  -13.369083   68.282845
 C   -4.231850  -12.976308   70.299089
 N   -4.974711  -12.018429   68.248326
 C   -3.939838  -12.567100   67.637502
 H   -3.140407  -18.585658   69.117230
 H   -5.629736  -14.937702   73.670407
 H   -2.202604  -17.337759   71.067580
 H   -4.049680  -14.988978   66.691505
 H   -1.871337  -15.101037   67.748848
 H   -0.912540  -13.622359   67.976304
 H   -2.458548  -14.181463   70.196060
 H   -5.978535  -11.744184   70.000144
 H   -0.962723  -12.543061   64.671251
 H    0.437443  -12.554785   63.681248
 H    0.035738  -15.801973   62.698617
 H   -2.178591  -15.957446   62.260429
 H   -4.252440  -17.061170   62.963529
 H   -5.718205  -17.531672   64.781345
 H   -6.385990  -15.354850   66.600592
 H   -7.105077  -16.970118   66.493203
 H   -5.896888  -15.436243   69.105689
 H   -6.087036  -15.566459   71.350515
 H   -3.467331  -15.508268   74.713404
 H   -1.759171  -16.719759   73.407167
 H   -4.374973  -13.108015   71.360099
 H   -3.859350  -12.364558   66.577648
