54 
6qg7_ligand_xtb.xyz
 C   -0.160202    1.591164    0.622453
 C    1.226923    1.324497    0.529207
 C    2.058239    2.464878    0.540776
 N    1.497591    3.673305    0.580320
 N   -0.713354    2.806281    0.671980
 C   -7.231971   -0.101339   -2.103404
 C   -6.407177   -0.728504   -0.986259
 C   -4.922837   -0.473225   -1.206843
 O   -4.510904    0.161151   -2.157359
 N   -4.069673   -1.016439   -0.297874
 C   -2.656110   -0.732414   -0.404021
 C   -4.416814   -1.695638    0.927751
 C   -4.042926   -0.826910    2.131799
 C   -2.553900   -0.500571    2.091849
 C   -2.202736    0.165494    0.757723
 N   -0.787729    0.400280    0.670359
 N    0.094297   -0.611461    0.626148
 C    0.176431    3.773078    0.634492
 N    3.404149    2.406050    0.565944
 C    1.304343   -0.098638    0.528665
 C    2.495369   -0.943952    0.502597
 C    3.506008   -0.764498   -0.482036
 C    3.364139    0.128284   -1.567777
 C    4.364064    0.281629   -2.488049
 C    5.554606   -0.451266   -2.372077
 C    5.709013   -1.349158   -1.353685
 C    4.691643   -1.542581   -0.395348
 C    4.818499   -2.499358    0.632989
 C    3.805300   -2.695031    1.529375
 C    2.645195   -1.914489    1.465674
 H   -7.051698    0.969268   -2.145052
 H   -6.946556   -0.525166   -3.062227
 H   -8.292116   -0.277904   -1.937798
 H   -6.703025   -0.301183   -0.025148
 H   -6.584108   -1.806240   -0.956813
 H   -2.084600   -1.666157   -0.371302
 H   -2.485483   -0.235115   -1.360574
 H   -3.849303   -2.633714    0.970330
 H   -5.477101   -1.937943    0.948408
 H   -4.289045   -1.353188    3.054920
 H   -4.620650    0.099150    2.100130
 H   -2.285675    0.162590    2.916280
 H   -1.966471   -1.416927    2.183420
 H   -2.682297    1.146990    0.681625
 H   -0.213259    4.782287    0.660014
 H    3.902411    3.275414    0.486276
 H    3.877258    1.541923    0.366119
 H    2.441475    0.679065   -1.676873
 H    4.238015    0.964250   -3.315342
 H    6.337757   -0.311908   -3.102363
 H    6.612153   -1.936944   -1.271344
 H    5.726576   -3.082057    0.689160
 H    3.897118   -3.442797    2.303250
 H    1.858320   -2.057724    2.190528
