65 
6qge_ligand_xtb.xyz
 C   -1.059513   -1.115857    1.757311
 C   -2.973942   -2.386757    0.076538
 C   -3.370694   -0.369074   -1.833017
 C   -3.950791    2.079790   -1.999016
 C    0.555077    2.737875    0.009841
 C    0.403982    2.921957    1.382445
 C    1.536242    3.067209    2.157829
 C    2.949683    2.870273    0.256125
 C    4.074272   -0.280258   -1.011422
 C    4.049032   -1.485671   -0.314085
 C    5.239614   -2.177033   -0.091928
 C    6.438937   -1.674526   -0.558507
 C    6.477185   -0.473961   -1.249250
 C    5.287789    0.199490   -1.459399
 C    2.801134   -2.017882    0.200327
 C    1.503150   -1.555960    0.056487
 C   -2.547226   -1.225831    2.128377
 C   -0.649182   -2.411636    1.038271
 C   -1.474312   -2.533556   -0.252178
 C   -3.060237    0.034208    2.850306
 C   -4.423548    0.693592   -1.510309
 C   -1.954786    2.663923   -0.583266
 F    5.313847    1.380058   -2.121518
 N    2.747263   -3.126477    0.982515
 N    1.542079   -3.355484    1.316786
 N    0.758665   -2.426491    0.771628
 N   -2.558598    2.287373   -1.731319
 N   -1.639355    1.945332   -2.633831
 N   -0.482353    2.092689   -2.123417
 O   -3.319000   -1.345158    0.945021
 O   -0.839509   -0.041501    0.884147
 O   -2.923454    1.195471    2.074221
 O   -1.232357   -3.791978   -0.812211
 O   -4.678248    0.786670   -0.126146
 S   -3.937550   -2.066725   -1.447476
 C   -0.599528    2.532333   -0.845387
 C    2.811831    3.044143    1.623333
 C    1.833915    2.715580   -0.544574
 F    1.387564    3.232905    3.492146
 H   -0.462583   -1.003433    2.676638
 H   -3.333704   -3.355491    0.455918
 H   -3.124165   -0.340968   -2.892994
 H   -2.472549   -0.194392   -1.243258
 H   -4.543970    2.844147   -1.492537
 H   -4.088856    2.151350   -3.078985
 H   -0.568817    2.948063    1.848225
 H    3.934299    2.854551   -0.184513
 H    3.173324    0.281292   -1.196774
 H    5.198048   -3.106922    0.452321
 H    7.355686   -2.216799   -0.383001
 H    7.402090   -0.060515   -1.618886
 H    1.081679   -0.713377   -0.446728
 H   -2.700862   -2.103280    2.774290
 H   -0.840951   -3.283595    1.672373
 H   -1.152254   -1.733027   -0.934052
 H   -4.108047   -0.123882    3.131483
 H   -2.469409    0.188137    3.756316
 H   -5.359329    0.446413   -2.034492
 H   -2.501292    2.994103    0.273214
 H   -1.302983    0.733869    1.253580
 H   -3.529993    1.131883    1.309481
 H   -1.710975   -3.871810   -1.646954
 H   -4.806356   -0.114961    0.208317
 H    3.667179    3.160569    2.269392
 H    1.931018    2.578159   -1.610307
