65 
6qgf_ligand_xtb.xyz
 C   -6.710229    0.833380   -0.454140
 C   -6.951777    1.267275   -1.756512
 C   -9.312012    1.362562   -1.313624
 C   -9.056357    0.929064   -0.024222
 C   -5.364077    0.557031    0.014406
 C   -4.144160    0.632093   -0.640975
 C   -1.066729    0.355080    1.455679
 C   -1.813944    0.129726    0.122158
 C   -1.483598   -1.272842   -0.421325
 C    2.329587   -2.864614   -1.120164
 C    5.554668    1.541890   -0.172946
 C    6.401336    3.678061   -0.811632
 C    5.301581    3.438858    1.284104
 C   -7.779320    0.662054    0.422969
 C   -8.242523    1.528681   -2.177189
 C    0.437809    0.181905    1.190736
 C    0.043008   -1.372818   -0.544448
 C    1.267724    0.276407    2.480445
 C    3.057447   -3.434988    0.101498
 C    4.583155   -3.332391   -0.094450
 C    5.347704    0.134488   -0.465959
 C    5.084554   -0.923280    0.389172
 C    6.209312    2.343899   -1.104397
 C    5.963432    4.244722    0.372422
 C    5.094216    2.097348    1.020142
 F  -10.093376    0.763346    0.822942
 F    7.039984    4.460314   -1.709973
 N   -5.108904    0.159191    1.284384
 N   -3.855686   -0.010539    1.434710
 N   -3.235820    0.273720    0.288753
 N    4.969048   -1.993523   -0.425326
 N    5.140881   -1.619678   -1.692856
 N    5.375052   -0.366959   -1.726219
 O    0.687532   -1.107748    0.661078
 O   -1.435446   -0.567032    2.434640
 O    2.629415    0.074805    2.238792
 O   -2.118821   -1.412198   -1.661723
 O    2.747712   -2.760215    1.294893
 S    0.518588   -3.075167   -1.012853
 H   -6.128031    1.399999   -2.440488
 H  -10.325375    1.561776   -1.623322
 H   -3.863987    0.882898   -1.640311
 H   -1.256200    1.387760    1.793223
 H   -1.488398    0.870077   -0.618108
 H   -1.831476   -2.025530    0.302312
 H    2.654739   -3.384686   -2.019666
 H    2.519201   -1.798655   -1.231850
 H    4.943196    3.864760    2.209066
 H   -7.601943    0.326275    1.431591
 H   -8.420679    1.865509   -3.187187
 H    0.777005    0.942017    0.468361
 H    0.387117   -0.691288   -1.342210
 H    0.871112   -0.456619    3.191890
 H    1.163718    1.279533    2.898192
 H    2.795838   -4.501255    0.198213
 H    5.069483   -3.633448    0.836084
 H    4.898918   -3.981081   -0.912679
 H    4.997225   -0.990643    1.451023
 H    6.555869    1.923468   -2.034509
 H    6.137116    5.291923    0.563216
 H    4.553098    1.482971    1.723181
 H   -2.405634   -0.522110    2.541779
 H    2.747414   -0.827531    1.898902
 H   -1.930597   -2.288089   -2.020174
 H    1.784400   -2.666244    1.356350
