39 
6qha_ligand_xtb.xyz
 C    4.596413    0.978711    0.149361
 C    0.312161    1.305767   -0.020289
 C   -1.831295    0.053107    0.009776
 C   -2.365031   -1.230962    0.146657
 C   -3.726460   -1.430994    0.112631
 C   -4.598390   -0.356130   -0.053040
 C    6.248342   -1.647306   -1.095168
 C    5.742972   -1.679798    0.343042
 O    4.350890   -1.452917    0.437306
 C    3.853333   -0.180759    0.256458
 C    3.945261    2.195156   -0.005831
 C    2.572707    2.243614   -0.054198
 C    1.793057    1.087296    0.051150
 O   -0.142731    2.428176   -0.139044
 N   -0.446063    0.179115    0.055763
 C   -4.062841    0.919609   -0.203564
 C   -2.697398    1.128091   -0.174154
 C   -6.050377   -0.614173   -0.080405
 N   -6.865479    0.447354    0.231838
 N   -6.453086   -1.767846   -0.423067
 C    2.445543   -0.135095    0.209079
 O    1.779190   -1.322557    0.325745
 H    5.673670    0.954606    0.188805
 H   -1.696563   -2.070371    0.279965
 H   -4.147351   -2.418840    0.209692
 H    5.719183   -2.386354   -1.691896
 H    6.089653   -0.668410   -1.540955
 H    7.310110   -1.875683   -1.112792
 H    6.290108   -0.965033    0.968551
 H    5.879060   -2.679613    0.765268
 H    4.526433    3.100137   -0.089022
 H    2.049581    3.179201   -0.175691
 H    0.050967   -0.695352    0.167016
 H   -4.710541    1.766862   -0.376073
 H   -2.294460    2.119328   -0.295483
 H   -7.847403    0.261682    0.358947
 H   -6.491687    1.222970    0.750495
 H   -7.464780   -1.877355   -0.422169
 H    2.449648   -2.016555    0.422497
