32 
6qhc_ligand_dft.xyz
 C    8.518033    0.429959   25.377790
 C    9.650553    0.480407   24.561144
 C   10.150046    1.693287   24.118935
 C    9.528299    2.897197   24.478337
 C    8.393226    2.858970   25.295722
 C    7.908012    1.633373   25.736481
 C    7.983716   -0.884907   25.839936
 N    7.410007   -0.865175   27.099538
 N    7.981099   -1.975892   25.168795
 N   10.102316    4.076469   23.979480
 C    9.717759    5.368478   24.213525
 O    8.770286    5.670429   24.923769
 C   10.529697    6.452352   23.541108
 C   10.100911    7.759178   23.796364
 C   10.738295    8.864562   23.253873
 C   11.841842    8.676609   22.427287
 C   12.292643    7.392572   22.154845
 C   11.645823    6.286141   22.704545
 O   12.099287    5.025085   22.430034
 H   10.159508   -0.440000   24.288468
 H   11.039465    1.712463   23.493675
 H    7.903569    3.780802   25.573453
 H    7.017002    1.611546   26.356905
 H    7.857328   -0.276113   27.787443
 H    7.173416   -1.789022   27.437388
 H    8.315360   -1.804518   24.221507
 H   10.904995    3.951786   23.377263
 H    9.238648    7.872557   24.443998
 H   10.377897    9.863862   23.473198
 H   12.356531    9.527216   21.991129
 H   13.155473    7.241806   21.509307
 H   12.861960    5.073519   21.841758
