32 
6qhc_ligand_xtb.xyz
 C    3.659569    0.012591    0.038720
 C    2.921686   -1.163440   -0.066698
 C    1.542415   -1.144236   -0.080827
 C    0.863872    0.068854    0.023503
 C    1.599596    1.248437    0.147749
 C    2.978293    1.221833    0.152034
 C    5.133183   -0.055895    0.046067
 N    5.689914   -1.101452    0.497318
 N    5.793359    1.065346   -0.403434
 N   -0.523961    0.181182    0.023977
 C   -1.461003   -0.798122   -0.096956
 O   -1.200859   -1.977505   -0.239155
 C   -2.885921   -0.335766   -0.031692
 C   -3.836855   -1.356746   -0.011056
 C   -5.190933   -1.101633    0.044996
 C   -5.631941    0.210283    0.077271
 C   -4.712504    1.240896    0.053770
 C   -3.345920    0.988095    0.002005
 O   -2.476175    2.046478   -0.019635
 H    3.457835   -2.096188   -0.135476
 H    0.982299   -2.059479   -0.170362
 H    1.078360    2.191219    0.245850
 H    3.523188    2.146655    0.275516
 H    6.707057   -1.081338    0.475555
 H    6.787594    0.990898   -0.550207
 H    5.309544    1.710297   -1.004288
 H   -0.867443    1.127996    0.115489
 H   -3.463460   -2.369389   -0.042563
 H   -5.897931   -1.916094    0.062154
 H   -6.686549    0.436232    0.119358
 H   -5.052573    2.269079    0.076158
 H   -2.978055    2.871879   -0.015200
