50 
6qi7_ligand_xtb.xyz
 C    6.971201    0.157713   -0.420931
 O    6.818799    0.038855   -1.599594
 O    7.965761    0.931035    0.065948
 C    6.134895   -0.528475    0.642739
 C    4.876467   -1.176450    0.066139
 C    3.842324   -0.164893   -0.429873
 C    3.231018    0.682657    0.687538
 C    2.005688    1.484191    0.222359
 C    0.665816    0.873552    0.639391
 C    0.389283   -0.489052    0.009073
 C   -0.943687   -1.096968    0.448818
 C   -2.166306   -0.352111   -0.082646
 C   -3.462984   -1.077322    0.270066
 C   -4.697085   -0.335129   -0.237205
 C   -5.984632   -1.084596    0.098993
 C   -7.240184   -0.429296   -0.476770
 C   -7.579283    0.912234    0.169498
 C   -8.894275    1.471758   -0.359869
 H    7.993001    0.940859    1.031340
 H    5.873394    0.192877    1.420785
 H    6.766524   -1.298055    1.099063
 H    4.424371   -1.812587    0.830771
 H    5.173991   -1.808965   -0.771797
 H    3.049264   -0.716727   -0.935163
 H    4.308893    0.487135   -1.169423
 H    3.985087    1.378945    1.059871
 H    2.944726    0.036259    1.520757
 H    2.032587    1.586557   -0.864094
 H    2.054343    2.491280    0.642709
 H   -0.125824    1.568502    0.353196
 H    0.640923    0.775739    1.727942
 H    1.184917   -1.180510    0.291563
 H    0.399148   -0.392046   -1.079110
 H   -0.984656   -1.124098    1.540571
 H   -0.986672   -2.129919    0.093519
 H   -2.088477   -0.260418   -1.168649
 H   -2.198454    0.655665    0.334948
 H   -3.530291   -1.187859    1.355226
 H   -3.442950   -2.081171   -0.161620
 H   -4.624331   -0.213000   -1.320628
 H   -4.720519    0.660443    0.209163
 H   -6.084177   -1.162971    1.184369
 H   -5.908897   -2.100425   -0.297644
 H   -8.084891   -1.107789   -0.331628
 H   -7.112491   -0.289108   -1.552846
 H   -6.781610    1.629893   -0.028495
 H   -7.650287    0.781859    1.251960
 H   -8.837941    1.622679   -1.435870
 H   -9.712505    0.784572   -0.154457
 H   -9.122216    2.426384    0.108917
