26 
6ql2_ligand_dft.xyz
 N   -4.173021    1.005117    0.850490
 C    0.119707    1.031925   -0.015351
 C    0.604883   -0.286578   -0.001955
 C    1.972969   -0.576411    0.007574
 C    2.855333    0.497992    0.000068
 C    4.770931   -0.921144    0.011197
 O   -3.866254   -1.470312    0.588623
 O   -3.994549    0.042861   -1.447039
 S   -3.580704   -0.220211   -0.086598
 C   -1.798536   -0.015534   -0.013222
 N   -1.258806    1.151014   -0.021868
 S   -0.733480   -1.402319    0.018228
 C    2.377901    1.829214   -0.013715
 C    1.030118    2.100277   -0.020551
 O    4.200608    0.379149    0.005290
 C    6.276831   -0.758999    0.009254
 H   -3.938892    0.891970    1.831284
 H   -3.917799    1.919456    0.489559
 H    2.318627   -1.602374    0.018242
 H    4.435379   -1.476312   -0.875650
 H    4.436922   -1.467767    0.904010
 H    3.112126    2.627209   -0.020642
 H    0.659760    3.119529   -0.034271
 H    6.602309   -0.214973   -0.881558
 H    6.603796   -0.205785    0.893877
 H    6.758253   -1.741428    0.013924
