52 
6qlq_ligand_xtb.xyz
 C    2.706957    2.970076   -0.437849
 C   -3.888301    0.385600   -0.077629
 C   -6.906317   -1.715303   -0.779990
 C   -7.883044   -0.926397   -0.198958
 C   -6.268069    0.694476    0.450474
 C    8.136842   -0.692965   -1.036809
 C    6.784121   -0.951524   -0.450370
 C    6.261727   -0.084745    0.505366
 C    5.016425   -0.307956    1.060726
 C    4.275134   -1.402200    0.646137
 C    1.791293   -0.511737    0.106442
 C    1.872349    1.704190   -0.664085
 C    0.378335    1.931638   -0.375480
 C   -0.344668    0.574750   -0.520428
 C   -2.731177   -0.158498   -0.614241
 C   -5.262655   -0.079579   -0.128537
 C   -5.593584   -1.286598   -0.741996
 C   -7.582919    0.275303    0.418201
 C    0.294884   -0.445402    0.437270
 C    4.777558   -2.281662   -0.295376
 C    6.030845   -2.052787   -0.836231
 F   -9.166574   -1.343437   -0.235584
 N   -1.754231    0.698733   -0.255854
 N   -3.531631    1.525955    0.561925
 N   -2.273082    1.698585    0.456381
 O    2.410634    0.729684    0.208881
 O    4.053626    2.753218   -0.754560
 O    0.258753    2.467293    0.905939
 O   -0.337406   -1.681855    0.244464
 S    2.625244   -1.629426    1.292739
 H    2.581994    3.272250    0.608274
 H    2.352074    3.768281   -1.091534
 H   -7.179647   -2.647030   -1.249696
 H   -5.995683    1.624577    0.923368
 H    8.352346   -1.386665   -1.845108
 H    8.904579   -0.803964   -0.271636
 H    8.195510    0.324142   -1.420508
 H    6.839906    0.773527    0.815922
 H    4.609561    0.359472    1.804668
 H    1.923477   -0.937122   -0.905178
 H    1.989261    1.360577   -1.706271
 H   -0.027763    2.625630   -1.130739
 H   -0.229219    0.200685   -1.545439
 H   -2.528031   -1.041999   -1.178205
 H   -4.822504   -1.895556   -1.187767
 H   -8.372018    0.861833    0.861417
 H    0.178582   -0.086316    1.471118
 H    4.191681   -3.135240   -0.601371
 H    6.423553   -2.738693   -1.572819
 H    4.355334    1.995411   -0.236898
 H   -0.692838    2.563188    1.101052
 H    0.078427   -2.336947    0.819003
