52 
6qlt_ligand_xtb.xyz
 C    5.436816   -0.105302    0.019006
 C    6.396769    0.556026   -0.747859
 C    7.723905    0.177341   -0.706411
 C    7.194991   -1.543930    0.876622
 C   -0.181873   -0.410781   -0.609448
 C   -7.965656   -0.668365    1.142941
 C   -6.641739   -0.886015    0.478971
 C   -6.150137    0.055548   -0.420611
 C   -4.932321   -0.129250   -1.046718
 C   -5.885830   -2.022547    0.735749
 C   -4.660387   -2.215079    0.121806
 C   -4.188088   -1.262291   -0.762236
 C   -1.667150   -0.484060   -0.232768
 C   -1.670232    1.638568    0.772940
 C   -2.481129    2.938041    0.713313
 C   -0.182172    1.866171    0.454182
 C    0.511414    0.486928    0.429812
 C    2.909272   -0.206725    0.545901
 C    4.049551    0.316283   -0.044511
 C    8.126415   -0.872918    0.103705
 C    5.870908   -1.154794    0.826016
 F    4.983441   -1.823467    1.599573
 N    1.914975    0.605490    0.137804
 N    3.666975    1.398620   -0.765581
 N    2.407397    1.557346   -0.655641
 O   -2.260925    0.773683   -0.178277
 O   -3.822685    2.715569    1.048049
 O   -0.095511    2.533928   -0.766199
 O    0.433555   -1.668879   -0.569944
 S   -2.570909   -1.448053   -1.499305
 H    6.067088    1.371482   -1.371897
 H    8.449996    0.702380   -1.308042
 H    7.478784   -2.363154    1.518555
 H   -0.092485    0.055601   -1.602443
 H   -8.767480   -0.724726    0.407171
 H   -8.147408   -1.417475    1.908954
 H   -8.003330    0.319120    1.599745
 H   -6.730456    0.942414   -0.630475
 H   -4.548889    0.597453   -1.746163
 H   -6.254332   -2.765793    1.427915
 H   -4.072746   -3.097080    0.327445
 H   -1.774153   -1.013783    0.731283
 H   -1.758951    1.187901    1.776285
 H   -2.380493    3.350724   -0.297056
 H   -2.087586    3.652167    1.438200
 H    0.266157    2.468509    1.263767
 H    0.420345    0.007026    1.411436
 H    2.739472   -1.052948    1.174058
 H    9.163175   -1.170592    0.137028
 H   -4.156531    2.023510    0.462546
 H    0.844780    2.562018   -1.030364
 H   -0.012232   -2.256402   -1.192743
