52 
6qlt_ligand_dft.xyz
 C    5.415117   -0.264627    0.055590
 C    6.483418    0.423130   -0.532858
 C    7.768151   -0.104164   -0.524759
 C    6.973121   -2.040162    0.669012
 C   -0.194198   -0.156612   -0.600056
 C   -7.999714   -1.547670    1.158706
 C   -6.654469   -1.424910    0.489715
 C   -6.331387   -0.286462   -0.255228
 C   -5.105654   -0.175338   -0.899565
 C   -5.711239   -2.450288    0.574646
 C   -4.478445   -2.347885   -0.062658
 C   -4.168744   -1.206601   -0.800081
 C   -1.704548   -0.121156   -0.303838
 C   -1.587819    1.980537    0.754397
 C   -2.368516    3.285514    0.759332
 C   -0.093333    2.138051    0.476062
 C    0.517220    0.722856    0.431196
 C    2.862622   -0.205198    0.495706
 C    4.061393    0.298217    0.034766
 C    8.015400   -1.336971    0.075516
 C    5.701493   -1.493399    0.647783
 F    4.702632   -2.189973    1.228101
 N    1.957907    0.749430    0.198449
 N    3.816107    1.521328   -0.514942
 N    2.553798    1.785176   -0.418164
 O   -2.195803    1.189454   -0.260362
 O   -3.720554    3.045628    1.075337
 O    0.049308    2.831544   -0.732358
 O    0.320874   -1.458012   -0.447403
 S   -2.585859   -1.037653   -1.605051
 H    6.280570    1.381394   -0.998820
 H    8.578757    0.447515   -0.989689
 H    7.125934   -3.001825    1.146164
 H   -0.008071    0.253481   -1.602012
 H   -8.771855   -1.821442    0.430275
 H   -7.990986   -2.315893    1.937067
 H   -8.302942   -0.601431    1.617656
 H   -7.052533    0.523343   -0.333429
 H   -4.865289    0.708717   -1.481899
 H   -5.942192   -3.344403    1.148116
 H   -3.752818   -3.151767    0.015435
 H   -1.882596   -0.633740    0.655191
 H   -1.723600    1.486650    1.731185
 H   -2.249582    3.770278   -0.217627
 H   -1.969745    3.954061    1.527906
 H    0.367447    2.682489    1.316287
 H    0.378173    0.256412    1.413887
 H    2.585157   -1.130596    0.968139
 H    9.017145   -1.754717    0.083041
 H   -4.014256    2.348941    0.472240
 H    1.006296    2.898978   -0.896635
 H   -0.087452   -2.025872   -1.113997
