55 
6qlu_ligand_xtb.xyz
 C   -4.961991   -0.209184   -0.229700
 C   -5.274824   -1.411827   -0.858190
 C   -6.586974   -1.842177   -0.909063
 C   -7.299953    0.140547    0.308650
 C    0.601657   -0.482491    0.412364
 C    8.481267   -0.580857   -0.913586
 C    7.122817   -0.862095   -0.351320
 C    6.405739   -1.989940   -0.728986
 C    5.145647   -2.237249   -0.212349
 C    6.556681    0.013342    0.571143
 C    5.304360   -0.227854    1.102420
 C    4.599799   -1.349399    0.696530
 C    2.101636   -0.530307    0.094486
 C    2.149893    1.668772   -0.726124
 C    2.960804    2.953893   -0.523899
 C    0.650488    1.877311   -0.451824
 C   -0.048514    0.505605   -0.571394
 C   -2.425150   -0.256973   -0.688697
 C   -3.593571    0.271093   -0.160941
 C   -7.572256   -1.065457   -0.330623
 C   -5.978598    0.550992    0.346817
 C   -8.405534    0.941733    0.920219
 F   -8.853446   -1.497746   -0.388686
 N   -1.461679    0.610823   -0.318876
 N   -3.256439    1.413068    0.486162
 N   -1.998892    1.601339    0.392739
 O    2.698799    0.723710    0.172328
 O    4.313784    2.753582   -0.824445
 O    0.513765    2.439341    0.816432
 O   -0.008325   -1.733087    0.240821
 S    2.943423   -1.605255    1.314862
 H   -4.497587   -2.012817   -1.303222
 H   -6.855703   -2.770000   -1.389365
 H    0.471185   -0.103633    1.437411
 H    9.226022   -0.586205   -0.118603
 H    8.500670    0.403296   -1.379215
 H    8.760275   -1.324665   -1.655098
 H    6.832447   -2.682766   -1.439766
 H    4.588294   -3.112005   -0.511633
 H    7.106725    0.892310    0.875094
 H    4.864164    0.445889    1.821211
 H    2.249485   -0.977372   -0.905493
 H    2.279550    1.303533   -1.759346
 H    2.821826    3.278832    0.513586
 H    2.597414    3.729697   -1.199537
 H    0.237869    2.547650   -1.224981
 H    0.079901    0.111297   -1.587141
 H   -2.207226   -1.136069   -1.253932
 H   -5.712147    1.477889    0.830593
 H   -8.930550    0.348749    1.668157
 H   -8.015115    1.840517    1.388461
 H   -9.131798    1.223309    0.158534
 H    4.624398    2.014222   -0.285806
 H   -0.440866    2.510747    1.009297
 H    0.411355   -2.368450    0.834304
