36 
6qmd_ligand_dft.xyz
 N   -5.170147   -0.220087   -1.091641
 C   -3.153795    0.374433   -0.608823
 C   -1.886627    0.979083   -0.583862
 C   -1.006929    0.604779    0.412882
 C   -1.395862   -0.377002    1.367758
 C   -3.512232   -0.581320    0.344983
 C    0.645497    2.406764   -0.336141
 C    3.426131   -1.796488   -0.205742
 C    3.526376   -0.985359    0.916879
 C   -5.672198   -1.879047    0.612006
 N   -4.783168   -0.920537    0.000733
 N   -4.214010    0.555360   -1.466441
 C   -2.632055   -0.982578    1.361091
 C    0.396393    1.177101    0.546755
 C    1.906721    3.139570    0.057799
 O    2.384485    3.172362    1.167488
 O    2.437850    3.809990   -0.978441
 C    1.455499    0.111389    0.289368
 C    1.379096   -0.718360   -0.831812
 C    2.358104   -1.670548   -1.087981
Cl    4.659167   -2.999544   -0.512938
 C    2.538932   -0.034171    1.155572
 H   -1.634800    1.716606   -1.337875
 H   -0.673757   -0.660752    2.128906
 H    0.700831    2.144956   -1.396888
 H   -0.175527    3.127113   -0.223440
 H    4.364495   -1.094687    1.596449
 H   -6.621913   -1.827015    0.079621
 H   -5.260761   -2.889389    0.530034
 H   -5.829842   -1.633624    1.666077
 H   -2.903808   -1.726619    2.102419
 H    0.517687    1.512935    1.582999
 H    3.215871    4.277624   -0.633528
 H    0.534754   -0.630540   -1.510842
 H    2.292402   -2.313099   -1.959291
 H    2.622826    0.617289    2.019976
