52 
6qmr_ligand_dft.xyz
 C    1.764561    3.527288   -0.585787
 C    1.063714    2.482409    0.017566
 C    1.735149    1.289113    0.288882
 C    1.703484   -1.185153   -1.865179
 C    0.716781   -1.665990   -2.724297
 C   -0.161289   -2.665040   -2.313993
 C   -0.049174   -3.175317   -1.019059
 C    0.907033   -2.690706   -0.132934
 C    0.993128   -3.179043    1.288140
 C    0.358390   -2.207044    2.257623
 C   -1.123645    1.359791    0.025613
 C   -2.474443    1.265169    0.324426
 C   -3.132410    2.373990    0.861746
 C   -2.428406    3.552096    1.085083
 C   -1.064338    3.628225    0.810333
 C   -3.245334   -0.007536    0.072372
 C   -4.161833    0.053207   -1.145900
 C    3.040619    1.078452   -0.126175
 C    3.728597    2.121364   -0.747096
 C    3.098572    3.347536   -0.944842
 C   -0.392212    2.522537    0.291008
 C    3.664640   -0.289714    0.050858
 O    2.707950   -1.299890    0.358877
 C    1.804117   -1.698186   -0.571036
 O    0.933574   -2.216879    3.448020
 O   -0.608206   -1.496376    2.016809
 N   -2.339282   -1.186763   -0.132352
 O   -4.683127   -1.250289   -1.296793
 H    1.261953    4.462587   -0.814547
 H    1.211213    0.493881    0.807576
 H    2.374328   -0.406354   -2.206669
 H    0.651307   -1.260969   -3.729233
 H   -0.898127   -3.067988   -3.001904
 H   -0.712098   -3.974282   -0.692519
 H    0.457240   -4.129489    1.401829
 H    2.025833   -3.351662    1.597344
 H   -0.585117    0.526175   -0.415488
 H   -4.188438    2.317791    1.113689
 H   -2.941086    4.411722    1.504010
 H   -0.517295    4.539755    1.031540
 H   -3.847290   -0.266514    0.948663
 H   -4.941556    0.801473   -0.960677
 H   -3.583740    0.371444   -2.026902
 H    4.752283    1.979160   -1.084381
 H    3.639395    4.158059   -1.422806
 H    4.349810   -0.307600    0.901824
 H    4.235201   -0.575343   -0.842224
 H    0.453139   -1.600543    4.026884
 H   -1.761792   -1.101268   -0.977313
 H   -1.680928   -1.350029    0.667841
 H   -2.930148   -2.010606   -0.283298
 H   -5.324835   -1.269278   -2.016196
