47 
6qmt_ligand_dft.xyz
 C   -7.422920    5.926655    2.258091
 C   -7.683548    5.245850    3.448286
 C   -8.040791    3.894606    3.442689
 C   -6.152947   11.179153    5.085084
 C   -5.495655   11.921454    4.111421
 C   -5.251194   11.349007    2.867381
 C   -5.637514   10.041017    2.602656
 C   -7.357512    9.118841    5.890665
 C   -6.508046    8.086547    6.594682
 C   -8.320142    3.184462    4.716850
 C   -7.854155    1.882106    4.922625
 C   -8.101737    1.197694    6.110578
 C   -8.822691    1.835554    7.121349
 C   -9.288473    3.132198    6.932932
 C   -9.043542    3.803789    5.740129
 C   -7.609297   -0.223235    6.290152
 C   -8.132805    3.232276    2.214645
 C   -7.879648    3.905825    1.024321
 C   -7.531504    5.249776    1.042253
 C   -7.044757    7.382603    2.190048
 N   -6.652816    7.943459    3.378804
 C   -6.287242    9.290695    3.585723
 C   -6.569263    9.872825    4.834402
 O   -6.150271    7.033415    6.104823
 O   -6.152644    8.451678    7.830076
 O   -7.097498    8.000281    1.138364
 N   -7.229990   -0.488822    7.674885
 H   -7.603541    5.744591    4.409824
 H   -6.365165   11.622981    6.054333
 H   -5.187130   12.940934    4.320182
 H   -4.746780   11.919951    2.093751
 H   -5.451374    9.593173    1.636120
 H   -7.760790    9.817709    6.625572
 H   -8.191492    8.586453    5.419905
 H   -7.261284    1.403305    4.145780
 H   -9.001135    1.306363    8.051920
 H   -9.855530    3.621961    7.719530
 H   -9.431236    4.808003    5.592632
 H   -8.424161   -0.914544    6.038392
 H   -6.805400   -0.413011    5.558465
 H   -8.431045    2.187768    2.192934
 H   -7.965547    3.380879    0.077730
 H   -7.342390    5.798040    0.125872
 H   -6.517538    7.333298    4.177927
 H   -5.588094    7.742943    8.181182
 H   -6.969735   -1.464417    7.782086
 H   -6.413028    0.064912    7.917953
