15 
6qmu_ligand_xtb.xyz
 C   -1.723499   -0.480324    0.004170
 C   -0.387129   -0.866920    0.007868
 C    0.596281    0.108969    0.001583
 C    0.284354    1.463361   -0.006189
 C   -1.046161    1.836215   -0.009910
 C   -2.044150    0.876241   -0.005291
 N    1.982143   -0.296120    0.000398
 O   -2.665327   -1.448336    0.009369
 O    2.223161   -1.482882   -0.028848
 O    2.821906    0.577669    0.027356
 H   -0.124470   -1.912592    0.015463
 H    1.078821    2.192033   -0.010653
 H   -1.312215    2.881598   -0.017204
 H   -3.082816    1.178244   -0.009251
 H   -3.550429   -1.063303    0.002462
