39 
6qqv_ligand_dft.xyz
 C  -21.794588  -19.210523   11.917032
 C  -24.034585  -18.560239   11.202638
 C  -25.495217  -20.605530   10.471151
 C  -20.050717  -17.605317   12.989542
 C  -18.712546  -17.775231   13.272765
 N  -25.431535  -25.266610    8.793105
 C  -24.383736  -24.800889    8.618550
 C  -23.086948  -24.213137    8.420437
 C  -22.454681  -23.531274    9.474239
 C  -21.197766  -22.978248    9.236151
 C  -20.588561  -23.093133    7.990790
 C  -21.225250  -23.771062    6.954893
 C  -22.475605  -24.333667    7.167865
 C  -23.135655  -23.354767   10.818869
 N  -23.882904  -22.116335   10.902766
 C  -23.346174  -20.880549   11.204564
 C  -22.083313  -20.550824   11.691442
 C  -22.776773  -18.226598   11.669020
 C  -24.339633  -19.905788   10.954150
 C  -25.173392  -21.929999   10.443948
 C  -20.457495  -18.832902   12.406652
 N  -18.398574  -19.028008   12.865635
 N  -19.442825  -19.689877   12.324999
 N  -17.754707  -16.968233   13.897659
 H  -24.774939  -17.786523   11.020429
 H  -26.447296  -20.177431   10.191924
 H  -20.646013  -16.725455   13.182759
 H  -20.691149  -22.439657   10.030833
 H  -19.610936  -22.649572    7.830518
 H  -20.749586  -23.862155    5.983920
 H  -22.987179  -24.867461    6.373966
 H  -23.825349  -24.180335   11.015270
 H  -22.389047  -23.359772   11.617951
 H  -21.327389  -21.297956   11.908805
 H  -22.532664  -17.181654   11.835437
 H  -25.762628  -22.784275   10.138548
 H  -17.518974  -19.501788   12.990474
 H  -16.994239  -16.710056   13.277815
 H  -18.173428  -16.126171   14.271490
