38 
6qr1_ligand_dft.xyz
 C  -22.129951   20.524754  -11.197194
 C  -20.446047   18.784055  -11.650817
 C  -19.916517   17.722657  -12.385003
 C  -20.603603   16.695045  -13.072370
 C  -24.121277   18.531650  -10.853064
 C  -25.627688   20.603085  -10.328543
 C  -25.324137   21.933310  -10.307123
 C  -23.267268   23.355474  -10.639193
 C  -22.160202   23.377987   -9.607197
 C  -22.376930   22.953949   -8.296911
 C  -21.317557   22.975342   -7.401541
 C  -20.073027   23.411812   -7.852471
 C  -20.874781   23.792023   -9.948707
 C  -23.438979   20.862585  -10.856518
 C  -21.824268   19.176402  -11.343192
 C  -18.502321   17.899636  -12.323868
 C  -22.824238   18.189042  -11.177001
 C  -24.441583   19.884270  -10.677033
 N  -23.996218   22.102884  -10.636362
 N  -19.842518   23.812231   -9.103172
 N  -19.377233   19.483473  -11.229488
 N  -18.181336   18.964762  -11.608689
 N  -17.552962   17.133643  -12.963541
 N  -21.131658   15.823164  -13.629488
Cl  -27.173767   19.909078   -9.996064
 H  -21.378855   21.290224  -11.362863
 H  -24.880778   17.766957  -10.726997
 H  -25.957018   22.781876  -10.089884
 H  -22.851595   23.534463  -11.638070
 H  -23.992092   24.152662  -10.447044
 H  -23.357118   22.595891   -7.992103
 H  -21.445471   22.651744   -6.374073
 H  -19.219312   23.433255   -7.179020
 H  -20.660627   24.116957  -10.967160
 H  -22.561201   17.143883  -11.299399
 H  -19.381591   20.269480  -10.598281
 H  -16.619423   17.251069  -12.595335
 H  -17.806853   16.166223  -13.105224
