38 
6qr1_ligand_xtb.xyz
 C  -22.128350   20.595451  -11.169914
 C  -20.449951   18.867517  -11.669885
 C  -19.938932   17.694447  -12.236870
 C  -20.587712   16.543429  -12.677000
 C  -24.107623   18.582161  -10.936915
 C  -25.632275   20.613590  -10.384938
 C  -25.334709   21.945219  -10.318036
 C  -23.309548   23.393513  -10.592992
 C  -22.169279   23.366218   -9.606048
 C  -22.347729   22.866185   -8.320560
 C  -21.265788   22.824598   -7.458438
 C  -20.038311   23.278683   -7.919518
 C  -20.895244   23.802298   -9.953469
 C  -23.438988   20.918527  -10.852124
 C  -21.810894   19.255667  -11.360959
 C  -18.525891   17.897445  -12.292520
 C  -22.809339   18.266004  -11.248691
 C  -24.438397   19.920893  -10.725764
 N  -24.011666   22.136490  -10.608049
 N  -19.858280   23.756837   -9.138036
 N  -19.374553   19.648677  -11.434788
 N  -18.210696   19.078969  -11.790724
 N  -17.609122   17.057124  -12.847808
 N  -21.052349   15.557125  -13.043142
Cl  -27.168130   19.904480  -10.105177
 H  -21.383638   21.368453  -11.281971
 H  -24.861456   17.815384  -10.852964
 H  -25.979255   22.771547  -10.090040
 H  -22.923442   23.617272  -11.595081
 H  -24.022015   24.177705  -10.319193
 H  -23.318140   22.507892   -8.007179
 H  -21.370785   22.443312   -6.455050
 H  -19.157814   23.257005   -7.291866
 H  -20.695925   24.204001  -10.939924
 H  -22.534816   17.235484  -11.409135
 H  -19.356546   20.555660  -10.998308
 H  -16.649552   17.244249  -12.609573
 H  -17.870864   16.087492  -12.917347
