39 
6qr2_ligand_xtb.xyz
 C  -25.367529   21.992622  -10.573231
 C  -23.560664   20.835428  -11.134017
 C  -22.094158   19.063707  -11.741147
 C  -24.444527   18.586498  -11.366329
 C  -20.992834   16.069584  -12.448056
 C  -18.955488   17.424479  -12.689618
 O  -21.739605   25.531667  -10.036334
 C  -21.845726   24.585091   -9.083334
 N  -21.241588   24.817092   -7.933859
 C  -21.330181   23.901934   -6.977158
 C  -22.024768   22.719867   -7.133104
 C  -22.660875   22.481118   -8.346761
 C  -22.582938   23.422396   -9.355116
 C  -23.235382   23.272342  -10.707651
 N  -24.028453   22.086401  -10.831390
 C  -25.793815   20.707116  -10.719346
 C  -24.657019   19.936012  -11.081449
 C  -22.282864   20.410759  -11.455214
 C  -23.177815   18.167037  -11.691961
 C  -20.761587   18.612042  -12.098707
 C  -20.314710   17.286367  -12.401787
 N  -21.479556   15.029917  -12.521920
 N  -18.674864   18.735855  -12.557373
 N  -19.752506   19.458418  -12.199446
 N  -18.014635   16.472416  -12.965879
 H  -25.927918   22.869534  -10.307504
 H  -25.265159   17.885758  -11.332657
 H  -20.816828   24.146813   -6.057693
 H  -22.074192   21.998401   -6.333916
 H  -23.212097   21.565413   -8.501122
 H  -22.453771   23.267965  -11.476025
 H  -23.865526   24.149420  -10.891590
 H  -26.794657   20.346354  -10.589889
 H  -21.438657   21.080525  -11.488318
 H  -23.006683   17.126116  -11.916867
 H  -17.783447   19.191216  -12.668169
 H  -18.384975   15.575629  -13.239264
 H  -17.201212   16.768149  -13.481652
 H  -21.200792   26.250542   -9.676148
