57 
6qr7_ligand_xtb.xyz
 C   -3.623009   -2.183874    0.720841
 C   -5.235298    1.028893    0.294102
 C   -3.508142    2.435380   -0.842869
 C   -1.813582    2.349245    1.007904
 C    1.743070    1.122107    0.950736
 C    3.444404    2.418920   -0.342151
 C    5.108737    0.572807   -0.464108
 C    4.085297    1.274611    1.705013
 C   -1.023390    2.456297   -1.242580
 N    3.229288   -2.859742   -0.282565
 C    1.984166   -2.285970   -0.573007
 N    1.879329   -1.055033   -1.074596
 N    0.566740   -0.736979   -1.146109
 C   -0.161543   -1.747777   -0.674882
 C   -1.581488   -1.577788   -0.437892
 C   -2.153066   -0.383279   -0.857414
 C   -3.390954   -0.024281   -0.357089
 C   -4.152386   -0.925137    0.423800
 C   -2.340014   -2.482962    0.326715
 C   -5.336391   -0.229190    0.800093
 N   -4.076489    1.170919   -0.428156
 C   -2.084180    2.502526   -0.345323
 C   -0.537024    2.030912    1.434905
 C    0.488379    1.823899    0.518563
 N    2.976897    1.965281    0.994507
 C    3.948712    1.252842   -1.181984
 C    4.626644    0.097718    0.901984
 C    0.240794    2.084086   -0.825952
 C    0.707840   -2.806440   -0.286229
 C    0.456792   -4.063653    0.232397
 N    0.326208   -5.128270    0.660653
 H   -4.201447   -2.894170    1.294562
 H   -5.916948    1.855470    0.383774
 H   -4.122831    3.237759   -0.422658
 H   -3.523280    2.521999   -1.936804
 H   -2.619824    2.397955    1.725032
 H    1.913130    0.291926    0.245152
 H    1.595142    0.713783    1.951914
 H    4.255615    3.136301   -0.176233
 H    2.620094    2.934561   -0.833917
 H    5.948542    1.265010   -0.348858
 H    5.453923   -0.279263   -1.045823
 H    3.721866    0.939904    2.678461
 H    4.884001    2.005963    1.864657
 H   -1.210388    2.602888   -2.296863
 H    3.909058   -2.677490   -1.010701
 H    3.139678   -3.855037   -0.117830
 H   -1.575583    0.246163   -1.507647
 H   -1.896890   -3.425008    0.615061
 H   -6.146708   -0.617181    1.386109
 H   -0.364208    1.852505    2.487559
 H    2.732624    2.803349    1.531352
 H    4.269003    1.640946   -2.148653
 H    3.156065    0.507791   -1.353741
 H    5.446719   -0.348612    1.465010
 H    3.864402   -0.668778    0.764533
 H    0.988234    1.878669   -1.573034
