55 
6qr9_ligand_dft.xyz
 C   -4.265687   -1.855436    0.118924
 C   -5.183004    1.657692   -0.058921
 C   -3.053829    2.881265   -0.563244
 C   -1.298835    2.262107    1.180926
 C    2.516193    2.188477    1.075269
 C    3.100582    0.973959   -0.956258
 C    4.477561    0.736653    1.032363
 C   -0.585659    3.233650   -0.889803
 N    2.549799   -3.736020    0.566056
 C    1.492177   -2.889342    0.306431
 N    1.587811   -1.550452    0.347605
 N    0.405153   -0.933906    0.125894
 C   -0.481680   -1.893093   -0.069358
 C   -1.890658   -1.496924   -0.235213
 C   -2.106308   -0.152515   -0.505204
 C   -3.388299    0.359254   -0.340933
 C   -4.488120   -0.477115   -0.037249
 C   -2.976411   -2.353243    0.047112
 C   -5.628004    0.379897    0.113879
 N   -3.829587    1.670733   -0.332929
 C   -1.622891    2.811088   -0.061872
 C    0.028334    2.058081    1.537250
 C    1.072058    2.438291    0.690024
 N    3.110684    0.960341    0.515015
 C    4.136107    0.006572   -1.504509
 O    5.460368    0.373210   -1.158744
 C    5.551557    1.136861    0.029617
 C    0.742841    3.071676   -0.507718
 C    0.152094   -3.171373    0.027587
 C   -0.369135   -4.474020   -0.144514
 N   -0.751951   -5.563443   -0.277798
 H   -5.094222   -2.520712    0.343618
 H   -5.726404    2.591559   -0.001542
 H   -3.590908    3.696478   -0.064538
 H   -3.039360    3.115191   -1.635394
 H   -2.091105    1.918695    1.839830
 H    2.580545    2.108325    2.164945
 H    3.119981    3.065774    0.776342
 H    3.329566    1.978418   -1.352041
 H    2.100920    0.699107   -1.306464
 H    4.608037   -0.326455    1.276924
 H    4.611883    1.293016    1.964905
 H   -0.812331    3.672777   -1.858328
 H    3.432741   -3.455279    0.160209
 H    2.339834   -4.705662    0.366509
 H   -1.258601    0.470967   -0.744238
 H   -2.798064   -3.406694    0.240315
 H   -6.640207    0.085608    0.351898
 H    0.256016    1.567359    2.479386
 H    2.347256   -0.922507    0.618452
 H    4.081942   -0.015704   -2.596565
 H    3.920231   -1.013090   -1.145909
 H    6.548363    0.959009    0.443740
 H    5.471077    2.211963   -0.196322
 H    1.530598    3.420600   -1.170195
