29 
6qre_ligand_dft.xyz
 C  -20.045859   16.702550  -12.838509
 N  -17.939629   16.715254  -12.919380
 C  -18.269113   18.018294  -12.923368
 C  -22.140344   21.614644  -10.755856
 C  -23.272763   21.303800   -8.644406
 C  -25.643513   18.562783   -8.843844
 O  -24.888954   19.645077   -8.349451
 C  -24.008137   20.245830   -9.190740
 C  -23.809796   19.880946  -10.520785
 C  -22.874522   20.567824  -11.302683
 C  -22.654989   20.140194  -12.731297
 O  -21.766942   19.009794  -12.810337
 C  -20.451452   19.286501  -12.853401
 C  -19.649161   18.060839  -12.871676
 N  -19.004570   15.887903  -12.867761
 O  -19.988149   20.406637  -12.883540
 C  -22.348125   21.977783   -9.424908
 H  -21.048923   16.303771  -12.793549
 H  -17.016215   16.313223  -12.947609
 H  -17.539715   18.813179  -12.960070
 H  -21.401049   22.126367  -11.362865
 H  -23.446511   21.574157   -7.608045
 H  -26.267925   18.227301   -8.014925
 H  -26.286833   18.867488   -9.679732
 H  -24.998249   17.736057   -9.168307
 H  -24.368574   19.064975  -10.967159
 H  -22.246734   20.956244  -13.330560
 H  -23.582809   19.783927  -13.183666
 H  -21.779442   22.795655   -8.992567
