23 
6qs5_ligand_xtb.xyz
 C   -3.456492   -0.543221   -0.008746
 C   -2.063562    0.023210   -0.002205
 C   -1.039418   -0.861749   -0.006600
 C    0.382280   -0.645626   -0.001663
 C    0.972289    0.623699   -0.016397
 C    2.346415    0.766552   -0.012553
 C    3.163571   -0.377516    0.006536
 C    2.587048   -1.637172    0.022629
 C    1.213788   -1.771584    0.017778
 C   -1.961255    1.422606    0.011021
 N   -4.448848    0.372292    0.024212
 N   -1.988431    2.572970    0.022775
 O   -3.663748   -1.737460   -0.039768
 O    2.899486    2.000860   -0.027559
 O    4.515289   -0.170434    0.007417
 H   -1.355823   -1.900302   -0.013460
 H    0.373391    1.518356   -0.032801
 H    3.221428   -2.513073    0.038614
 H    0.775448   -2.757519    0.030250
 H   -5.401263    0.047730    0.022039
 H   -4.266155    1.360643    0.050135
 H    3.862081    1.905308   -0.020652
 H    4.975642   -1.016897    0.017447
