23 
6qs5_ligand_dft.xyz
 C   -3.484322   -0.553129   -0.000161
 C   -2.093606    0.040189    0.000046
 C   -1.053768   -0.821506    0.000128
 C    0.385776   -0.611324    0.000135
 C    1.006836    0.651458   -0.000076
 C    2.385356    0.753686   -0.000179
 C    3.172935   -0.410840   -0.000026
 C    2.575219   -1.662291    0.000224
 C    1.189142   -1.759683    0.000284
 C   -1.979415    1.463595    0.000314
 N   -4.504536    0.340857   -0.000384
 N   -1.975479    2.625358    0.000660
 O   -3.659248   -1.760204   -0.000215
 O    2.972118    1.972389   -0.000437
 O    4.517644   -0.192805   -0.000130
 H   -1.374960   -1.862348    0.000088
 H    0.436678    1.572453   -0.000145
 H    3.189390   -2.559340    0.000345
 H    0.723982   -2.740526    0.000468
 H   -5.444702   -0.021618   -0.000407
 H   -4.362961    1.338868   -0.000261
 H    3.931340    1.845182   -0.000157
 H    4.992303   -1.032141    0.000257
