47 
6qw8_ligand_dft.xyz
 C    1.268817   -1.900652   -0.446464
 C   -6.130865    1.139286    1.025842
 C   -6.065441   -1.342296    0.607896
 C    1.067133    0.337176    0.698952
 C   -0.086959    2.130870   -0.519147
 C   -0.479874   -0.176961   -1.198330
 C    0.385322   -1.381182   -1.588415
 C   -4.845964    1.310444    0.225952
 C   -4.787743   -1.167833   -0.198386
 C   -3.980244    0.048476    0.282283
 C   -1.704780   -0.572559   -0.356489
 C    2.015878   -0.774560    0.268328
 N   -6.888168   -0.075148    0.544090
 N   -2.785271    0.233422   -0.519475
 N    3.023467   -0.177302   -0.689994
 N    0.324026    0.813888   -0.462520
 O    3.888753    0.752993   -0.093482
 O   -1.017128    2.514562   -1.195691
 O   -1.688811   -1.522916    0.413913
 O    5.179409    0.059616    1.970953
 O    6.335286    0.994967   -0.019759
 O    5.344843   -1.248023   -0.199675
 S    5.291946   -0.023907    0.549490
 H    0.638031   -2.375313    0.310127
 H    1.966575   -2.664566   -0.807266
 H   -6.794989    1.999824    0.926670
 H   -5.930239    0.969273    2.086818
 H   -5.861448   -1.518335    1.667489
 H   -6.689186   -2.154381    0.229991
 H    1.609317    1.173334    1.149488
 H    0.397683   -0.082595    1.459588
 H    0.529647    2.808953    0.092979
 H   -0.819476    0.326252   -2.106063
 H   -0.259394   -2.192729   -1.933379
 H    0.994686   -1.094098   -2.455863
 H   -5.087590    1.552888   -0.817936
 H   -4.309821    2.171516    0.636483
 H   -5.020613   -1.056541   -1.265087
 H   -4.189408   -2.075448   -0.087191
 H   -3.671548   -0.136045    1.320212
 H    2.596457   -1.150935    1.113761
 H   -7.193521    0.078352   -0.423161
 H   -7.744571   -0.188349    1.095807
 H   -2.658210    1.090733   -1.048210
 H    3.602702   -0.909357   -1.138226
 H    2.530719    0.370240   -1.409580
 H    6.704171    1.564982    0.683787
