47 
6qwb_ligand_xtb.xyz
 C   -1.590860    2.643777   -0.246541
 C    5.889477    0.022151   -0.975365
 C    5.376220   -0.522763    1.366473
 C   -1.315989    0.847357    1.476613
 C   -0.537890   -1.345147    0.728780
 C   -0.218022    0.546261   -0.721857
 C   -1.045736    1.690201   -1.309697
 C    4.422289   -0.120099   -1.351876
 C    3.899548   -0.676394    1.031725
 C    3.517301    0.215909   -0.158786
 C    1.196364    0.989574   -0.299747
 C   -2.253270    1.916450    0.919465
 N    6.199010   -0.867568    0.176329
 N    2.130903    0.041997   -0.520803
 N   -3.587879    1.313809    0.554149
 N   -0.856445   -0.055585    0.448098
 O   -2.687174   -1.789171   -1.003167
 O    0.213029   -2.009616    0.058566
 O    1.424513    2.064603    0.210564
 O   -5.079743   -1.442756   -0.649363
 O   -3.583390    0.504414   -0.574533
 O   -3.587617   -1.108221    1.219462
 S   -3.637133   -1.148988   -0.197567
 H   -2.281656    3.351193   -0.705552
 H   -0.754354    3.210968    0.167539
 H    6.110242    1.050231   -0.681703
 H    6.528862   -0.244648   -1.818536
 H    5.596955    0.509355    1.646050
 H    5.651434   -1.175850    2.196295
 H   -0.458355    1.383498    1.909381
 H   -1.795094    0.264013    2.266806
 H   -1.033719   -1.722667    1.633697
 H   -0.137902   -0.252630   -1.464680
 H   -0.404970    2.259220   -1.983972
 H   -1.858896    1.267571   -1.897604
 H    4.215079   -1.138322   -1.688628
 H    4.204098    0.551614   -2.181399
 H    3.666638   -1.717302    0.795546
 H    3.310565   -0.398634    1.905173
 H    3.627912    1.271575    0.115346
 H   -2.485441    2.629955    1.717719
 H    7.196940   -0.807980    0.408899
 H    5.995504   -1.838864   -0.094075
 H    1.816531   -0.886493   -0.779637
 H   -4.287285    2.056459    0.399515
 H   -3.876663    0.655135    1.321937
 H   -5.184946   -1.919851   -1.478807
