47 
6qwb_ligand_dft.xyz
 C    1.249297    3.024333    0.486304
 C   -5.647484    0.050861    0.358268
 C   -4.634296   -0.836538   -1.768429
 C    0.939140   -1.537218    0.270258
 C    1.494757   -1.046614    2.609781
 C    0.393914    0.690658    1.322185
 C    1.581222    1.649377    1.076551
 C   -4.289772   -0.036892    1.044498
 C   -3.277826   -0.929648   -1.080586
 C   -3.142753    0.115538    0.038286
 C   -0.800313    0.803055    0.368163
 C    1.058021    3.044844   -0.991180
 N   -5.740246   -0.973338   -0.748476
 N   -1.862015    0.027525    0.715257
 N    1.826669    2.433586   -1.824507
 N    0.849938   -0.700358    1.419119
 O    3.772739   -1.443617    0.480848
 O    1.521014   -0.311581    3.562763
 O   -0.842497    1.555542   -0.599356
 O    3.460978   -2.142913   -1.890273
 O    3.706237    0.274655   -1.348638
 O    1.690397   -0.936162   -0.817789
 S    3.289721   -0.998589   -0.798714
 H    2.086782    3.707746    0.689156
 H    0.370603    3.473174    0.953995
 H   -5.801912    1.024209   -0.114599
 H   -6.469862   -0.138309    1.050611
 H   -4.781953    0.135050   -2.247517
 H   -4.777215   -1.620919   -2.514063
 H   -0.033560   -1.693909   -0.198120
 H    1.373493   -2.497827    0.552932
 H    1.944491   -2.050646    2.589734
 H    0.001088    0.929259    2.318372
 H    2.056167    1.796843    2.048923
 H    2.333890    1.161104    0.460937
 H   -4.206373   -0.996057    1.574404
 H   -4.246647    0.750704    1.802173
 H   -3.130654   -1.938109   -0.671484
 H   -2.504007   -0.770421   -1.836989
 H   -3.184772    1.113236   -0.412637
 H    0.311619    3.705478   -1.421348
 H   -6.650993   -0.894702   -1.213298
 H   -5.713516   -1.915337   -0.342734
 H   -1.776107   -0.562161    1.533415
 H    2.564606    1.772885   -1.547337
 H    1.689167    2.540170   -2.824175
 H    4.375302   -2.483887   -1.885721
