50 
6qwi_ligand_xtb.xyz
 C    2.668320    0.355405    0.604872
 C    5.440309    0.129965   -0.004376
 C    9.051697    0.459575   -0.561416
 C   -5.340492    0.332957    0.674172
 C    3.219314   -0.731541   -0.076197
 C    2.373908   -1.767144   -0.498108
 C    6.820526   -0.287975   -0.503626
 C    9.930542    1.622777   -0.134589
 C   -4.238797    0.452288    1.731271
 N   -5.438603   -1.046978    0.132836
 O   -5.458465    2.516629   -0.282380
 C    1.310837    0.404677    0.847903
 N   -2.994635   -0.073962    1.233959
 O   -7.404046    0.813651   -1.275672
 C   -5.857401   -0.975365   -1.293956
 N   -2.991494   -1.231448    0.558294
 O    4.522255   -0.879737   -0.375131
 C   -6.075062    0.511303   -1.584001
 N   -1.798883   -1.526514    0.200943
 O    7.721393    0.728713   -0.157928
 C   -5.113872    1.197697   -0.579280
 C    1.024412   -1.712607   -0.255880
 C    0.469122   -0.620469    0.420302
 C   -0.955788   -0.574051    0.655368
 C   -1.730782    0.375980    1.327929
 H    3.292374    1.164633    0.947674
 H    5.171564    1.090366   -0.460614
 H    5.472101    0.250153    1.085130
 H    9.088186    0.329055   -1.653893
 H    9.397593   -0.476035   -0.095958
 H   -6.291588    0.656291    1.109932
 H    2.814765   -2.602394   -1.017411
 H    6.789199   -0.433423   -1.594633
 H    7.107827   -1.244762   -0.041239
 H   10.958855    1.436255   -0.429505
 H    9.584620    2.539849   -0.602530
 H    9.883865    1.745396    0.943554
 H   -4.528097   -0.096001    2.635198
 H   -4.111732    1.505578    1.990367
 H   -4.332973   -1.434481    0.231467
 H   -6.070218   -1.628607    0.680187
 H   -5.203862    3.106653   -1.001147
 H    0.906525    1.255563    1.375194
 H   -7.512822    1.769779   -1.184730
 H   -6.790668   -1.510859   -1.461595
 H   -5.074938   -1.394962   -1.925594
 H   -5.839188    0.765615   -2.625933
 H   -4.076624    1.113643   -0.933759
 H    0.375195   -2.509483   -0.582030
 H   -1.474517    1.279602    1.836222
