45 
6qxd_ligand_dft.xyz
 C   25.161035   17.244523   96.128712
 C   24.498743   16.029461   96.285615
 C   26.132850   17.413568   95.144130
 C   24.832338   14.980798   95.444817
 C   26.446668   16.332190   94.316099
 C   25.802095   15.110180   94.460062
 C   26.827365   18.743418   94.950803
 N   28.267635   18.598070   94.790908
 C   30.372095   19.606080   94.057763
 C   28.891100   19.836308   94.337712
 N   31.028427   19.068971   95.241668
 C   30.387014   17.878474   95.778870
 C   28.900641   18.128217   96.016759
 C   31.914666   19.845632   95.916418
 C   32.550904   19.250223   97.156195
 C   32.860269   19.122946   99.570244
 C   32.150406   19.574246   98.462471
 C   33.973785   18.327466   99.363090
 C   34.396651   17.983041   98.086084
 C   33.681593   18.452754   96.989695
 O   32.321103   20.929629   95.531673
 N   34.725743   17.833826  100.524921
 O   34.324955   18.155078  101.631134
 O   35.700718   17.133283  100.306308
 N   30.993890   20.366774   98.799420
 O   30.299988   20.676143   97.857209
 F   24.205420   13.802464   95.589544
 H   24.914315   18.072654   96.788286
 H   23.741581   15.887784   97.048847
 H   27.219100   16.456071   93.562994
 H   26.037245   14.263187   93.824734
 H   26.574821   19.419385   95.790134
 H   26.444849   19.221094   94.039814
 H   30.871738   20.536370   93.787914
 H   30.482445   18.883595   93.240081
 H   28.785463   20.645930   95.083629
 H   28.398124   20.161381   93.415069
 H   30.505057   17.062717   95.054840
 H   30.873508   17.579965   96.709245
 H   28.780232   18.858777   96.838088
 H   28.425333   17.191986   96.324747
 H   32.535459   19.389514  100.569213
 H   35.274757   17.360773   97.963180
 H   34.011094   18.201422   95.986692
 O   -1.639219    0.182635    0.519170
