37 
6qxu_ligand_xtb.xyz
 C   -3.291512   -1.656140   -0.075687
 C   -2.488730   -0.501756   -0.024436
 C   -4.664402   -1.586535   -0.073919
 C   -4.537503    0.829732    0.036209
 C   -2.328682    1.956868    0.099712
 C   -0.412534    0.447640    0.008481
 C    1.044079    0.317579   -0.009273
 C    1.605427   -0.920698    0.309914
 C    2.972658   -1.092815    0.312045
 C    3.823004   -0.038714   -0.011505
 C    3.263667    1.187946   -0.345302
 C    5.799120   -0.621411    1.401737
 C   -3.146212    0.743669    0.032691
 N   -1.132822   -0.622109   -0.035897
 C   -5.269288   -0.333176   -0.018625
 N   -0.966359    1.697040    0.081349
 O   -2.739083    3.093725    0.170539
 C    1.894374    1.369751   -0.344282
 C    5.328722   -0.225491   -0.006857
 O    5.920649    1.010587   -0.372476
 F   -2.704086   -2.859850   -0.126192
 F   -6.612161   -0.275500   -0.018497
 C    5.722712   -1.304926   -1.027197
 H   -5.261568   -2.483306   -0.114606
 H   -5.012049    1.796996    0.081506
 H    0.942543   -1.734727    0.555556
 H    3.376669   -2.060194    0.568660
 H    3.917962    2.002322   -0.609828
 H    5.536038    0.163350    2.107353
 H    5.337089   -1.549822    1.721731
 H    6.880532   -0.750422    1.411002
 H   -0.365386    2.509942    0.149496
 H    1.502615    2.333339   -0.637695
 H    6.877049    0.895901   -0.374319
 H    5.250365   -2.253895   -0.794347
 H    5.413828   -0.994714   -2.022852
 H    6.802879   -1.444769   -1.024358
