53 
6qyn_ligand_dft.xyz
 C    3.289685    0.587701   -0.932081
 C    1.791434   -1.125027   -0.465254
 C    3.930367    1.944036   -1.029830
 C   -2.773519   -1.196181    0.758369
 C   -3.256879   -0.696559   -0.580819
 C   -3.076762    0.861398   -2.422876
 C    0.988509    1.353962   -0.315795
 C   -0.473560    2.590871    1.122992
 C    1.901783   -3.812566   -0.401380
 C    2.935759   -1.874544   -0.764130
 C   -2.654758    0.411229   -1.177365
 C   -4.287753   -1.350867   -1.256531
 C   -0.384972    3.147766   -1.210340
 C    0.541084    2.133035   -1.386187
 C    0.988121    0.808006    2.162599
 C    0.494629    1.593453    0.978162
Cl   -1.196713    2.899422    2.697226
 C   -0.917084    3.382076    0.055668
 O   -1.836998    4.358947    0.185835
 C    2.006704    0.300938   -0.567621
 C    4.435103    2.435789    0.333399
 S    4.273124   -0.840960   -1.170083
 N    3.023611   -3.209931   -0.748530
 N    0.734698   -3.232135   -0.078221
 C    0.678205   -1.913883   -0.110917
 O   -0.467029   -1.298259    0.206863
 C   -1.549319   -2.110967    0.631252
 C   -1.226267   -2.742171    1.978155
 O   -0.432023   -2.318042    2.779670
 O   -2.002821   -3.813268    2.200158
 C   -4.108481    0.205882   -3.090163
 C   -4.712902   -0.902847   -2.504159
 H    3.197741    2.656096   -1.421219
 H    4.757532    1.915929   -1.747545
 H   -2.502740   -0.359693    1.413049
 H   -3.564327   -1.765836    1.257718
 H   -2.597826    1.728944   -2.867475
 H    1.917228   -4.898475   -0.367815
 H   -1.847152    0.918318   -0.661772
 H   -4.765688   -2.215654   -0.801416
 H   -0.728519    3.758152   -2.038265
 H    0.929330    1.929707   -2.379716
 H    0.310759   -0.018981    2.401915
 H    1.968941    0.374528    1.954404
 H    1.074798    1.441064    3.049261
 H   -2.129820    4.400468    1.107744
 H    5.170302    1.741889    0.753434
 H    3.603587    2.519869    1.040338
 H    4.905857    3.419133    0.237222
 H   -1.733757   -2.906491   -0.095224
 H   -1.780152   -4.139308    3.087112
 H   -4.443108    0.559427   -4.061074
 H   -5.520819   -1.417649   -3.016031
