29 
6r12_ligand_xtb.xyz
 C    1.953641   -1.336349   -0.219583
 C   -0.244842    1.635157    0.159949
 C   -1.563258    1.722719    0.918861
 C   -3.433738   -1.569869    0.722512
 C   -2.484074    0.627814    0.456540
 C   -3.168972    0.759642   -0.745620
 C   -3.979375   -0.261293   -1.207508
 C   -4.111849   -1.429622   -0.475614
 C   -2.623547   -0.547312    1.185023
 N    3.317320   -1.373933   -0.093505
 N    0.400414    0.452603    0.342151
 C    1.571364    0.124179   -0.434155
 C    3.934352   -0.132871   -0.016490
 C    2.835420    0.904349   -0.059708
 O    5.115398    0.027310    0.086660
 O    1.208916   -2.275384   -0.155451
 O    0.210861    2.525275   -0.519158
 H   -1.358920    1.629602    1.986986
 H   -1.994495    2.704717    0.722521
 H   -3.533411   -2.477294    1.299145
 H   -3.061093    1.668782   -1.318878
 H   -4.507807   -0.145923   -2.142245
 H   -4.742583   -2.227587   -0.837397
 H   -2.107249   -0.660771    2.129123
 H    3.833669   -2.238735    0.000930
 H   -0.101222   -0.327193    0.744753
 H    1.351577    0.267241   -1.503699
 H    3.070379    1.708132   -0.754704
 H    2.734886    1.351471    0.931288
