32 
6r13_ligand_dft.xyz
 C   -3.589659    1.335603   -0.002711
 C   -0.329960   -0.371201   -0.460240
 C    1.070510    0.113108   -0.123815
 C    6.072726    0.609065    0.388078
 C    2.117481   -0.998652   -0.241101
 C    3.513392   -0.466121   -0.023381
 C    4.208666    0.145539   -1.069719
 C    5.476808    0.680411   -0.868608
 C    5.391716    0.000068    1.437838
 C    4.121637   -0.531675    1.231270
 N   -4.804387    0.769739    0.317401
 N   -1.345470    0.430477   -0.014819
 C   -2.687818    0.199299   -0.483682
 C   -4.801894   -0.630071    0.342413
 C   -3.381400   -1.070526    0.025076
 O   -5.762230   -1.308006    0.600283
 O   -3.289959    2.503316    0.083372
 O   -0.558442   -1.395593   -1.083187
 H    1.086069    0.553529    0.880416
 H    1.318704    0.927141   -0.818795
 H    7.063654    1.023894    0.546750
 H    2.026856   -1.459015   -1.229400
 H    1.891256   -1.783926    0.488018
 H    3.749553    0.198771   -2.054629
 H    6.002553    1.148841   -1.695643
 H    5.851408   -0.065696    2.419743
 H    3.596319   -1.009256    2.055438
 H   -5.606494    1.315962    0.602262
 H   -1.141256    1.371984    0.296180
 H   -2.714285    0.205382   -1.583273
 H   -2.914099   -1.421909    0.950755
 H   -3.369416   -1.894037   -0.688136
