36 
6r1a_ligand_dft.xyz
 C    4.301816   -0.410581    0.312686
 C    4.043367    1.038713   -0.029598
 C   -0.445021   -1.583478    0.296902
 C   -3.062337    2.016895    0.595338
 C   -2.741447   -1.637762   -0.183587
 C   -3.052143   -0.183363   -0.514918
 C   -4.487274    0.257303   -0.240289
 C   -4.372940    1.782457   -0.162479
 N    2.688165    1.384338   -0.253768
 N    0.785873   -1.731866   -0.249502
 C    3.225895   -1.357389   -0.217298
 N   -2.230652    0.783390    0.323843
 C    1.593334    0.574775   -0.214798
 C    1.847288   -0.876906    0.229132
 O    0.481997    0.999160   -0.508106
 O    4.885199    1.892881   -0.107193
 O   -1.409349   -1.975270   -0.562256
 O   -0.665179   -1.132099    1.410271
 H    5.290972   -0.661623   -0.074831
 H    4.364694   -0.478221    1.406791
 H   -3.214334    2.078688    1.673683
 H   -2.508319    2.895583    0.266176
 H   -3.387639   -2.279394   -0.783759
 H   -2.904931   -1.854244    0.875961
 H   -2.782330    0.016231   -1.556042
 H   -4.838643   -0.159289    0.711723
 H   -5.166197   -0.078543   -1.026345
 H   -5.217839    2.246063    0.349146
 H   -4.314129    2.210547   -1.167665
 H    2.530887    2.355219   -0.507282
 H    0.801949   -1.991557   -1.227316
 H    3.392195   -2.369870    0.157717
 H    3.270253   -1.401184   -1.312882
 H   -1.323994    0.995035   -0.128779
 H   -1.938820    0.302698    1.186951
 H    1.797947   -0.878528    1.324481
