44 
6r49_ligand_dft.xyz
 C   -0.660908    3.611848    0.112909
 C   -1.618687   -1.136854   -0.680318
 C   -3.990728   -0.820996    0.763942
 C   -2.836623   -0.145415    1.153200
 C    3.796628   -0.092644    0.941060
 C    3.022393   -1.116612    0.103991
 C    3.218093   -2.533688    0.655370
 C    1.540873   -0.728992   -0.012464
 C    0.723357   -0.643171    1.261297
 C   -0.380797    0.396654    0.959804
 O   -0.727713    1.138079    2.080510
 N    0.258216    1.237382   -0.071681
 C   -0.442362    2.344019   -0.668554
 C    0.321346    3.587890   -1.019013
 C    1.318096    0.643320   -0.683440
 O    1.936337    1.010895   -1.660490
 C   -1.647031   -0.289382    0.446480
 C   -0.445428   -1.280719   -1.619784
 N    0.867211   -1.702804   -0.985435
 C   -2.779117   -1.820468   -1.047325
 C   -3.963478   -1.667402   -0.334539
 H   -1.612967    4.113108   -0.021860
 H   -0.266403    3.664082    1.120982
 H   -4.907627   -0.685068    1.327761
 H   -2.853370    0.502562    2.020156
 H    3.536739   -0.149267    2.003368
 H    3.634310    0.928893    0.585694
 H    4.866708   -0.299619    0.860153
 H    3.430011   -1.058592   -0.915055
 H    2.770857   -2.642488    1.649981
 H    4.285639   -2.746250    0.754059
 H    2.809002   -3.317090    0.004919
 H    0.306803   -1.589708    1.613975
 H    1.364519   -0.252707    2.056012
 H    0.057470    1.599151    2.403302
 H   -1.238395    2.030077   -1.341477
 H    1.378202    3.608032   -0.778069
 H    0.066322    4.074166   -1.953828
 H   -0.658776   -2.055081   -2.359334
 H   -0.224109   -0.360982   -2.166286
 H    1.534133   -1.859472   -1.749053
 H    0.739276   -2.602911   -0.513875
 H   -2.765303   -2.473355   -1.916293
 H   -4.853791   -2.205653   -0.641269
