47 
6r4s_ligand_xtb.xyz
 P   -3.966859   -0.796833    0.285269
 O   -3.352674   -0.194888    1.477847
 O   -5.443329   -0.304297    0.046674
 O   -4.164894   -2.336981    0.212599
 P   -1.804769    0.125840   -1.405036
 O   -0.985365   -0.777538   -2.192829
 O   -2.050394    1.573152   -1.943785
 O   -3.279690   -0.367030   -1.110697
 P   -0.824795   -0.912256    0.908115
 O   -1.603004   -2.094211    0.522383
 O   -0.850234   -0.424513    2.385914
 O   -1.209931    0.399777    0.063564
 O    0.724751   -1.058976    0.648459
 C    1.176848   -2.155843   -0.150690
 C    2.684397   -2.047557   -0.409903
 O    2.969905   -1.283094   -1.580585
 C    3.479119   -1.394982    0.754457
 O    4.322504   -2.302591    1.397700
 C    4.268063   -0.259851    0.052904
 O    5.563365   -0.689917   -0.276140
 C    3.442742   -0.015252   -1.216658
 N    2.357096    0.923105   -1.040248
 C    1.475614    1.240097   -2.032022
 N    0.524220    2.041522   -1.657878
 C    0.758113    2.270643   -0.321656
 C    0.047219    2.946506    0.686203
 N   -1.095316    3.627879    0.460249
 N    0.551883    2.941411    1.920718
 C    1.673562    2.285346    2.157748
 N    2.403517    1.577281    1.316321
 C    1.904266    1.567373    0.081633
 H   -5.623783    0.505971    0.521057
 H   -3.302455   -2.764898    0.311832
 H   -1.155457    1.956692   -2.129133
 H   -1.762423   -0.202238    2.613629
 H    0.646690   -2.152563   -1.107212
 H    0.957467   -3.083122    0.381391
 H    3.060245   -3.058491   -0.605460
 H    2.783562   -0.972698    1.484143
 H    5.236513   -2.077304    1.156041
 H    4.370905    0.623831    0.680964
 H    5.499961   -1.367755   -0.963716
 H    4.068369    0.343146   -2.047002
 H    1.574894    0.845474   -3.023469
 H   -1.618993    3.403531   -0.369711
 H   -1.603176    3.915035    1.280910
 H    2.036507    2.325710    3.175443
