47 
6r4s_ligand_dft.xyz
 P   -4.263014   -0.649439    0.447312
 O   -3.620250   -0.298209    1.737426
 O   -5.816023   -0.346667    0.361049
 O   -4.166725   -2.136983   -0.039383
 P   -2.200455    0.279677   -1.396611
 O   -1.904818   -0.727524   -2.417333
 O   -2.050218    1.808085   -1.749677
 O   -3.692167    0.265810   -0.777654
 P   -0.792204   -1.155773    0.733998
 O   -1.514685   -2.381187    0.315479
 O   -0.940880   -0.694804    2.233742
 O   -1.264186    0.169741   -0.063545
 O    0.773043   -1.186658    0.498533
 C    1.420867   -2.417239    0.122829
 C    2.856084   -2.123061   -0.254489
 O    2.933367   -1.398212   -1.494541
 C    3.666103   -1.312202    0.789027
 O    4.485224   -2.110138    1.593822
 C    4.466415   -0.345408   -0.103401
 O    5.649535   -0.981808   -0.558768
 C    3.519929   -0.134796   -1.284069
 N    2.488952    0.880905   -1.084081
 C    1.495717    1.085228   -2.003698
 N    0.579290    1.925230   -1.604088
 C    0.966803    2.282853   -0.324475
 C    0.351814    3.053405    0.682215
 N   -0.847749    3.655783    0.521896
 N    0.994280    3.204093    1.848235
 C    2.165423    2.583966    2.016788
 N    2.810538    1.781627    1.172903
 C    2.155404    1.652165    0.016967
 H   -6.103742    0.187369    1.113664
 H   -3.227745   -2.459142    0.016927
 H   -1.071268    1.974037   -1.957053
 H   -1.896127   -0.491456    2.384558
 H    0.885501   -2.869519   -0.714702
 H    1.412032   -3.103580    0.975055
 H    3.344125   -3.092848   -0.410519
 H    2.998122   -0.743629    1.439335
 H    5.340023   -2.155612    1.135998
 H    4.761028    0.564853    0.413567
 H    5.401724   -1.643421   -1.221117
 H    4.066375    0.125212   -2.193981
 H    1.487118    0.564902   -2.951309
 H   -1.483785    3.306664   -0.182703
 H   -1.258615    4.039000    1.360454
 H    2.646052    2.745696    2.977926
