67 
6r8l_ligand_xtb.xyz
 C   -3.142649   -0.275584   -2.018665
 C   -1.141797   -1.600063   -1.656150
 O   -1.636420   -2.179546   -0.702401
 C   -4.557187    1.170921    0.063145
 C   -4.075309    3.282978   -1.016745
 C   -4.618239    3.571633    0.379472
 C   -5.368498    2.289037    0.736661
 C   -3.521479    0.557076    0.980073
 C   -3.688792   -0.725426    1.506017
 C   -2.719250   -1.278201    2.330892
 C   -1.566996   -0.575826    2.621289
 C   -4.369529   -3.302887    0.767439
 C    2.035825   -1.741380   -0.519243
 C    1.561892   -0.885430    0.470645
 C    3.793862   -0.075286    0.884032
 C    5.764090   -0.997391   -0.365656
 C    6.481133    1.717275    0.208538
 C    1.067273   -2.602775   -1.286345
 C    5.883224    1.237411   -1.125315
 N   -1.862670   -0.766685   -2.465292
 N    0.139949   -1.807843   -2.065546
 C   -3.122245    1.251891   -1.967681
 N   -3.921394    1.837023   -1.062789
 O   -2.439022    1.887245   -2.755027
 C   -1.378553    0.686715    2.086357
 C   -2.347860    1.240381    1.271488
 S   -5.128627   -1.680353    1.088318
 C    2.424928   -0.065746    1.163527
 C    4.279756   -0.949774   -0.097260
 C    3.395324   -1.760617   -0.789008
 N    4.640326    0.789498    1.534755
 C    6.073065    0.736943    1.338085
 C    6.504852   -0.670809    0.934087
 O    6.176529   -0.109690   -1.399808
 O    6.084208    3.031698    0.503547
 H   -3.345429   -0.737230   -1.054732
 H   -3.928043   -0.568380   -2.729060
 H   -5.230686    0.379790   -0.285026
 H   -4.786765    3.590866   -1.791382
 H   -3.118482    3.765937   -1.227047
 H   -3.805574    3.743636    1.084588
 H   -5.268380    4.444041    0.389535
 H   -6.373179    2.312551    0.314472
 H   -5.447722    2.132198    1.810471
 H   -2.860424   -2.266629    2.737863
 H   -0.813645   -1.020177    3.254607
 H   -5.044143   -3.821595    0.093491
 H   -3.404671   -3.142796    0.293818
 H   -4.271057   -3.864412    1.691994
 H    0.505024   -0.870742    0.693268
 H    6.046209   -1.986450   -0.740106
 H    7.572690    1.744176    0.137141
 H    1.605777   -3.281669   -1.954823
 H    0.451125   -3.188140   -0.597833
 H    6.306712    1.809945   -1.952828
 H    4.793823    1.401958   -1.106962
 H   -1.384410   -0.135165   -3.094316
 H    0.534127   -1.201077   -2.766159
 H   -0.474743    1.239385    2.294977
 H   -2.175318    2.210229    0.831520
 H    2.051793    0.594609    1.933876
 H    3.786070   -2.425033   -1.546844
 H    4.294939    1.218009    2.376771
 H    6.564019    1.052777    2.264916
 H    6.237245   -1.393056    1.706811
 H    7.581713   -0.699342    0.771260
 H    5.122540    3.035421    0.596170
