32 
6r8p_ligand_dft.xyz
 C    0.839485   -1.563106    0.000039
 N    1.360626   -0.304962    0.000071
 C    2.710073    0.082753    0.000120
 C    4.324457    1.855259   -0.000248
 C   -1.975397    2.318243    0.000015
 C   -2.993810    1.209782   -0.000018
 C   -4.361337    1.458844    0.000387
 C   -5.293256    0.421002    0.000448
 C   -4.850558   -0.893335    0.000144
 C   -3.484795   -1.177397   -0.000263
 C   -2.570743   -0.128835   -0.000349
 C   -0.686535   -1.609826   -0.000355
 C    2.999710    1.448116   -0.000174
 C    5.318252    0.881308    0.000043
 C    3.782366   -0.820661    0.000368
 N    5.055772   -0.424996    0.000336
 O   -1.214713   -0.304425   -0.000730
 O    1.467746   -2.605101    0.000237
 H    0.671988    0.436600   -0.000146
 H    4.581804    2.909257   -0.000512
 H   -1.328634    2.262191   -0.883478
 H   -2.463947    3.296231    0.000587
 H   -1.327958    2.261455    0.882960
 H   -4.703852    2.490548    0.000655
 H   -6.355359    0.643559    0.000776
 H   -5.562413   -1.713019    0.000189
 H   -3.152456   -2.209339   -0.000433
 H   -1.002222   -2.168911    0.889229
 H   -1.001675   -2.169245   -0.889937
 H    2.194408    2.179464   -0.000366
 H    6.369050    1.161268   -0.000020
 H    3.594747   -1.887037    0.000647
