32 
6r8p_ligand_xtb.xyz
 C    0.858596   -1.588600    0.011263
 N    1.361154   -0.330971    0.007862
 C    2.692094    0.079758   -0.000701
 C    4.281381    1.869235   -0.014470
 C   -1.966880    2.298513    0.031500
 C   -2.985320    1.199438    0.010574
 C   -4.343137    1.462020   -0.006773
 C   -5.272514    0.434082   -0.027318
 C   -4.839525   -0.876834   -0.029501
 C   -3.484108   -1.167571   -0.011741
 C   -2.558223   -0.136248    0.007471
 C   -0.674356   -1.618507    0.016475
 C    2.965065    1.447163   -0.006191
 C    5.280551    0.906483   -0.016371
 C    3.776985   -0.801848   -0.004417
 N    5.028929   -0.390540   -0.011710
 O   -1.195885   -0.312656    0.024396
 O    1.497816   -2.614400    0.009096
 H    0.668429    0.409838    0.011304
 H    4.524538    2.920476   -0.019166
 H   -1.326868    2.234949   -0.848369
 H   -2.451005    3.270992    0.043546
 H   -1.334261    2.208668    0.914220
 H   -4.678283    2.489005   -0.004169
 H   -6.327614    0.659650   -0.041302
 H   -5.552695   -1.687040   -0.044935
 H   -3.165952   -2.198097   -0.012900
 H   -0.990987   -2.183385    0.903971
 H   -0.995404   -2.174318   -0.875005
 H    2.152530    2.161748   -0.003935
 H    6.326240    1.181929   -0.021803
 H    3.621647   -1.869901   -0.001262
