38 
6r8r_ligand_dft.xyz
 C   -4.773011    0.467353   -0.412884
 C   -3.558806    1.143077    2.024240
 C   -2.995072    0.152863    1.219918
 C   -3.603277   -0.181262    0.013557
 C   -1.995033   -1.854080   -0.486959
 C    2.548003   -1.777353    0.992326
 C    3.855696   -1.403092    1.116408
 C    5.682730    0.184893    0.532191
 C    5.291866    1.959515   -0.842253
 C    3.969885    1.641602   -1.009986
 C    3.441999    0.499028   -0.357166
 C    2.086979    0.102107   -0.476888
 N    0.323589   -1.490125    0.130898
 C   -5.397583    0.093742   -1.729667
 O   -3.145088   -1.151304   -0.837572
 C    4.336783   -0.253295    0.442792
 C   -5.310797    1.449060    0.411303
 C   -4.717652    1.791988    1.626328
 C   -0.724915   -0.995115   -0.606582
 C    1.648714   -1.021081    0.187977
 N    6.159290    1.243697   -0.076989
 O   -0.678660   -0.011236   -1.311905
 H   -3.076450    1.403144    2.961587
 H   -2.077969   -0.328379    1.542091
 H   -1.916155   -2.672710   -1.209624
 H   -2.084998   -2.298003    0.516469
 H    2.185385   -2.662092    1.510818
 H    4.536029   -1.985205    1.732042
 H    6.383254   -0.384618    1.144319
 H    5.716614    2.831039   -1.333550
 H    3.327990    2.254741   -1.635146
 H    1.402894    0.678119   -1.084984
 H    0.134759   -2.311397    0.687678
 H   -4.691941    0.243919   -2.553470
 H   -5.685388   -0.963061   -1.746518
 H   -6.289108    0.697226   -1.921520
 H   -6.216213    1.958699    0.091270
 H   -5.157930    2.564189    2.249065
