34 
6r9u_ligand_xtb.xyz
 C    0.975454    2.177224   -1.356995
 C    1.956479    2.192245   -0.188706
 C    1.178269    0.491325    1.431725
 C   -0.126033    0.006734    0.834074
 C   -1.300045    0.669090    1.204693
 C   -2.468771    0.346244    0.565901
 C   -2.491454   -0.605123   -0.451920
 C   -1.360992   -1.284414   -0.818951
 C    1.936999   -2.178660    0.415948
 C    3.218092   -1.322667    0.496262
 C    3.067199    0.067293   -0.113847
 N    2.133298    0.885404    0.419891
 O   -3.734681    0.856240    0.742891
 C   -4.545175    0.197601   -0.203940
 O   -3.764636   -0.718403   -0.943181
 C   -0.156720   -0.988218   -0.155025
 N    0.983927   -1.663428   -0.548388
 O    3.804179    0.428382   -1.011600
 H    1.312609    1.463543   -2.103845
 H   -0.021718    1.896336   -1.028131
 H    0.932718    3.163850   -1.810910
 H    1.619544    2.888645    0.583419
 H    2.938396    2.506838   -0.551223
 H    1.631530   -0.253537    2.085865
 H    0.966459    1.371593    2.046697
 H   -1.285679    1.430943    1.966806
 H   -1.389914   -2.025966   -1.600575
 H    1.454434   -2.253978    1.395759
 H    2.214454   -3.193522    0.119743
 H    4.018865   -1.797557   -0.071381
 H    3.555384   -1.227539    1.530218
 H   -4.988288    0.938655   -0.889476
 H   -5.353818   -0.343504    0.313256
 H    0.835760   -2.260434   -1.346944
