56 
6rfi_ligand_xtb.xyz
 C   -9.023978    0.765966   -1.087743
 C   -7.064153   -0.296676   -0.394679
 O   -7.362102   -1.322257   -0.942546
 C   -3.616977   -0.932564    0.002972
 C   -4.042075    1.393687    0.511643
 C   -5.458009    1.040839    0.978653
 C   -1.673756    0.568782    0.615484
 C   -1.217680    0.608159   -0.840466
 C    0.254404    1.024924   -0.895814
 C    1.109179    0.035897   -0.103747
 C    0.638240   -0.004969    1.356985
 C   -0.830723   -0.419055    1.420435
 C    3.952302   -2.826605   -0.173674
 C    5.722015   -1.422062   -0.151238
 C    5.402221    0.992333   -0.172837
 C    7.117572   -1.222727   -0.129572
 N    7.718326    3.537012   -0.132382
 O   -7.776191    0.832799   -0.394788
 N   -5.895896   -0.160674    0.322436
 C   -5.022467   -1.294260    0.480521
 N   -3.138124    0.244961    0.773811
 N    2.507165    0.362776   -0.202369
 C    3.453592   -0.607173   -0.173365
 N    3.029234   -1.858950   -0.171490
 N    5.241828   -2.684867   -0.155656
 C    4.853014   -0.295669   -0.169250
 C    6.773616    1.157122   -0.150471
 C    7.635954    0.040406   -0.127702
 C    7.310147    2.466461   -0.143789
 H   -8.858685    0.570689   -2.147873
 H   -9.644058   -0.028946   -0.672427
 H   -9.494049    1.734619   -0.943820
 H   -3.641377   -0.671696   -1.055180
 H   -2.940418   -1.772551    0.156157
 H   -3.681207    2.272117    1.048696
 H   -4.039130    1.601795   -0.559056
 H   -6.144483    1.850845    0.734220
 H   -5.462748    0.900383    2.069328
 H   -1.540236    1.566495    1.049262
 H   -1.813211    1.318784   -1.414855
 H   -1.310169   -0.377604   -1.296082
 H    0.373596    2.029507   -0.483482
 H    0.584916    1.046183   -1.933740
 H    1.016795   -0.969634   -0.528551
 H    0.773322    0.976471    1.817015
 H    1.244711   -0.724531    1.905659
 H   -0.919601   -1.426033    1.011104
 H   -1.157376   -0.437966    2.463185
 H    3.564016   -3.837085   -0.181701
 H    4.772415    1.871048   -0.197120
 H    7.749415   -2.095871   -0.115228
 H   -4.994544   -1.611746    1.532044
 H   -5.432416   -2.111218   -0.118513
 H   -3.260542    0.000902    1.766197
 H    2.786088    1.318075   -0.051288
 H    8.702937    0.203927   -0.109829
