55 
6rfi_ligand_dft.xyz
 C  -14.398506  -16.751159  -15.716927
 C  -15.559961  -17.731369  -13.945486
 O  -14.743085  -17.273604  -13.168968
 C  -18.281995  -18.508013  -11.790867
 C  -19.017995  -18.744720  -14.050450
 C  -17.598301  -19.062301  -14.513491
 C  -20.610499  -19.195052  -12.253009
 C  -21.221979  -17.806702  -11.984926
 C  -22.710559  -17.911516  -11.642690
 C  -22.933401  -18.841833  -10.449500
 C  -22.320343  -20.224195  -10.704197
 C  -20.832245  -20.110492  -11.043619
 C  -24.505143  -19.842913   -6.767604
 C  -26.664703  -19.803230   -7.431313
 C  -27.262741  -19.166366   -9.709261
 C  -28.041706  -19.969837   -7.143439
 N  -30.396364  -18.882829  -11.220641
 O  -15.499364  -17.542178  -15.283549
 N  -16.639794  -18.480408  -13.590359
 C  -16.847280  -18.827777  -12.196278
 N  -19.211665  -19.194166  -12.679774
 N  -24.358966  -18.921339  -10.155813
 C  -24.852752  -19.278594   -8.951250
 N  -23.993241  -19.491680   -7.964692
 N  -25.758915  -20.024221   -6.434845
 C  -26.277974  -19.407462   -8.734390
 C  -28.600179  -19.332515   -9.402853
 C  -28.991056  -19.743565   -8.104009
 C  -29.595406  -19.083432  -10.406807
 H  -14.487412  -16.699073  -16.802350
 H  -14.444522  -15.749498  -15.282400
 H  -13.451013  -17.215992  -15.433843
 H  -18.416236  -17.410571  -11.812311
 H  -18.440370  -18.845313  -10.762662
 H  -19.190191  -17.657687  -14.168203
 H  -19.728479  -19.269113  -14.699077
 H  -17.465686  -20.153040  -14.536539
 H  -17.424424  -18.666855  -15.512692
 H  -21.169221  -19.641111  -13.089392
 H  -20.695998  -17.330373  -11.147026
 H  -21.088150  -17.154728  -12.855420
 H  -23.126198  -16.921538  -11.424312
 H  -23.254681  -18.306085  -12.515226
 H  -22.456845  -18.410503   -9.563104
 H  -22.857646  -20.701755  -11.536208
 H  -22.466589  -20.848619   -9.817755
 H  -20.406561  -21.095674  -11.257958
 H  -20.302302  -19.715579  -10.166694
 H  -23.766451  -20.002279   -5.984463
 H  -27.002357  -18.835317  -10.709599
 H  -28.311018  -20.277519   -6.139152
 H  -16.664053  -19.901998  -12.054883
 H  -16.133204  -18.264186  -11.595890
 H  -24.984606  -18.901270  -10.945351
 H  -30.045670  -19.869856   -7.883482
