69 
6rfj_ligand_dft.xyz
 C  -26.023058  -38.378162   -5.276936
 C  -20.189663  -39.262282   -6.821211
 C  -19.581388  -39.906182   -8.923249
 C  -18.196448  -39.814171   -8.520192
 C  -15.982935  -40.012447   -9.031175
 C  -15.622402  -39.633006   -7.715987
 C  -16.601713  -39.341499   -6.800507
 C  -17.963244  -39.425627   -7.189242
 C  -15.442493  -40.689650  -11.360871
 C  -21.221840  -40.405905  -10.686917
 C  -23.279034  -39.206592  -11.513798
 C  -21.232065  -41.297431  -11.928238
 C  -27.030031  -40.633014  -13.152996
 C  -26.023327  -40.304121  -15.361671
 C  -24.655436  -40.576262  -14.745288
 C  -28.030482  -41.665735  -15.196323
 N  -24.727120  -38.621895   -5.866664
 N  -24.638744  -39.118192   -7.103676
 C  -23.340561  -39.314077   -7.314568
 C  -22.577193  -38.941157   -6.184105
 C  -23.514802  -38.502909   -5.268072
 N  -21.200676  -38.969664   -5.952365
 N  -20.554123  -39.632487   -8.070550
 N  -17.234886  -40.099616   -9.417030
 N  -18.964587  -39.142144   -6.321382
 C  -14.901192  -40.336049  -10.047276
 N  -15.844571  -40.972002  -12.407848
 N  -19.867243  -40.283017  -10.174941
 C  -21.851936  -39.040140  -10.988236
 C  -23.306259  -40.095626  -12.762357
 C  -22.657660  -41.460852  -12.462706
 N  -24.643767  -40.152316  -13.352605
 C  -25.635655  -40.901596  -12.594139
 N  -27.058460  -40.947086  -14.571841
 O  -28.081185  -41.880334  -16.393020
 O  -28.949004  -42.134964  -14.320088
 C  -29.979902  -42.917014  -14.910962
 H  -26.721345  -38.153975   -6.083495
 H  -26.377268  -39.254989   -4.725136
 H  -25.962434  -37.523307   -4.599178
 H  -14.573074  -39.574514   -7.439937
 H  -16.366845  -39.046139   -5.783110
 H  -21.816255  -40.893547   -9.902884
 H  -23.718891  -38.234615  -11.757618
 H  -23.897338  -39.644107  -10.718154
 H  -20.798347  -42.274923  -11.688853
 H  -20.597220  -40.843394  -12.703320
 H  -27.275817  -39.571663  -13.007806
 H  -27.771505  -41.238931  -12.635152
 H  -26.198254  -39.219216  -15.381402
 H  -26.082442  -40.690408  -16.379223
 H  -24.422787  -41.651784  -14.862239
 H  -23.897464  -40.007814  -15.295242
 H  -22.986180  -39.700361   -8.254499
 H  -23.408136  -38.119097   -4.263635
 H  -20.873931  -38.685942   -5.041172
 H  -14.283629  -41.170120   -9.692088
 H  -14.226628  -39.479993  -10.170247
 H  -19.072177  -40.457490  -10.777461
 H  -21.231251  -38.525163  -11.734404
 H  -21.846686  -38.430055  -10.079919
 H  -22.678072  -39.595976  -13.514656
 H  -23.259323  -41.995318  -11.715308
 H  -22.645114  -42.083209  -13.364553
 H  -25.451231  -41.991864  -12.626237
 H  -25.612922  -40.588132  -11.546721
 H  -30.632444  -43.208076  -14.087286
 H  -30.535444  -42.334089  -15.649691
 H  -29.565461  -43.802562  -15.399337
