52 
6rj6_ligand_dft.xyz
 C   -4.251189   -1.637295   -0.135676
 C   -3.682286   -0.355431   -0.091032
 C   -4.532514    0.757804    0.055955
 C   -2.439315    1.514364   -0.065557
 C   -1.321108    2.489482   -0.143186
 N   -0.136989    1.982811    0.277438
 C   -4.311019    3.224331    0.250816
 C    1.477965    3.519474   -0.925480
 C    4.229980    0.834824    1.630880
 C    4.238094   -0.279035    0.797495
 C    3.258866   -0.470831   -0.171449
 C   -5.624769   -1.772129   -0.022045
 C   -7.965336   -0.818255    0.264964
 C    1.158665    2.665943    0.329368
 C    2.227186    1.609513    0.518014
 C    3.219922    1.777594    1.484408
 C   -6.475136   -0.643325    0.138998
 C    2.256382    0.480414   -0.306412
 C    6.857022   -0.944306   -0.117664
 C    6.527566   -1.215886   -1.566391
 C   -5.918798    0.622719    0.178723
 C   -2.353456    0.145857   -0.165240
 N   -3.763813    1.893170    0.057658
 O   -1.475022    3.630292   -0.581310
 O    0.951699    4.809270   -0.875388
 O    5.041712   -2.772128    0.496699
 O    6.072918   -1.353381    2.341615
 O    5.643248   -0.672533   -2.180989
 O    7.341192   -2.139545   -2.090341
 S    5.528418   -1.493163    0.996921
Cl   -3.195526   -3.002093   -0.325487
Cl   -6.347848   -3.357810   -0.073844
 H   -0.185730    1.105644    0.775487
 H   -5.076831    3.416638   -0.506405
 H   -4.760830    3.308177    1.245518
 H   -3.516146    3.956809    0.135729
 H    2.565252    3.628179   -0.975139
 H    1.161252    2.956635   -1.819118
 H    4.989248    0.943369    2.398316
 H    3.283490   -1.350136   -0.804237
 H   -8.221116   -1.445751    1.125032
 H   -8.454170    0.151253    0.390428
 H   -8.385363   -1.302070   -0.622904
 H    1.174213    3.358334    1.180834
 H    3.197452    2.647109    2.135182
 H    1.486888    0.344293   -1.061090
 H    6.999055    0.126106    0.046464
 H    7.740781   -1.494131    0.211624
 H   -6.558787    1.490738    0.301304
 H   -1.456721   -0.433984   -0.331571
 H   -0.015154    4.698249   -0.844279
 H    7.055187   -2.279122   -3.008196
