28 
6rnu_ligand_xtb.xyz
 C    2.783492   -0.737508   -0.083296
 C    2.038211   -1.911900   -0.205516
 C    0.659743   -1.880689   -0.193757
 C   -3.573538   -1.560045    0.776101
 C   -4.257721   -0.672975   -0.036927
 C   -3.596408    0.220017   -0.861978
 C   -2.213865    0.231205   -0.866235
 C    0.726057    0.486905    0.063825
 C    2.106175    0.468089    0.065990
 F   -5.602546   -0.681286   -0.023596
 C   -2.192306   -1.549416    0.754654
 C   -1.499737   -0.650660   -0.056413
 C   -0.030242   -0.670839   -0.068136
 C    4.277050   -0.862059   -0.089933
 O    4.979728    0.262134   -0.267950
 O    4.826495   -1.919371    0.048465
 S   -0.001881    2.101681    0.308796
 O   -0.393238    2.677806   -0.942825
 O    0.860071    2.858282    1.164739
 H    2.572798   -2.844416   -0.306317
 H    0.097180   -2.795724   -0.299292
 H   -4.120766   -2.241986    1.407122
 H   -4.161204    0.891802   -1.488095
 H   -1.688614    0.917324   -1.510699
 H    2.600674    1.415243    0.231789
 H   -1.642897   -2.228394    1.389184
 H    4.429653    1.047338   -0.390055
 H   -1.179721    1.851936    1.028296
