128 
6rpg_ligand_xtb.xyz
 N  -10.839594    0.755853    0.504999
 N  -11.133272    6.537270    2.388839
 C  -10.080704    1.306883   -0.601531
 C   -8.744228    0.666140   -0.904478
 C   -7.793914    0.456011    0.091376
 C   -7.352669    1.860072    1.949629
 C   -7.840232    3.161091    1.371698
 C   -8.748690    5.400743    0.101621
 C  -10.418324    5.723459    1.829622
 C   -6.266105   -0.501216   -1.511151
 C  -11.052001   -3.787225    1.514055
 C   -9.377572    5.035746    1.348731
 C   -8.871148    3.844884    1.964392
 C   -6.567283   -0.128514   -0.211876
 C   -4.108938   -1.342011   -0.937395
 C  -10.354054   -1.727236    0.359472
 C  -11.374322   -0.570333    0.314228
 C   -7.313002    3.635820    0.162493
 N   -7.777004    4.731360   -0.438606
 O   -8.085026    0.767394    1.406032
 O   -5.097751   -1.085072   -1.904120
 O    4.959205   -2.604876    0.943983
 N  -11.020267   -3.008144    0.407567
 C  -11.930831   -5.014752    1.358505
 O  -10.428142   -3.535686    2.521707
 C   -2.923952   -2.017711   -1.579447
 C   -2.947923   -2.339631   -2.927985
 C   -1.867543   -2.968527   -3.519349
 C   -0.755912   -3.278112   -2.760811
 C   -0.715812   -2.956109   -1.408921
 C   -1.802134   -2.324396   -0.803703
 C   -1.765742   -1.977445    0.654838
 C    0.496793   -3.332733   -0.639261
 C    0.572299   -4.616247   -0.110855
 C    1.697276   -5.023828    0.578679
 C    2.760512   -4.153053    0.733401
 C    2.701967   -2.872663    0.204453
 C    1.562632   -2.445858   -0.482847
 C    1.484959   -1.057494   -1.045447
 C    3.867980   -1.928244    0.362714
 C    6.141754   -1.959877    1.095845
 C    6.360793   -0.627380    0.765849
 C    7.612571   -0.054004    0.954717
 C    8.663097   -0.814982    1.477330
 C   10.021903   -0.194580    1.687346
 C   10.651933   -0.442659   -0.691084
 C   11.424356   -1.743894   -0.478830
 C   13.616731   -0.543066    0.048669
 C   15.083601   -0.775041   -0.037383
 C    8.420970   -2.142326    1.798107
 C    7.185096   -2.734281    1.624578
 C    6.928946   -4.164414    1.983993
 C    6.889405    2.115889    0.220454
 C    7.484082    3.483525    0.021935
 C    8.488258    3.954785    0.869000
 C    8.630979    5.945398   -0.216006
 C    7.625120    5.584464   -1.128124
 C    7.047406    4.309531   -0.996260
 C    7.219832    6.464851   -2.142865
 C   -7.205739   -0.284728   -2.530299
 C   -8.419702    0.285356   -2.201575
 C   -6.868218   -0.680923   -3.934528
 N   10.616263    0.409269    0.493164
 N   12.775375   -1.624907    0.067409
 N    9.046617    5.154014    0.743925
 N    6.891832    7.186531   -2.976746
 O   13.203639    0.689418    0.319274
 O    7.914967    1.242311    0.642837
 H  -12.144378    6.524961    2.283340
 H  -10.269851    0.781665    1.345241
 H   -9.912225    2.364130   -0.367647
 H  -10.710758    1.261250   -1.495354
 H   -7.537258    1.815662    3.026073
 H   -6.278682    1.736515    1.759321
 H   -9.089939    6.280867   -0.425360
 H   -9.312325    3.502285    2.888537
 H   -5.870093   -0.289449    0.595875
 H   -4.511570   -1.993217   -0.144968
 H   -3.784309   -0.399949   -0.467289
 H   -9.751180   -1.647435    1.267100
 H   -9.692393   -1.691800   -0.511136
 H  -11.904191   -0.586786   -0.644895
 H  -12.106869   -0.738973    1.111538
 H   -6.507292    3.123450   -0.343523
 H  -11.608744   -3.245354   -0.375277
 H  -11.828821   -5.641342    2.239350
 H  -12.970999   -4.711369    1.257033
 H  -11.641575   -5.580392    0.475927
 H   -3.821817   -2.092998   -3.508169
 H   -1.894741   -3.217268   -4.569678
 H    0.095129   -3.771132   -3.208191
 H   -1.853095   -0.899863    0.794328
 H   -2.595762   -2.447579    1.181118
 H   -0.836012   -2.310932    1.107569
 H   -0.262605   -5.288227   -0.245398
 H    1.750022   -6.019480    0.992910
 H    3.646291   -4.462181    1.263836
 H    2.258815   -0.903452   -1.797690
 H    0.518433   -0.885935   -1.510263
 H    1.630338   -0.316142   -0.259983
 H    4.152859   -1.534079   -0.624804
 H    3.567678   -1.077308    0.995401
 H    5.555917   -0.032965    0.367728
 H   10.713669   -0.948248    2.071882
 H    9.947868    0.605162    2.429708
 H    9.645117   -0.732896   -1.025218
 H   11.120742    0.137644   -1.491554
 H   11.469856   -2.249868   -1.453126
 H   10.861697   -2.391133    0.201255
 H   15.351680   -1.269561   -0.972583
 H   15.590041    0.183811    0.014442
 H   15.438926   -1.400926    0.785154
 H    9.225678   -2.731985    2.214848
 H    6.164580   -4.223367    2.757490
 H    6.558074   -4.709073    1.116933
 H    7.835292   -4.641814    2.346076
 H    6.443318    1.764577   -0.721083
 H    6.098072    2.166148    0.984621
 H    8.861745    3.344334    1.678536
 H    9.107792    6.914378   -0.281212
 H    6.274481    3.994199   -1.683182
 H   -9.144025    0.452658   -2.986621
 H   -5.955803   -0.179586   -4.253864
 H   -6.689178   -1.754271   -3.989321
 H   -7.674298   -0.419476   -4.614521
 H   12.208902    0.702905    0.508379
 H   10.090446    1.249611    0.268578
 H   13.275200   -2.499943   -0.004096
