56 
6rtn_ligand_dft.xyz
 B   19.835024  -14.674522    0.329087
 C   22.000973  -14.505457    1.338823
 C   23.244867  -13.863577    1.275056
 C   23.434564  -12.626038    0.472243
 C   24.330973  -14.441030    1.945730
 C   24.187202  -15.634992    2.633614
 C   22.948765  -16.272566    2.656655
 C   21.843070  -15.718210    2.023310
 C   20.499282  -16.397713    1.985236
 C   19.867837  -16.239952    0.584294
 C   21.057045  -18.184711   -0.415490
 C   22.041347  -18.609584   -1.493302
 C   23.503119  -18.495940   -1.020980
 C   23.964081  -17.039417   -0.878270
 C   25.428139  -16.941805   -0.447438
 C   26.367704  -17.693303   -1.404491
 C   28.431550  -16.384881   -1.096573
 C   29.823014  -16.488672   -0.483699
 C   25.903731  -19.145074   -1.548741
 C   24.438521  -19.245942   -1.977674
 N   20.676734  -16.874898   -0.454072
 N   27.773298  -17.674437   -1.024113
 N   29.709693  -16.839194    0.933806
 O   18.800269  -14.028424   -0.252738
 O   20.921319  -13.929368    0.734952
 O   22.684529  -12.188113   -0.368735
 O   24.601761  -12.007868    0.765168
 O   20.667247  -18.958428    0.447180
 H   25.293828  -13.946033    1.902887
 H   25.040237  -16.080426    3.134551
 H   22.834785  -17.225277    3.166694
 H   19.822152  -15.941190    2.722059
 H   20.596317  -17.454709    2.238217
 H   18.866500  -16.681631    0.584189
 H   21.906957  -18.025169   -2.413791
 H   21.813551  -19.653919   -1.725630
 H   23.568631  -18.975428   -0.033105
 H   23.838176  -16.532995   -1.848883
 H   23.337676  -16.506175   -0.157302
 H   25.538222  -17.372351    0.559055
 H   25.714098  -15.886912   -0.367457
 H   26.298178  -17.216714   -2.395167
 H   28.518418  -16.085002   -2.149158
 H   27.885300  -15.570023   -0.581223
 H   30.361288  -17.297884   -0.987735
 H   30.374294  -15.551857   -0.668268
 H   26.033671  -19.651130   -0.580161
 H   26.555542  -19.658653   -2.262766
 H   24.325187  -18.823583   -2.987763
 H   24.138475  -20.298889   -2.042962
 H   21.076649  -16.302730   -1.181733
 H   27.886723  -18.025206   -0.074463
 H   30.617197  -17.095384    1.309543
 H   29.393488  -16.030398    1.462716
 H   18.981498  -13.081497   -0.324021
 H   24.643306  -11.241719    0.171839
