71 
6rz6_ligand_xtb.xyz
 C    7.981984    0.265553    0.749324
 C    0.020557   -2.469234    0.025467
 C    8.609976    0.748117   -0.565910
 C    8.421438    2.243089   -0.821656
 C    4.345928   -2.817239   -1.109359
 C    6.985961    2.600588   -1.118573
 C    5.837606   -0.785456    0.151989
 C    6.446491   -1.717436   -0.691173
 C    5.709012   -2.710800   -1.304969
 C    3.716081   -1.916694   -0.261538
 C    1.406741   -2.836996   -0.382637
 N    6.531297    0.271969    0.747828
 N    2.346950   -1.927962    0.001045
 C    5.899617    0.804843    1.933750
 C    4.407325    1.056584    1.654434
 C   -0.888561   -3.501682    0.257700
 C   -2.188424   -3.229241    0.612832
 C   -2.627514   -1.906817    0.726969
 C   -4.469662   -0.440598    1.138158
 C   -5.953507   -0.569670    1.472962
 C    4.302334    2.151674    0.597781
 C   -6.742442   -1.310642    0.393596
 C   -6.947613   -0.498247   -0.893941
 C   -7.770872    0.729713   -0.647037
 C   -7.163300    1.969067   -0.490204
 C   -7.926383    3.091354   -0.229496
 C   -9.302895    3.030680   -0.118501
 C   -9.919190    1.803043   -0.276928
 C   -9.159835    0.672302   -0.533857
 C   -1.730966   -0.871966    0.476077
 C   -0.420772   -1.155966    0.132122
 C    4.463530   -0.917305    0.374771
 F   -7.304810    4.278712   -0.078410
 O    4.071468    1.954691   -0.566769
 O    4.529901    3.341079    1.128109
 O    6.436337    3.577491   -0.664840
 O    6.398569    1.756450   -1.949368
 O    1.647105   -3.864651   -0.985605
 O   -3.928120   -1.744729    1.072909
 O    3.755845   -0.113725    1.260570
Cl   -9.984798   -0.836474   -0.728499
 H    8.360702   -0.741954    0.972783
 H    8.315157    0.926351    1.553805
 H    8.183324    0.206244   -1.407388
 H    9.679501    0.533651   -0.519108
 H    9.010761    2.530085   -1.695847
 H    8.754962    2.842908    0.026548
 H    3.766589   -3.585464   -1.590189
 H    7.507785   -1.683486   -0.863471
 H    6.210633   -3.416070   -1.949623
 H    2.049464   -1.155442    0.580536
 H    6.371366    1.751205    2.207975
 H    5.970998    0.107232    2.784762
 H    3.913189    1.403885    2.568516
 H   -0.547195   -4.520032    0.151780
 H   -2.895628   -4.021080    0.802678
 H   -3.962772    0.141943    1.920182
 H   -4.330131    0.072407    0.177787
 H   -6.368075    0.427446    1.629655
 H   -6.035732   -1.125522    2.408162
 H   -6.212611   -2.231554    0.148072
 H   -7.719236   -1.580101    0.796933
 H   -7.455575   -1.133894   -1.621194
 H   -5.981932   -0.213072   -1.311100
 H   -6.092257    2.067459   -0.575282
 H   -9.872093    3.923263    0.083324
 H  -10.991796    1.720584   -0.201063
 H   -2.041046    0.159294    0.542425
 H    0.243082   -0.331155   -0.085833
 H    4.725376    3.995557    0.429191
 H    5.435606    1.916354   -1.989913
