58 
6s4u_ligand_xtb.xyz
 C    3.043039   -0.795626    0.904574
 C    2.827882    0.437246    0.399542
 C    6.383889   -0.802161   -0.828726
 C    7.420019   -1.185324    0.222395
 C    6.237610   -1.865354   -1.913478
 C    1.775528    1.425036    0.533507
 C    1.306254    2.072650   -0.611440
 C    0.312114    3.026974   -0.515012
 C   -0.223810    3.356725    0.721379
 C    0.258834    2.743382    1.865083
 N    2.284248   -1.608777    1.669303
 C    0.861525   -1.470115    1.852856
 C    0.080432   -1.523225    0.531562
 C   -1.287392   -0.862716    0.669922
 C   -2.006052   -0.762810   -0.680924
 C   -3.221683    1.427971   -0.422796
 C   -5.524556    0.050210   -0.308593
 S    4.187467    0.828370   -0.672611
 N    5.095148   -0.544697   -0.200499
 C    4.366394   -1.408462    0.522394
 O    4.664227   -2.535641    0.865427
 O    3.860736    0.673258   -2.059932
 O    4.902055    2.007206   -0.302200
 C    1.258161    1.790571    1.777435
 C   -3.262750    0.038576   -0.534692
 C   -4.402511    2.128825   -0.249580
 C   -5.596833    1.421905   -0.186750
 N   -4.409307   -0.631522   -0.478533
 S   -7.030833   -0.942222   -0.182207
 N   -6.642139   -2.399817   -0.878693
 O   -7.278581   -1.172718    1.207633
 O   -8.048410   -0.328209   -0.979447
 H    6.648858    0.159403   -1.283656
 H    7.501935   -0.402591    0.972306
 H    7.127786   -2.112350    0.708452
 H    8.387528   -1.321809   -0.252411
 H    5.939991   -2.810278   -1.465301
 H    5.482158   -1.555736   -2.631900
 H    7.184188   -1.999829   -2.429344
 H    1.731567    1.812693   -1.568732
 H   -0.045121    3.519451   -1.407701
 H   -1.000314    4.103619    0.795835
 H   -0.136208    3.017400    2.832182
 H    2.696870   -2.531266    1.765254
 H    0.662261   -0.508209    2.333076
 H    0.532964   -2.262635    2.526444
 H   -0.029206   -2.557352    0.201615
 H    0.651964   -0.987513   -0.228558
 H   -1.153315    0.144209    1.071842
 H   -1.908917   -1.424084    1.369501
 H   -2.255980   -1.759446   -1.043685
 H   -1.343798   -0.275785   -1.399261
 H   -2.273036    1.940494   -0.474034
 H    1.673353    1.356142    2.674599
 H   -4.396094    3.205301   -0.164548
 H   -6.555215    1.895114   -0.057476
 H   -5.854248   -2.826378   -0.419117
 H   -6.508540   -2.320080   -1.873139
