49 
6s55_ligand_dft.xyz
 C    5.538946   -0.630512    0.029362
 C    4.510735   -1.161451   -0.965947
 C    2.993289   -1.754598    0.901364
 C   -0.387818   -0.075929   -0.107322
 C   -1.231866    0.823672    0.548520
 C    3.823983   -1.939225    3.266738
 C    3.986171   -1.214251    1.933169
 C    5.411923   -1.330431    1.383291
 N    3.177963   -1.055414   -0.369125
 S    1.858426   -0.942199   -1.359872
 O    2.306469   -0.410476   -2.634728
 O    1.067071   -2.165541   -1.319610
 C    0.890244    0.300541   -0.496054
 N   -2.506202    0.355747    0.898498
 C   -3.553542    1.072260    1.405306
 O   -3.516332    2.242563    1.734255
 C   -4.838624    0.245701    1.572777
 N   -5.304441   -0.391463    0.354367
 C   -6.407198    0.036059   -0.368919
 O   -7.092015    0.998033   -0.132217
 C   -6.578423   -0.972160   -1.503473
 N   -5.552445   -1.947031   -1.208577
 C   -4.769158   -1.579312   -0.161741
 O   -3.780195   -2.144843    0.271913
 C   -0.774718    2.116391    0.815044
 C    0.506174    2.485627    0.421268
 C    1.346114    1.594455   -0.234854
Br    3.064069    2.200068   -0.734164
 H    6.542748   -0.768253   -0.387324
 H    5.371829    0.445273    0.154463
 H    4.517775   -0.578210   -1.887304
 H    4.730148   -2.210805   -1.218819
 H    3.131544   -2.839444    0.767214
 H    1.968045   -1.595524    1.248986
 H   -0.717464   -1.087134   -0.327637
 H    2.812408   -1.816272    3.669293
 H    4.013726   -3.013548    3.153358
 H    4.530704   -1.552103    4.008197
 H    3.757675   -0.148046    2.068912
 H    5.664356   -2.395907    1.272597
 H    6.125817   -0.908144    2.100103
 H   -2.686279   -0.631146    0.717522
 H   -5.620153    0.931816    1.899201
 H   -4.684492   -0.526455    2.333896
 H   -6.427825   -0.473349   -2.467023
 H   -7.586932   -1.394938   -1.475760
 H   -5.244210   -2.668378   -1.840386
 H   -1.417812    2.821741    1.322567
 H    0.859661    3.489854    0.627404
