49 
6s55_ligand_xtb.xyz
 C    5.660850   -0.603010   -0.018107
 C    4.553967   -1.123782   -0.929197
 C    3.114884   -1.549354    0.970174
 C   -0.401578   -0.145153   -0.058433
 C   -1.276975    0.767540    0.533338
 C    4.023934   -1.720286    3.307025
 C    4.171551   -1.036318    1.952661
 C    5.559866   -1.268311    1.352437
 N    3.273280   -0.878678   -0.298555
 S    1.925087   -0.938427   -1.272631
 O    2.266088   -0.434542   -2.567412
 O    1.272839   -2.215137   -1.195269
 C    0.857374    0.253185   -0.454229
 N   -2.537489    0.305773    0.898951
 C   -3.586687    1.026224    1.373349
 O   -3.576832    2.205412    1.631960
 C   -4.839125    0.156983    1.592867
 N   -5.352977   -0.428975    0.373973
 C   -6.523781   -0.030787   -0.225464
 O   -7.244890    0.851784    0.143953
 C   -6.704784   -0.956509   -1.423806
 N   -5.574030   -1.834314   -1.312181
 C   -4.775038   -1.523444   -0.274312
 O   -3.745408   -2.063826    0.061119
 C   -0.855289    2.084406    0.725641
 C    0.408254    2.476684    0.326789
 C    1.264575    1.561166   -0.268929
Br    2.977205    2.105881   -0.817328
 H    6.629624   -0.810554   -0.473406
 H    5.551751    0.477063    0.088026
 H    4.544201   -0.600014   -1.885388
 H    4.691575   -2.199498   -1.115786
 H    3.205737   -2.638794    0.848712
 H    2.106773   -1.333461    1.333778
 H   -0.687553   -1.172812   -0.226891
 H    3.038482   -1.532856    3.727016
 H    4.155470   -2.795496    3.206757
 H    4.771797   -1.346437    4.002032
 H    4.023199    0.041899    2.073384
 H    5.732300   -2.342776    1.251433
 H    6.323206   -0.865427    2.020194
 H   -2.701603   -0.685479    0.708922
 H   -5.627963    0.795145    1.999046
 H   -4.597797   -0.643210    2.299765
 H   -6.698938   -0.378721   -2.353846
 H   -7.658953   -1.487800   -1.352550
 H   -5.361655   -2.575022   -1.957653
 H   -1.523687    2.796494    1.180963
 H    0.732617    3.495167    0.473114
