58 
6s57_ligand_xtb.xyz
 C   -0.413440   -2.670170   -0.177581
 C    1.839222   -1.639482   -0.055651
 C    3.314970   -2.060085   -0.172955
 C    3.780546    2.428821   -0.216183
 C    6.115351    1.760215   -0.936690
 C   -4.708465   -2.753764   -0.005850
 C   -3.219166   -2.740966   -0.070231
 C   -2.473713   -3.913417   -0.154673
 C   -1.093144   -3.885036   -0.206349
 N    0.987428   -2.680999   -0.227679
 O    1.526044   -0.493529    0.168239
 N    4.131716   -0.890045   -0.015489
 C    4.588148   -0.468924    1.246010
 O    4.571318   -1.142855    2.241703
 N    5.077176    0.776748    1.071485
 C    4.827386    1.312324   -0.250081
 C    4.215385    0.099191   -0.954643
 O    3.883097    0.010489   -2.107330
 C   -1.146298   -1.489922   -0.107397
 C   -2.521466   -1.539388   -0.049368
 S   -3.440343    0.009458    0.054836
 O   -4.137167    0.013636    1.312665
 O   -4.218996    0.129952   -1.146549
 N   -2.284072    1.175864    0.069911
 C   -1.745079    1.621792    1.329249
 C   -1.823398    3.140343    1.525710
 C   -3.106057    3.749689    0.955593
 C   -2.967243    4.141783   -0.516929
 C   -2.995062    2.958506   -1.481337
 C   -1.971983    1.867103   -1.157494
 H    3.503148   -2.502753   -1.154668
 H    3.575006   -2.759414    0.626530
 H    2.871493    2.067587    0.260452
 H    4.160362    3.286840    0.334154
 H    3.543320    2.730598   -1.232472
 H    6.496127    2.667141   -0.473210
 H    6.871175    0.981845   -0.863945
 H    5.912498    1.953820   -1.986396
 H   -5.115930   -2.164087   -0.825225
 H   -5.095929   -3.768163   -0.055715
 H   -5.039407   -2.280438    0.917156
 H   -2.984501   -4.864623   -0.177730
 H   -0.537815   -4.810395   -0.268431
 H    1.397260   -3.594783   -0.366785
 H    5.376912    1.344124    1.845391
 H   -0.640766   -0.541508   -0.097375
 H   -0.700994    1.292630    1.430916
 H   -2.343721    1.117354    2.089317
 H   -0.961136    3.618820    1.056103
 H   -1.761026    3.336932    2.597475
 H   -3.351900    4.648010    1.526543
 H   -3.927417    3.040701    1.073575
 H   -2.034920    4.698461   -0.648673
 H   -3.787426    4.812915   -0.782606
 H   -2.809369    3.319972   -2.495200
 H   -3.979909    2.490557   -1.463805
 H   -1.986815    1.124615   -1.959660
 H   -0.961903    2.277707   -1.079414
