53 
6s7s_ligand_xtb.xyz
 O   -0.691672    0.406662   -1.610600
 C    2.483543    4.486911    1.903494
 C    1.519411    1.754546   -0.314936
 O    4.166610   -1.224921   -2.602261
 C   -0.801225    1.511083   -1.134302
 N   -4.083189    1.216356   -1.952969
 C   -2.124952    2.272120   -1.119107
 C   -3.259977    1.301834   -0.965964
 N   -5.096036    0.354361   -1.893412
 C   -5.390938   -0.520214   -0.870841
 C   -4.458265   -0.430725    0.258644
 C   -4.638661   -1.255292    1.369048
 C   -3.774326   -1.171455    2.437431
 N    2.559754   -2.370178   -1.112733
 C   -2.718402   -0.263316    2.406485
 C   -2.522912    0.551716    1.314462
 C   -3.389534    0.484446    0.217169
 S    3.900826   -1.369770   -1.203023
 O    4.947262   -1.863213   -0.361203
 C    1.740328   -2.363384    0.014507
 C    2.310505   -2.227524    1.276673
 C    1.502896   -2.227868    2.398702
 C    0.129816   -2.364449    2.277696
 C   -0.437360   -2.497709    1.021461
 C    0.359332   -2.492261   -0.107571
 C    3.302241    0.174507   -0.518631
 C    2.037638    0.600462   -0.876655
 C    2.314183    2.512019    0.574092
 O    1.727941    3.647367    1.058094
 C    3.588889    2.074127    0.899530
 C    4.077898    0.890062    0.364137
 N    0.223401    2.209196   -0.563219
 O   -6.348267   -1.263460   -0.947408
 H    2.747329    3.980585    2.836091
 H    3.391254    4.839353    1.406461
 H    1.838987    5.336292    2.123706
 H   -2.244657    2.774468   -2.081129
 H   -2.144709    3.016968   -0.321857
 H   -5.693159    0.342126   -2.713739
 H   -5.467360   -1.946782    1.359013
 H   -3.912008   -1.807607    3.298678
 H    2.079093   -2.433403   -1.997171
 H   -2.043234   -0.197852    3.246463
 H   -1.692737    1.240723    1.307833
 H    3.381429   -2.138102    1.359612
 H    1.952264   -2.127345    3.375777
 H   -0.494789   -2.376081    3.158069
 H   -1.507272   -2.600489    0.916868
 H   -0.086340   -2.582555   -1.086715
 H    1.445034    0.036497   -1.574627
 H    4.205626    2.636392    1.581360
 H    5.053441    0.517621    0.629778
 H    0.035335    3.120062   -0.165915
