60 
6s7z_ligand_dft.xyz
 O    0.425983    0.331242   -2.381349
 C   -0.782915   -4.791567    0.934189
 C   -1.110264   -1.678240   -0.920993
 O   -4.247599    1.181518   -2.026320
 C    0.876318   -0.762027   -2.105078
 N    3.860818    0.686009   -2.217449
 C    2.337064   -1.119976   -2.393064
 C    3.284494   -0.276575   -1.575077
 N    4.715588    1.480900   -1.541923
 C    5.117981    1.389077   -0.224106
 C    4.464092    0.288540    0.501300
 C    4.771861    0.087638    1.850305
 C    4.154583   -0.932591    2.550496
 N   -3.672812    1.996434    0.261901
 C    3.220123   -1.751534    1.904617
 C    2.914339   -1.559267    0.569708
 C    3.537595   -0.534383   -0.161928
 S   -4.314334    0.754684   -0.639506
 O   -5.570685    0.396713   -0.000060
 C   -3.741506    1.926236    1.721256
 C   -2.559335    1.166964    2.330059
 C   -1.241149    1.502537    1.663820
 C   -0.040960    1.091231    2.248750
 C    1.181334    1.361299    1.647823
 C    1.216965    2.045645    0.435277
 C    0.030640    2.452243   -0.157968
 C   -1.198899    2.188547    0.445884
 C   -2.471026    2.668897   -0.224627
 C   -3.226003   -0.648996   -0.464387
 C   -2.003417   -0.640202   -1.136578
 C   -1.460549   -2.729107   -0.046047
 O   -0.503953   -3.687233    0.097112
 C   -2.695217   -2.737782    0.588961
 C   -3.584484   -1.684025    0.383153
 N    0.157186   -1.767780   -1.511855
 O    5.932171    2.166030    0.246287
 H   -0.958914   -4.469087    1.967211
 H   -1.651531   -5.353439    0.571781
 H    0.101614   -5.427741    0.897720
 H    2.521660   -0.888092   -3.443936
 H    2.538140   -2.185935   -2.236326
 H    5.136100    2.213443   -2.097600
 H    5.494362    0.749144    2.316360
 H    4.387271   -1.095044    3.598105
 H    2.723961   -2.544019    2.456447
 H    2.168737   -2.192748    0.106001
 H   -4.696976    1.482852    2.004677
 H   -3.743843    2.965116    2.072177
 H   -2.733583    0.087181    2.248010
 H   -2.504436    1.390377    3.402295
 H   -0.071679    0.552982    3.193904
 H    2.103707    1.038241    2.120592
 H    2.164271    2.251349   -0.054247
 H    0.055446    2.957128   -1.119652
 H   -2.608904    3.742373   -0.036650
 H   -2.416230    2.549994   -1.308888
 H   -1.737399    0.158509   -1.814919
 H   -2.975632   -3.550890    1.247874
 H   -4.550914   -1.668795    0.874306
 H    0.621346   -2.648438   -1.347710
