82 
6s90_ligand_xtb.xyz
 C    2.816427    1.325629    0.316843
 C    3.671259    0.817300    1.307777
 C    3.288569    0.802499    2.643265
 O    6.001062   -0.178237    2.861910
 C   -1.581650    1.068589    0.563241
 C   -0.783952    1.936312   -0.181529
 C   -4.082851    0.577533    0.475865
 C   -5.302214    0.971782   -0.109145
 C   -6.471215    0.331154    0.190827
 C   -6.491697   -0.739236    1.104659
 C   -5.295656   -1.076267    1.756068
 C   -4.119765   -0.443604    1.442391
 C   -7.707088   -1.464335    1.409081
 C   -9.915998   -2.132121    0.568351
 C  -10.906001   -1.301701   -0.248351
 C  -11.518732   -0.697587   -2.547515
 C   -9.160108   -0.948850   -1.926617
 C   -8.205874   -1.768574   -1.054181
 C    5.964500   -0.127651    1.647179
 C    7.131957   -0.554621    0.814347
 C    8.409929   -0.343673    1.315770
 C    9.527951   -0.719466    0.594654
 C    9.408800   -1.338234   -0.644535
 C    8.122215   -1.573080   -1.125694
 C    7.001225   -1.187137   -0.417787
 C   10.607659   -1.774652   -1.471712
 C   10.547163   -1.091643   -2.845481
 C   10.562441   -3.299420   -1.645720
 C   11.941788   -1.406792   -0.816719
 N    4.919687    0.321041    0.902735
 C    2.047736    1.294238    3.004058
 C    1.188251    1.780545    2.041351
 C    1.556974    1.796817    0.695617
 C    3.252826    1.335452   -1.121986
 C    0.561957    2.312922   -0.264030
 C   -1.700168    2.570616   -1.124528
 N   -1.272297    3.458616   -2.036255
 C    0.014699    3.683876   -2.013176
 N    0.945900    3.174414   -1.200407
 C   -2.886165    1.235976    0.062054
 N   -2.945177    2.149347   -0.955228
 O   -8.051001   -1.901996    2.490664
 N   -8.596438   -1.626837    0.317484
 N  -10.556790   -1.407745   -1.692559
 H    3.966019    0.415447    3.385137
 H   -1.268753    0.405427    1.348378
 H   -5.265570    1.798539   -0.800834
 H   -7.402978    0.692167   -0.228165
 H   -5.320047   -1.870378    2.488390
 H   -3.206950   -0.738571    1.936388
 H  -10.009127   -3.197350    0.299878
 H  -10.107173   -2.034650    1.640069
 H  -10.834605   -0.252589    0.042973
 H  -11.929538   -1.650948   -0.103335
 H  -12.525064   -1.079479   -2.384117
 H  -11.502558    0.364538   -2.308537
 H  -11.257607   -0.824080   -3.596794
 H   -8.917641   -1.061908   -2.984101
 H   -9.097100    0.105762   -1.653588
 H   -7.183091   -1.412946   -1.185773
 H   -8.250255   -2.827154   -1.365469
 H    8.513115    0.125595    2.282801
 H   10.498471   -0.523782    1.020453
 H    7.982785   -2.070755   -2.073996
 H    6.023014   -1.414225   -0.819687
 H    9.651715   -1.374254   -3.391780
 H   10.547769   -0.009963   -2.727818
 H   11.412006   -1.374425   -3.442157
 H   10.582635   -3.788831   -0.674167
 H    9.660881   -3.612128   -2.165264
 H   11.422313   -3.636756   -2.220881
 H   12.025587   -0.331310   -0.678131
 H   12.055842   -1.900969    0.145217
 H   12.760712   -1.728040   -1.457564
 H    5.071299    0.361062   -0.094214
 H    1.754650    1.293816    4.043947
 H    0.223512    2.175011    2.323481
 H    4.187354    1.885739   -1.241951
 H    3.385916    0.319204   -1.500748
 H    2.502493    1.838273   -1.723665
 H    0.393058    4.388149   -2.748442
 H  -10.578907   -2.408788   -1.925069
