51 
6s9b_ligand_xtb.xyz
 C    3.568614   -2.948861    0.440667
 C    4.251216   -1.750369    0.348527
 C    3.548258   -0.598915    0.006058
 C    2.177522   -0.678523   -0.229060
 C    1.502663   -1.889024   -0.121907
 C    2.210541   -3.041234    0.208070
 C    0.032766   -2.060288   -0.364736
 O   -0.442458   -3.105805   -0.724869
 N   -0.698707   -0.917464   -0.138497
 C   -2.077311   -0.843307   -0.131842
 C   -6.508925   -1.111841    0.010150
 C   -6.413513    0.229154   -0.360201
 C   -5.189290    0.845118   -0.538365
 C   -4.057637    0.074033   -0.334588
 C   -1.924543    2.568460    0.420144
 C   -0.651927    2.217435    1.194656
 C    4.392272    3.052083    0.266029
 C    5.487195    0.789326   -0.738201
 F    4.254432   -4.057298    0.772205
 N   -2.886575   -1.816575    0.143692
 C   -4.146746   -1.290641    0.025868
 C   -5.386358   -1.890202    0.204732
 N   -2.708975    0.345111   -0.432317
 C   -2.138482    1.611473   -0.793866
 C   -1.837942    4.005758   -0.109027
 O   -2.976924    2.434265    1.347828
 C    4.244817    0.689008   -0.108284
 C    3.695909    1.864233    0.401998
 C    5.622834    3.024462   -0.374031
 N    6.154188    1.918494   -0.865416
 H    5.309685   -1.716851    0.552733
 H    1.665859    0.218207   -0.548718
 H    1.694748   -3.985612    0.276960
 H   -0.207817   -0.076622    0.123704
 H   -7.488314   -1.547178    0.140868
 H   -7.317395    0.800025   -0.512972
 H   -5.134534    1.882430   -0.840821
 H   -0.762439    1.242297    1.663055
 H    0.216827    2.239606    0.540424
 H   -0.508896    2.944836    1.989580
 H    3.994747    3.976013    0.656639
 H    5.955763   -0.083324   -1.174100
 H   -5.452521   -2.929383    0.481256
 H   -1.189445    1.453278   -1.313912
 H   -2.827993    2.087120   -1.499395
 H   -1.682298    4.691646    0.719709
 H   -1.013508    4.106241   -0.809880
 H   -2.760350    4.285547   -0.615077
 H   -3.819740    2.626667    0.921447
 H    2.749355    1.839323    0.924394
 H    6.212332    3.922743   -0.498382
