77 
6s9w_ligand_xtb.xyz
 C   -6.447811   -3.146111   -0.403335
 C   -7.675394   -2.523470   -0.957762
 C   -6.692703   -0.318857   -0.580399
 C   -5.552925   -0.870808   -0.068432
 C   -6.977992    1.123104   -0.640737
 C   -4.390866   -0.133020    0.386717
 C   -6.793372    1.934227    0.477300
 C   -7.102148    3.279874    0.418592
 C   -7.601970    3.832056   -0.750306
 C   -7.798018    3.030337   -1.862026
 C   -7.494341    1.681905   -1.807813
 C   -3.639666   -0.598129    1.475951
 C   -2.536611    0.093976    1.923200
 C   -2.131718    1.269779    1.294084
 C   -2.856928    1.726648    0.196405
 C   -3.964235    1.040040   -0.250710
 C   -0.919979    1.999893    1.797718
 C    0.614738    1.163923    0.055284
 C    1.711729    0.146107   -0.207412
 C    2.988948    0.462158    0.589777
 C    2.643529    0.694458    2.070655
 C    1.509467    1.692497    2.239627
 C    3.574234   -1.924043    0.906885
 C    5.688551   -1.956422    0.134955
 C    5.210143   -0.641180    0.014644
 C    6.965295   -2.286723   -0.271574
 C    7.764639   -1.278418   -0.782997
 C    7.312132    0.041233   -0.873034
 C    6.007520    0.365503   -0.486429
 C    9.429655    1.397131   -1.224181
 C   10.287643    0.545746   -0.319998
 C   11.287981   -0.262394   -1.148947
 C   -8.693707   -3.281474   -1.373766
 N   -7.695956   -1.137566   -1.013906
 N   -5.491957   -2.267505    0.019258
 N    0.317811    1.215668    1.504805
 N    3.907319   -0.644368    0.484170
 N    4.664121   -2.708502    0.679015
 N    8.103979    1.065227   -1.389186
 O    9.845907    2.382971   -1.787077
 O    2.504217   -2.245485    1.388390
 O   -6.272433   -4.341590   -0.314516
 H   -6.419848    1.500308    1.392828
 H   -6.962198    3.899335    1.291552
 H   -7.844160    4.882791   -0.792002
 H   -8.191273    3.454303   -2.773359
 H   -7.635449    1.062254   -2.682101
 H   -3.950614   -1.485919    2.005010
 H   -1.999040   -0.271405    2.788190
 H   -2.552209    2.631437   -0.309220
 H   -4.502080    1.403234   -1.110922
 H   -0.980920    2.131577    2.881028
 H   -0.825618    2.980807    1.328831
 H   -0.297644    0.885620   -0.476882
 H    0.917429    2.163992   -0.264504
 H    1.939798    0.123204   -1.272992
 H    1.369687   -0.849684    0.083363
 H    3.481134    1.347694    0.175472
 H    3.525804    1.051224    2.602367
 H    2.356767   -0.266984    2.503090
 H    1.782914    2.675026    1.847569
 H    1.260988    1.798015    3.297658
 H    7.329058   -3.298988   -0.206556
 H    8.747201   -1.526463   -1.144509
 H    5.656564    1.381525   -0.581886
 H    9.680905   -0.099755    0.313873
 H   10.847694    1.235214    0.315344
 H   10.782209   -0.952690   -1.821093
 H   11.892431    0.411991   -1.749685
 H   11.943610   -0.831295   -0.494986
 H   -9.596761   -2.860542   -1.777931
 H   -8.617280   -4.349515   -1.306431
 H   -8.556374   -0.708160   -1.324012
 H   -4.632137   -2.689272    0.342885
 H    0.139831    0.245783    1.801830
 H    4.696694   -3.692303    0.886985
 H    7.599225    1.792511   -1.883889
