76 
6s9w_ligand_dft.xyz
 C  -17.141101  -16.785964    7.831854
 C  -17.724502  -15.856388    6.848612
 C  -16.899132  -13.987874    7.974906
 C  -16.256007  -14.764791    8.901999
 C  -16.906403  -12.502529    7.989294
 C  -15.371184  -14.301767    9.996106
 C  -17.064237  -11.773535    9.172402
 C  -17.074888  -10.383450    9.150468
 C  -16.938231   -9.700286    7.945215
 C  -16.801556  -10.418020    6.759852
 C  -16.790544  -11.807995    6.781197
 C  -15.546414  -14.782322   11.298207
 C  -14.702696  -14.371191   12.322351
 C  -13.661447  -13.477724   12.067349
 C  -13.480352  -13.011095   10.765225
 C  -14.324421  -13.413293    9.738654
 C  -12.771975  -12.998959   13.194943
 C  -11.609162  -15.070740   13.601661
 C  -11.459950  -16.243398   14.565640
 C  -10.926875  -15.748491   15.911744
 C  -11.807019  -14.618018   16.449357
 C  -11.943012  -13.515054   15.402767
 C  -11.842911  -17.602990   17.339626
 C   -9.911179  -18.318761   18.329236
 C   -9.594843  -17.253941   17.467974
 C   -8.934197  -18.959661   19.069266
 C   -7.617061  -18.523297   18.925310
 C   -7.299193  -17.449618   18.089987
 C   -8.292544  -16.799125   17.348318
 C   -5.067446  -16.607124   18.919117
 C   -5.577901  -16.418438   20.337686
 C   -4.853064  -17.353903   21.308664
 C  -18.478456  -16.469831    5.711444
 N  -17.595637  -14.570646    6.936901
 N  -16.409100  -16.128637    8.804291
 N  -12.482559  -14.045476   14.159186
 N  -10.778825  -16.832464   16.876065
 N  -11.279024  -18.505718   18.229271
 N   -5.955039  -17.016941   17.950526
 O   -3.905963  -16.380001   18.625771
 O  -13.017254  -17.510986   17.036084
 O  -17.244459  -18.003179    7.808985
 H  -17.186819  -12.296857   10.115536
 H  -17.201236   -9.833172   10.078214
 H  -16.948214   -8.614437    7.928629
 H  -16.704674   -9.893700    5.813638
 H  -16.700543  -12.371665    5.858101
 H  -16.364918  -15.463553   11.518251
 H  -14.834527  -14.747464   13.332218
 H  -12.663712  -12.327209   10.547838
 H  -14.174126  -13.040509    8.730600
 H  -11.848797  -12.554181   12.773970
 H  -13.289304  -12.190246   13.727068
 H  -12.039342  -15.422570   12.659450
 H  -10.609754  -14.648261   13.364491
 H  -12.433365  -16.716946   14.721150
 H  -10.776795  -16.989351   14.144906
 H   -9.917728  -15.349804   15.752465
 H  -11.371166  -14.210306   17.368104
 H  -12.795538  -15.021741   16.685719
 H  -10.956868  -13.031526   15.239397
 H  -12.621733  -12.740639   15.775571
 H   -9.176438  -19.787492   19.727340
 H   -6.819312  -19.025140   19.462496
 H   -8.028491  -15.958392   16.715767
 H   -5.346774  -15.380046   20.598296
 H   -6.660676  -16.544659   20.407016
 H   -5.141509  -17.136467   22.341145
 H   -5.092607  -18.403579   21.105312
 H   -3.771614  -17.228293   21.212056
 H  -18.853368  -15.686814    5.050692
 H  -17.833614  -17.154957    5.150538
 H  -19.313599  -17.069699    6.088756
 H  -15.913755  -16.727539    9.453991
 H  -11.837938  -19.191567   18.708921
 H   -5.542383  -17.046598   17.026847
