80 
6sd9_ligand_dft.xyz
 C   -4.447259    3.041554   30.118437
 C   -5.248568    4.155697   30.546956
 C   -4.687960    5.399742   30.665830
 C   -3.313596    5.612472   30.371458
 C   -2.532923    4.511239   29.949503
 C   -3.121664    3.224021   29.829064
 N   -2.817607    6.871896   30.514610
 C   -1.544131    7.044458   30.239600
 C   -0.664028    6.031877   29.808111
 C   -1.168271    4.761112   29.665804
 O   -5.115085    1.868714   30.039729
 C   -4.384255    0.734880   29.632642
 O   -6.536538    3.849273   30.804044
 O   -0.447679    3.684585   29.235912
 C    0.913635    3.819331   29.093237
 C    1.486217    3.934026   27.834516
 C    2.865512    4.001521   27.697775
 C    3.693647    3.960728   28.826380
 C    3.125075    3.847891   30.099288
 C    1.747404    3.776778   30.206268
 F    1.191358    3.672956   31.417215
 N    5.076377    4.037931   28.601721
 C   -7.410805    4.897128   31.186307
 C   -8.793536    4.296970   31.363774
 C   -9.333486    3.694126   30.067688
 N  -10.737894    3.315784   30.160679
 C  -11.289861    3.025355   28.842972
 C  -12.765901    2.671693   28.961785
 O  -12.961119    1.563889   29.814221
 C  -12.436303    1.831245   31.096414
 C  -10.952313    2.168440   31.035338
 C    6.074043    4.019320   29.520601
 C    7.499994    4.121697   28.985164
 C    7.780107    4.237558   27.504297
 N    9.095557    4.322154   27.152830
 O    5.906746    3.927865   30.729319
 O    6.884361    4.254894   26.662372
 C    9.666508    4.438555   25.863618
 C    8.924611    4.474569   24.679564
 C    9.581444    4.590228   23.458564
 C   10.963237    4.668489   23.424073
 C   11.717705    4.634377   24.586371
 C   11.061696    4.519287   25.803489
 F   11.587923    4.779695   22.242238
 C    8.502402    3.363813   29.858105
 C    8.434400    4.839281   29.961515
 H   -5.258054    6.262064   30.988104
 H   -2.496748    2.400682   29.508383
 H   -1.158902    8.055907   30.358354
 H    0.373627    6.260713   29.596489
 H   -5.091348   -0.095300   29.635874
 H   -3.976239    0.863087   28.621572
 H   -3.562414    0.517652   30.327099
 H    0.836396    3.965704   26.966570
 H    3.304936    4.088587   26.708525
 H    3.740304    3.813145   30.986588
 H    5.391894    4.119258   27.635703
 H   -7.060703    5.353700   32.122208
 H   -7.417828    5.675609   30.409123
 H   -8.738127    3.542778   32.156013
 H   -9.477825    5.082941   31.703468
 H   -9.251771    4.450174   29.275771
 H   -8.698548    2.842993   29.762145
 H  -11.177984    3.910824   28.206194
 H  -10.756913    2.186675   28.353425
 H  -13.318758    3.545642   29.343296
 H  -13.175134    2.393292   27.987019
 H  -12.978923    2.671233   31.560191
 H  -12.600534    0.931892   31.695816
 H  -10.390573    1.281481   30.681607
 H  -10.603685    2.404069   32.045807
 H    9.774190    4.302371   27.897836
 H    7.847275    4.413086   24.715654
 H    9.020452    4.619666   22.531103
 H   12.798613    4.697395   24.533146
 H   11.648867    4.492518   26.718677
 H    8.057645    2.792951   30.665195
 H    9.337365    2.881211   29.359041
 H    9.218611    5.461250   29.540457
 H    7.943659    5.248652   30.837152
