79 
6sd9_ligand_xtb.xyz
 C   -5.056318    0.151833    0.039906
 C   -5.894120   -0.972333    0.281866
 C   -5.377827   -2.154585    0.721939
 C   -3.986403   -2.293156    0.919588
 C   -3.148423   -1.182585    0.656051
 C   -3.705598    0.035524    0.221330
 N   -3.519844   -3.480484    1.341427
 C   -2.230796   -3.606920    1.506122
 C   -1.298202   -2.588622    1.275974
 C   -1.750319   -1.361282    0.841618
 O   -5.719410    1.290066   -0.355633
 C   -4.917377    2.399298   -0.718353
 O   -7.234811   -0.741668    0.025158
 O   -0.965272   -0.280889    0.613886
 C    0.390133   -0.459863    0.411422
 C    1.292566    0.311790    1.132665
 C    2.647489    0.203678    0.901516
 C    3.141183   -0.687127   -0.054920
 C    2.243843   -1.457526   -0.793149
 C    0.892133   -1.327219   -0.556870
 F    0.026970   -2.060985   -1.290299
 N    4.513810   -0.761468   -0.220785
 C   -8.183998   -1.635243    0.577991
 C   -9.569025   -1.043653    0.320399
 C   -9.677108    0.391443    0.829743
 N   -8.870250    1.357371    0.037057
 C   -8.669806    2.629607    0.787091
 C   -8.554271    3.824127   -0.178543
 O   -7.828184    3.460864   -1.318415
 C   -8.487824    2.494782   -2.112006
 C   -9.452613    1.630552   -1.292143
 C    5.217946   -1.538510   -1.084545
 C    6.721757   -1.384800   -1.010723
 C    7.352041   -0.243533   -0.265822
 N    8.664413   -0.069604   -0.551302
 O    4.737975   -2.326681   -1.873697
 O    6.730655    0.455504    0.524073
 C    9.568764    0.873844   -0.043977
 C   10.885166    0.807131   -0.498732
 C   11.831642    1.703510   -0.044332
 C   11.449193    2.669317    0.870329
 C   10.149299    2.754364    1.333801
 C    9.205894    1.853998    0.875164
 F   12.366956    3.546748    1.317984
 C    7.485271   -2.700872   -1.107384
 C    7.456106   -2.006565   -2.195011
 H   -5.988550   -3.019442    0.917324
 H   -3.033588    0.858181    0.043441
 H   -1.892935   -4.576204    1.846577
 H   -0.247579   -2.770482    1.439860
 H   -4.355705    2.776202    0.140567
 H   -4.222683    2.135468   -1.518779
 H   -5.608438    3.161824   -1.070871
 H    0.911378    0.996271    1.873719
 H    3.338858    0.809295    1.466862
 H    2.593618   -2.142886   -1.547166
 H    5.079340   -0.125392    0.350165
 H   -8.003600   -1.747974    1.654788
 H   -8.108246   -2.621316    0.107149
 H  -10.306700   -1.651805    0.843286
 H   -9.794470   -1.098483   -0.744194
 H   -9.315973    0.425080    1.860356
 H  -10.718322    0.723610    0.813043
 H   -7.936120    0.897961   -0.113060
 H   -7.753996    2.534297    1.371191
 H   -9.513262    2.791310    1.460814
 H   -7.994873    4.630074    0.298471
 H   -9.546578    4.209367   -0.448680
 H   -7.695418    1.882416   -2.550760
 H   -9.044923    2.985541   -2.921587
 H  -10.412828    2.132984   -1.149118
 H   -9.626069    0.695752   -1.822934
 H    9.064295   -0.714300   -1.223025
 H   11.169391    0.047478   -1.212853
 H   12.852556    1.661723   -0.388033
 H    9.883337    3.518944    2.045794
 H    8.190601    1.908595    1.228109
 H    7.734411   -3.554435   -0.529402
 H    7.650813   -1.852212   -3.226015
