79 
6sdc_ligand_xtb.xyz
 C   -5.133580    0.083227    0.109914
 C   -5.751579    1.245434    0.649588
 C   -5.009374    2.245181    1.204885
 C   -3.604421    2.127779    1.283474
 C   -2.989434    0.964483    0.761129
 C   -3.773205   -0.045937    0.171575
 N   -2.913796    3.124205    1.863994
 C   -1.619065    2.990482    1.965611
 C   -0.893133    1.890385    1.492906
 C   -1.573311    0.866299    0.868528
 O   -6.001788   -0.822128   -0.454045
 C   -5.447901   -2.054610   -0.880821
 O   -7.132606    1.245247    0.558539
 O   -1.019650   -0.257797    0.367303
 C    0.355357   -0.408457    0.344620
 C    1.198403    0.459693   -0.339000
 C    2.556647    0.224723   -0.377858
 C    3.110415   -0.887621    0.261786
 C    2.270727   -1.772834    0.936220
 C    0.915424   -1.521052    0.967320
 F    0.102370   -2.372796    1.619594
 N    4.481815   -1.059791    0.184497
 C   -7.805041    2.489563    0.632145
 C   -9.262137    2.245223    0.241363
 C   -9.381656    1.519619   -1.096864
 N   -8.925589    0.104940   -1.044692
 C   -8.703343   -0.435909   -2.415873
 C   -8.997908   -1.946836   -2.465607
 O   -8.540227   -2.571705   -1.299952
 C   -9.236305   -2.162442   -0.139478
 C   -9.849721   -0.766226   -0.291126
 C    5.240820   -2.030149    0.758431
 C    6.726892   -1.930311    0.492278
 C    7.328859   -0.704323   -0.131765
 N    8.677932   -0.652148   -0.026041
 O    4.818703   -2.941436    1.440514
 O    6.656246    0.157796   -0.682243
 C    9.573438    0.319069   -0.494841
 C   10.927163    0.122952   -0.224469
 C   11.868756    1.036650   -0.653370
 C   11.443783    2.150119   -1.357014
 C   10.106778    2.363651   -1.637571
 C    9.168153    1.445288   -1.205079
 F   12.356339    3.045929   -1.777917
 C    7.571105   -2.784318    1.434240
 C    7.403298   -3.275870    0.252828
 H   -5.451888    3.135320    1.618607
 H   -3.263882   -0.910806   -0.218637
 H   -1.099721    3.803759    2.454114
 H    0.175726    1.849686    1.629054
 H   -4.766987   -1.908582   -1.723583
 H   -4.915339   -2.548260   -0.065464
 H   -6.292083   -2.668161   -1.187803
 H    0.777736    1.316166   -0.844206
 H    3.203410    0.905665   -0.909481
 H    2.669106   -2.640774    1.434706
 H    5.006642   -0.348751   -0.334645
 H   -7.333351    3.205342   -0.053162
 H   -7.757487    2.897104    1.647798
 H   -9.761422    3.209958    0.154592
 H   -9.762384    1.688819    1.033180
 H   -8.764262    2.038907   -1.833713
 H  -10.419353    1.529239   -1.440450
 H   -8.008654    0.114417   -0.529670
 H   -7.662474   -0.252248   -2.683771
 H   -9.355514    0.081447   -3.121780
 H   -8.450108   -2.400962   -3.292595
 H  -10.068763   -2.134650   -2.620693
 H   -8.499014   -2.176093    0.667910
 H  -10.032712   -2.880741    0.097759
 H  -10.800620   -0.805169   -0.828821
 H  -10.028181   -0.352158    0.699933
 H    9.116379   -1.422414    0.465228
 H   11.244144   -0.751608    0.325597
 H   12.918105    0.896199   -0.450093
 H    9.808773    3.240817   -2.188853
 H    8.124070    1.599060   -1.416283
 H    7.914362   -2.822124    2.437019
 H    7.509963   -4.024435   -0.490747
