41 
6sde_ligand_xtb.xyz
 C   -2.173853   -1.608446    1.149700
 C   -2.614164   -0.289017    0.555603
 C   -3.967749   -0.096178    0.187251
 C   -4.388180    1.092510   -0.337780
 C   -3.461439    2.128812   -0.515624
 N   -2.130825    1.901295   -0.148498
 C   -1.718537    0.726651    0.375941
 C   -1.456702    3.047643   -0.425957
 C   -2.390393    3.915212   -0.941845
 N   -3.610364    3.350059   -0.994032
 C   -1.581777   -1.437782    2.548816
 N   -1.216136   -2.270551    0.290372
 C    0.057961   -1.948575   -0.022895
 C    0.475066   -2.990802   -0.898737
 N   -0.569684   -3.845244   -1.038740
 N   -1.536337   -3.410111   -0.344338
 N    1.699442   -3.010186   -1.423749
 N    0.825239   -0.927553    0.336059
 C    2.040742   -0.949014   -0.208622
 C    2.453591   -1.997821   -1.073794
 C    2.910936    0.157451    0.110891
 C    2.626628    1.233925    0.982148
 N    3.629798    2.079879    1.026582
 N    4.564703    1.596355    0.212674
 C    4.185524    0.444697   -0.361169
 C    5.801667    2.299204    0.031339
 H   -3.031426   -2.288857    1.185412
 H   -4.666624   -0.906272    0.326567
 H   -5.411531    1.264781   -0.625417
 H   -0.669528    0.635003    0.616013
 H   -0.407373    3.158379   -0.244373
 H   -2.239794    4.922381   -1.278041
 H   -2.297253   -0.928040    3.188190
 H   -0.667995   -0.851675    2.502948
 H   -1.354044   -2.409868    2.980638
 H    3.451040   -1.993779   -1.489110
 H    1.743420    1.397438    1.564655
 H    4.821392   -0.076024   -1.047934
 H    5.932326    2.585207   -1.013759
 H    6.645569    1.679359    0.338740
 H    5.765034    3.193554    0.649573
