72 
6sfk_ligand_xtb.xyz
 N    3.932900    2.620011    0.724194
 C    0.276408   -4.764842    0.578190
 O   -3.797142   -3.690419    1.004672
 N   -3.353649   -1.755524   -0.067373
 C   -1.522353   -3.179084    0.527673
 N   -5.799360   -3.234113   -0.896994
 C   -0.593740   -2.145702    0.536414
 C    0.766839   -2.420072    0.543219
 C   -2.986178   -2.911128    0.517990
 C   -4.717989   -1.256686   -0.072945
 C   -5.515892   -1.955499   -1.197672
 O   -5.846152   -1.405941   -2.224415
 C   -4.710827    0.259091   -0.244290
 C   -6.066209    0.869691    0.105121
 C   -6.137692    2.376053   -0.166060
 C   -5.248529    3.179963    0.784605
 C   -5.347214    4.674833    0.492179
 C   -6.789921    5.153299    0.611606
 C   -7.685685    4.359180   -0.333028
 C   -7.582243    2.865796   -0.038735
 C   -1.078930   -4.495474    0.563483
 C    1.220098   -3.747824    0.561436
 C    2.684012   -4.074263    0.557841
 N    1.712356   -1.382876    0.545742
 C    1.507349   -0.071747    0.241604
 O    0.435674    0.425512   -0.034232
 C    2.727890    0.769952    0.319012
 C    4.052548    0.545135   -0.044958
 C    4.644763   -0.625219   -0.743744
 F    5.138677   -1.551280    0.117178
 F    5.644658   -0.311419   -1.573190
 F    3.733930   -1.280806   -1.479698
 N    4.735723    1.691844    0.227372
 C    2.730077    2.099595    0.785500
 C    6.108745    1.976029    0.071351
 C    6.467598    3.218082   -0.437178
 C    7.805518    3.532510   -0.582236
 C    8.779132    2.615728   -0.219986
 C    8.414844    1.387385    0.305166
 C    7.079225    1.062790    0.461887
 H    0.613972   -5.790669    0.599264
 H   -2.669657   -1.203777   -0.560963
 H   -6.243848   -3.810974   -1.592933
 H   -5.359735   -3.668644   -0.091469
 H   -0.911763   -1.117522    0.559547
 H   -5.171777   -1.540251    0.884915
 H   -4.475511    0.486482   -1.286134
 H   -3.931440    0.679024    0.393873
 H   -6.827756    0.372336   -0.498355
 H   -6.293054    0.679436    1.157387
 H   -5.802856    2.555597   -1.193503
 H   -5.562085    2.991176    1.814506
 H   -4.208547    2.865163    0.686384
 H   -4.985334    4.868166   -0.520416
 H   -4.711158    5.229982    1.185573
 H   -6.851266    6.218706    0.378933
 H   -7.133754    5.014720    1.639413
 H   -8.722341    4.686953   -0.228600
 H   -7.378418    4.545739   -1.364627
 H   -8.219404    2.309361   -0.729198
 H   -7.939143    2.670809    0.975713
 H   -1.804974   -5.293272    0.577411
 H    2.826874   -5.151343    0.549640
 H    3.182958   -3.678347    1.443895
 H    3.169542   -3.663285   -0.326936
 H    2.655674   -1.681843    0.742163
 H    1.897388    2.658385    1.159279
 H    5.692932    3.917407   -0.708713
 H    8.088018    4.493943   -0.982447
 H    9.823096    2.861154   -0.340318
 H    9.171742    0.678198    0.602482
 H    6.801532    0.114697    0.896161
