60 
6slg_ligand_xtb.xyz
 C   -3.340219    2.959155   -0.017214
 C   -4.707678    3.179203   -0.146812
 C   -5.117396    0.968789   -0.319384
 N   -6.462429   -3.495655   -0.652250
 C    0.540532    1.199683    0.308375
 C    1.929832    1.576550    0.603772
 C    2.279896   -0.862017    0.850110
 C    1.225357   -1.089795   -0.235982
 C    1.727527   -1.186710    2.250431
 C    2.417440   -1.490030    4.473241
 C    4.149011    0.740718    1.139163
 C    5.048875    0.339041    0.002279
 C    5.028235    1.069090   -1.181532
 C    5.814033    0.696269   -2.255542
 C    5.864634   -0.779417    0.099216
 C   -5.862172   -1.362743   -0.433403
 C   -4.764205   -2.133051   -0.097186
 C   -5.206706   -3.451422   -0.256059
 F    7.391945   -0.784039   -3.195297
 C    6.628963   -0.418209   -2.151590
 C    6.654100   -1.153159   -0.973797
 F    7.439265   -2.238999   -0.867546
 N    2.758814    0.503930    0.786675
 O    2.812021   -1.264520    3.141624
 N    0.227033   -0.071446   -0.086512
 C   -1.107678   -0.103753   -0.292673
 O    2.329624    2.721970    0.648478
 N   -0.525901    1.957928    0.358829
 C   -1.570192    1.170227   -0.007378
 C   -2.951432    1.611867   -0.078124
 C   -2.380191    4.084489    0.157560
 N   -3.841160    0.629148   -0.224973
 N   -5.597541    2.216090   -0.298471
 N   -6.062775   -0.002082   -0.469245
 N   -6.858767   -2.222558   -0.762082
 C   -8.196184   -1.908189   -1.172441
 H   -5.111784    4.184455   -0.129858
 H    3.135837   -1.520094    0.669777
 H    0.770161   -2.078153   -0.143937
 H    1.693944   -1.008013   -1.225394
 H    1.023745   -0.402665    2.569773
 H    1.187079   -2.146943    2.228001
 H    3.330107   -1.531351    5.063057
 H    1.779548   -0.677524    4.839615
 H    1.874768   -2.437796    4.569272
 H    4.236870    1.814007    1.329749
 H    4.384599    0.181356    2.046879
 H    4.393224    1.938687   -1.252264
 H    5.811939    1.257314   -3.176348
 H    5.905118   -1.364152    1.005401
 H   -3.810004   -1.774851    0.220142
 H   -4.661527   -4.360244   -0.095404
 H   -1.629877   -0.974208   -0.629058
 H   -1.607393    4.048538   -0.607164
 H   -1.872132    4.001195    1.115726
 H   -2.901105    5.038047    0.104740
 H   -7.005390    0.344078   -0.572281
 H   -8.690533   -2.850078   -1.400118
 H   -8.745873   -1.402165   -0.374118
 H   -8.192563   -1.278684   -2.065379
