15 
6ssy_ligand_dft.xyz
 N   -2.046665  -22.941484   10.946055
 O   -5.445957  -23.434374   13.827223
 O   -5.281755  -20.909127   14.315172
 O   -6.482322  -21.729525   12.169243
 C   -3.435315  -23.018952   11.391082
 C   -3.676681  -21.974499   12.482507
 P   -5.364122  -21.985053   13.107398
 H   -1.847731  -23.706422   10.307882
 H   -1.902663  -22.084781   10.417370
 H   -6.346996  -23.780497   13.767802
 H   -6.106787  -20.406335   14.358783
 H   -4.177264  -22.879676   10.588093
 H   -3.600153  -24.014915   11.813972
 H   -2.986273  -22.138481   13.315949
 H   -3.492317  -20.963878   12.099469
