46 
6st3_ligand_xtb.xyz
 C    1.532707    1.916782    0.141841
 C    2.806431    1.131001    0.079853
 C    3.772100    1.387747    1.015502
 C    5.186585   -0.179985    0.225626
 C    8.298755   -1.349729    1.052985
 C    8.082301   -2.212838   -0.047374
 C    6.847119   -1.871825   -0.514853
 C    3.052378    0.101072   -0.900919
 C   -0.655084    2.258727   -0.871974
 C   -1.779189    1.263970   -0.718178
 C   -3.082028    1.661043   -0.996698
 C   -4.141493    0.787935   -0.848966
 C   -1.556662   -0.038398   -0.293551
 C   -2.608085   -0.922622   -0.144574
 C   -3.908479   -0.513296   -0.414090
 C   -6.142433   -1.101513    0.145256
 C   -7.219118   -1.857170   -0.309535
 C   -8.490981   -1.600836    0.165150
 C   -8.701735   -0.592804    1.091505
 C   -7.628210    0.151162    1.550081
 C   -6.349589   -0.098343    1.086138
 N    4.950639    0.748562    1.096332
 N    6.385402   -0.859678    0.286886
 N    7.281924   -0.553937    1.236696
 N    4.301473   -0.516516   -0.746863
 N    0.652523    1.656782   -0.841512
 O    1.341676    2.732030    1.026237
 O    2.329869   -0.278456   -1.805837
 O   -4.900583   -1.453823   -0.312998
 H    3.602674    2.154289    1.759305
 H    9.153658   -1.295913    1.696153
 H    8.741919   -2.965223   -0.426475
 H    6.290212   -2.272868   -1.336974
 H   -0.683552    2.978179   -0.044983
 H   -0.783557    2.810195   -1.811172
 H   -3.269750    2.669398   -1.336295
 H   -5.148141    1.105972   -1.078352
 H   -0.554174   -0.369632   -0.068742
 H   -2.437596   -1.937247    0.180060
 H   -7.036593   -2.640341   -1.028702
 H   -9.322185   -2.190049   -0.192598
 H   -9.696699   -0.391789    1.458531
 H   -7.782656    0.930361    2.281914
 H   -5.511160    0.472503    1.458031
 H    4.499999   -1.244576   -1.423898
 H    0.874441    0.941759   -1.525134
