15 
6stl_ligand_xtb.xyz
 C    1.794930   -0.769877    0.186470
 C    0.494670   -1.060941   -0.539397
 N    2.254415    0.609149   -0.118556
 S   -0.772432    0.075848    0.110714
 O   -1.862567   -0.007629   -1.016944
 O   -1.276319   -0.368692    1.356067
 O   -0.138542    1.381444    0.066635
 H    2.566976   -1.492758   -0.092539
 H    1.617855   -0.844753    1.262683
 H    0.157670   -2.074409   -0.348085
 H    0.554883   -0.886457   -1.609559
 H    2.963923    0.936089    0.542656
 H    2.625931    0.689621   -1.069728
 H    1.347230    1.215440   -0.037310
 H   -2.774643   -0.076460   -0.718145
