39 
6szp_ligand_dft.xyz
 C   -1.856599    0.507252    0.249631
 C   -2.998914   -0.472878   -0.048918
 C   -4.367765    0.251635    0.025277
 C   -5.513676   -0.736200   -0.244395
 C    0.679797    0.724721    0.548059
 C    2.883412   -0.450389   -0.483957
 C    4.199422   -1.188350   -0.212863
 C    6.247935    0.360795   -0.566688
 N   -6.867067   -0.065567   -0.182727
 N   -0.473629   -0.204352    0.170720
 N    0.863719    1.758977   -0.310710
 N    2.030778   -0.181366    0.742203
 O    5.218638   -0.286970    0.372245
 H   -1.806507    1.326305   -0.470358
 H   -1.920020    0.915016    1.262377
 H   -2.873050   -0.905818   -1.049207
 H   -2.987091   -1.294476    0.678232
 H   -4.394523    1.061410   -0.713499
 H   -4.493019    0.701562    1.017528
 H   -5.442415   -1.181921   -1.239357
 H   -5.541987   -1.538755    0.496313
 H    0.486301    1.065354    1.567303
 H    3.059058    0.516839   -0.961704
 H    2.304940   -1.082441   -1.164205
 H    4.594260   -1.559342   -1.163550
 H    4.101777   -2.032038    0.475225
 H    6.843839    0.999920    0.084088
 H    5.664242    0.938355   -1.279529
 H    6.825198   -0.443131   -1.024605
 H   -6.976632    0.679439   -0.882823
 H   -7.066639    0.347126    0.737620
 H   -7.617915   -0.747217   -0.364307
 H   -0.520622   -1.023014    0.792316
 H   -0.364540   -0.572159   -0.784132
 H    0.893981    2.710370    0.041342
 H    0.841551    1.668011   -1.319668
 H    5.701967   -0.719647    1.108552
 H    1.835650   -1.056323    1.248197
 H    2.584814    0.388971    1.396606
