58 
6t1j_ligand_xtb.xyz
 O    5.046059   -1.186792   -1.643536
 C    4.506172   -0.628928   -0.705614
 C    5.230237    0.336269    0.133877
 S    6.459253    1.276424   -0.645144
 C    6.908999    1.981872    0.848177
 C    6.179027    1.502559    1.891792
 C    5.216970    0.558984    1.485534
 N    3.205437   -0.898848   -0.390279
 C    2.368126   -0.134778    0.505099
 C    0.948429   -0.081452   -0.052693
 C    2.521587   -1.880118   -1.211309
 C    1.332291   -2.473687   -0.467878
 N    0.396958   -1.421192   -0.111166
 C   -0.887675   -1.618854    0.295622
 O   -1.626415   -0.663756    0.523670
 N   -1.284567   -2.922805    0.364875
 C   -2.578152   -3.369707    0.867417
 C   -3.628906   -2.362655    0.508102
 C   -4.292453   -1.642322    1.491535
 C   -5.021728   -0.521695    1.151059
 C   -5.101062   -0.119790   -0.177715
 C   -4.570092   -0.930586   -1.172286
 C   -3.851145   -2.056689   -0.829570
 C   -5.544458    1.281375   -0.487317
 N   -4.450179    2.184788   -0.034081
 C   -4.692255    3.629479   -0.235443
 C   -3.330239    4.278481    0.013087
 C   -2.303972    3.164445   -0.278516
 C   -3.134546    1.946291   -0.681632
 H    7.694182    2.710970    0.873439
 H    6.321890    1.807270    2.912752
 H    4.572905    0.042872    2.173987
 H    2.765994    0.877235    0.608525
 H    2.339409   -0.599771    1.499929
 H    0.954717    0.377329   -1.048621
 H    0.302290    0.512988    0.596543
 H    3.242106   -2.662155   -1.463000
 H    2.186237   -1.427244   -2.153017
 H    1.691485   -2.997751    0.429302
 H    0.845048   -3.194571   -1.131244
 H   -0.569409   -3.630268    0.371298
 H   -2.544476   -3.508436    1.955655
 H   -2.790688   -4.335520    0.398587
 H   -4.178846   -1.915091    2.529133
 H   -5.491549    0.067923    1.926442
 H   -4.678767   -0.655085   -2.210600
 H   -3.388959   -2.655657   -1.598627
 H   -6.457477    1.554963    0.046714
 H   -5.695864    1.428422   -1.558018
 H   -4.311628    2.005852    0.966525
 H   -5.473359    3.993431    0.430944
 H   -5.013821    3.774313   -1.268535
 H   -3.245690    4.620079    1.043451
 H   -3.189531    5.142453   -0.631381
 H   -1.712219    2.943535    0.607973
 H   -1.615827    3.443523   -1.071997
 H   -3.293409    1.912908   -1.760171
 H   -2.694400    1.002530   -0.348166
