57 
6t1j_ligand_dft.xyz
 O   -2.489456   17.016527   19.708837
 C   -2.918645   16.030232   19.120091
 C   -3.906698   15.142553   19.787836
 S   -4.835664   15.847862   21.068305
 C   -5.599753   14.349318   21.404382
 C   -5.146291   13.345001   20.596617
 C   -4.171589   13.801530   19.668702
 N   -2.491869   15.714011   17.857980
 C   -3.186824   14.824374   16.926567
 C   -3.071391   15.356376   15.504181
 C   -1.469456   16.588107   17.290706
 C   -0.733479   15.892723   16.153698
 N   -1.671949   15.457869   15.131048
 C   -1.317087   15.174024   13.832011
 O   -2.146372   14.938789   12.962247
 N    0.038182   15.204351   13.574201
 C    0.512546   14.800447   12.260763
 C    1.931051   15.268794   12.034015
 C    2.901641   14.395388   11.543148
 C    4.201887   14.830129   11.310411
 C    4.565016   16.152264   11.567427
 C    3.594474   17.026999   12.055948
 C    2.294914   16.592019   12.290279
 C    5.989270   16.613702   11.346050
 N    6.571435   16.059262   10.142537
 C    7.992740   16.338346    9.993958
 C    8.296547   15.913614    8.550301
 C    6.936016   16.053866    7.818907
 C    5.970579   16.545543    8.906139
 H   -6.344194   14.281312   22.186254
 H   -5.489464   12.319273   20.659281
 H   -3.672046   13.150038   18.962567
 H   -4.240991   14.755514   17.204587
 H   -2.758632   13.813398   16.960415
 H   -3.579294   16.327204   15.422704
 H   -3.557771   14.674437   14.805437
 H   -0.767145   16.852707   18.082293
 H   -1.916498   17.524935   16.932764
 H   -0.162040   15.042974   16.560255
 H   -0.019500   16.604114   15.723615
 H    0.676079   15.023111   14.335333
 H   -0.168695   15.241592   11.527965
 H    0.449168   13.711327   12.128246
 H    2.636995   13.360340   11.339084
 H    4.950435   14.149730   10.915138
 H    3.856864   18.064582   12.249897
 H    1.548679   17.284289   12.670974
 H    6.607920   16.289907   12.193912
 H    6.020259   17.722534   11.340526
 H    8.574158   15.789351   10.742331
 H    8.205618   17.417993   10.128348
 H    8.642546   14.876878    8.522403
 H    9.078985   16.534511    8.106001
 H    6.981101   16.751646    6.978601
 H    6.609318   15.087034    7.426717
 H    5.916044   17.652880    8.902745
 H    4.952323   16.163370    8.792317
