48 
6t1m_ligand_xtb.xyz
 N    2.343122    0.507071   -0.143204
 C    6.625997   -1.330921    0.735948
 N   -3.112831    1.189730   -0.566966
 C    4.554383   -0.391678   -0.060479
 N   -5.466770   -0.455805   -0.246547
 C    5.217921    0.786885   -0.395088
 C    6.573145    0.914046   -0.163624
 O    2.669416   -1.709536   -0.616349
 C    3.090485   -0.609161   -0.312201
 C    5.275108   -1.450261    0.489034
 C    7.281893   -0.141160    0.413001
 C    8.666314   -0.008148    0.662241
 N    9.789113    0.100562    0.869109
 C    0.947079    0.669271   -0.258473
 C    0.139071   -0.280069   -0.853713
 C   -1.222242   -0.008334   -0.916300
 N   -2.250633   -0.749582   -1.419916
 C   -3.310824    0.020153   -1.198519
 C   -1.762218    1.204470   -0.382357
 C   -0.926539    2.147339    0.206244
 C    0.418048    1.867536    0.257017
 C   -4.690873   -0.460207   -1.521140
 C   -5.838529    0.928008    0.128602
 C   -6.706930    0.943155    1.392003
 C   -6.588472   -0.377935    2.146335
 C   -7.074633   -1.535074    1.264610
 C   -6.645764   -1.334298   -0.196962
 H    2.819053    1.326986    0.207242
 H    7.183375   -2.146943    1.171775
 H   -4.794711   -0.783589    0.456076
 H    4.685784    1.601215   -0.866604
 H    7.093012    1.823573   -0.427886
 H    4.748796   -2.365457    0.714357
 H    0.542761   -1.196050   -1.247973
 H   -1.321601    3.070747    0.605111
 H    1.096142    2.583573    0.706161
 H   -5.204935    0.173805   -2.245974
 H   -4.615042   -1.477194   -1.906962
 H   -6.380685    1.361651   -0.713935
 H   -4.881817    1.469728    0.227793
 H   -7.754844    1.101825    1.130303
 H   -6.401933    1.768000    2.034356
 H   -7.186910   -0.340073    3.056071
 H   -5.552667   -0.534348    2.455553
 H   -8.161811   -1.600474    1.307783
 H   -6.676189   -2.474716    1.648593
 H   -6.403050   -2.290971   -0.662864
 H   -7.436599   -0.860535   -0.782592
