19 
6tim_ligand_xtb.xyz
 O    3.376542   -0.775047   -0.201484
 C    2.336714   -0.027644   -0.804172
 C    1.634198    0.739743    0.321117
 O    1.217415   -0.166500    1.321162
 C    0.410341    1.500277   -0.188927
 O   -0.475403    0.653721   -0.878779
 O   -2.057182    0.662022    1.155975
 O   -0.955303   -1.553993    0.335691
 O   -2.639043   -0.524915   -1.066545
 P   -1.567880   -0.129420    0.026503
 H    3.830543   -1.286626   -0.877683
 H    2.732981    0.680620   -1.541374
 H    1.611890   -0.690347   -1.292404
 H    2.339868    1.462864    0.757063
 H    1.985949   -0.723868    1.512399
 H    0.719546    2.280463   -0.888429
 H   -0.107622    1.942030    0.668268
 H   -0.221257   -1.410759    0.946658
 H   -3.397427    0.050356   -0.978313
