47 
6u5y_ligand_xtb.xyz
 C    0.595206   -1.417199   -1.272385
 C   -0.191992    2.241039   -1.657612
 C    5.067159   -1.967676    0.553353
 C    3.970975   -0.191647   -0.120307
 C   -2.687009    0.964651    0.918575
 C   -1.409917    0.741526    1.409688
 C   -0.822549   -0.507462    1.330590
 C   -1.511171   -1.539224    0.725616
 C   -2.774970   -1.349143    0.177165
 C   -3.365097   -0.083122    0.326414
 C    1.912339    0.999838   -0.974400
 C    0.596194    1.000772   -1.443325
 C   -0.060528   -0.225709   -1.632080
 C    1.892704   -1.388511   -0.809093
 C    2.568850   -0.178524   -0.669326
 C   -0.384482    4.642617   -1.255360
 C    4.942433   -1.213336   -0.777283
 C    4.123578   -0.961466    1.225316
 C    4.541181    1.127040   -0.059943
 N   -0.106461   -2.637211   -1.250539
 N    0.313522    3.383460   -1.175435
 N    5.023254    2.163368   -0.001242
 O   -3.367193   -2.338751   -0.490475
 O    0.607765   -3.008172    1.140697
 O   -1.364707   -4.200543    0.292284
 O   -1.319220   -0.317921   -2.092939
 O   -1.295680    2.210829   -2.216071
 S   -0.567172   -3.023583    0.324723
Br   -0.425422    2.188307    2.116706
Cl   -4.950979    0.159734   -0.326311
 H    6.073535   -1.982796    0.965481
 H    4.682192   -2.984337    0.528885
 H   -3.138009    1.942936    0.976524
 H    0.168028   -0.702547    1.709529
 H    2.445237    1.930690   -0.851811
 H    2.346385   -2.323225   -0.526413
 H    0.231150    5.382819   -1.767597
 H   -1.303200    4.483826   -1.817204
 H   -0.624147    5.005151   -0.254300
 H    4.487477   -1.774524   -1.590026
 H    5.867913   -0.762494   -1.131841
 H    4.576072   -0.367546    2.017556
 H    3.187118   -1.384906    1.581991
 H   -0.921043   -2.637511   -1.851672
 H    1.176269    3.375119   -0.656779
 H   -4.242017   -2.044122   -0.799071
 H   -1.599131    0.616936   -2.317275
