42 
6u80_ligand_dft.xyz
 C    0.855982    2.256411   -0.532384
 C   -1.734132   -1.548906    0.584820
 C    0.465439   -2.376153   -0.027467
 C   -0.124658   -3.202451   -0.983400
 C   -1.505433   -3.205034   -1.160385
 C    1.940768   -2.301783    0.117674
 C    2.731225   -3.454834    0.135809
 C    4.114903   -3.362313    0.248083
 C    4.730024   -2.116203    0.340566
 C    3.952079   -0.961871    0.319237
 C    2.570060   -1.056085    0.209313
 C   -3.440302    0.453608   -2.384472
 C   -1.225056    1.433210    0.322685
 C    0.062325    1.898726    0.548276
 C    0.367781    2.157405   -1.827817
 C   -0.924832    1.696093   -2.052780
 C   -1.736782    1.324460   -0.979320
 C   -2.308471   -2.370861   -0.395537
 C   -0.357332   -1.576429    0.772424
 N   -2.596587   -0.712424    1.326119
 O   -3.407406    1.573031    1.873995
 O   -2.980784    0.826986   -1.100262
 O   -3.665978   -2.283096   -0.545230
 O   -1.204344    0.792095    2.831123
 S   -2.156766    0.852419    1.736621
Br    2.641567    2.804353   -0.228691
 H    0.498260   -3.824634   -1.618533
 H   -1.957843   -3.840394   -1.918838
 H    2.255113   -4.430417    0.082848
 H    4.714388   -4.267768    0.270323
 H    5.810245   -2.046310    0.427164
 H    4.412499    0.020213    0.374785
 H    1.973884   -0.150338    0.165052
 H   -3.574377    1.329793   -3.029121
 H   -2.747893   -0.255871   -2.853224
 H   -4.401541   -0.030868   -2.219958
 H    0.441708    1.936294    1.562965
 H    0.998068    2.427342   -2.667885
 H   -1.285732    1.617615   -3.071130
 H    0.082247   -0.969851    1.557029
 H   -3.550768   -0.715203    0.980063
 H   -3.972176   -2.997769   -1.115085
