40 
6u8o_ligand_dft.xyz
 C    1.075764    1.658351   -0.019152
 C   -1.576293   -2.213031   -0.270537
 C   -0.075114   -2.216879   -0.058323
 C    0.728987   -1.294334   -0.722007
 C   -2.181225   -1.579407   -1.562186
 C   -3.217159   -2.724079   -1.599857
 C   -2.296576   -3.541838   -0.669142
 C   -2.209402   -1.623545    0.919067
 C    0.499821   -3.079787    0.870511
 C    0.389369    1.554373    2.285191
 C    2.643027   -2.027145    0.541500
 C    2.076237   -1.159056   -0.401978
 C    1.408061    1.519374    1.331703
 O    3.966603   -1.840459    0.812761
 N    2.895868   -0.147511   -0.943429
 S    2.284972    1.377031   -1.304921
 C   -0.249047    1.835786   -0.406796
 C   -1.247315    1.852381    0.552049
Br   -3.051781    1.988494    0.008613
 C   -0.934728    1.706332    1.899485
 O    2.703051    1.303655    1.651031
 O    3.417221    2.273608   -1.189980
 O    1.526124    1.280655   -2.539924
 N   -2.699036   -1.160840    1.861774
 C    1.859870   -2.998934    1.151612
 H    0.300660   -0.642463   -1.473583
 H   -1.467902   -1.658106   -2.387164
 H   -2.540486   -0.551190   -1.479574
 H   -3.448837   -3.153632   -2.576440
 H   -4.149076   -2.442669   -1.102246
 H   -2.753072   -4.123767    0.134649
 H   -1.600457   -4.172742   -1.228706
 H   -0.114757   -3.805647    1.395113
 H    0.630896    1.428851    3.337536
 H    4.270865   -2.515985    1.429469
 H    3.792280   -0.058699   -0.475054
 H   -0.483197    1.909414   -1.462451
 H   -1.724535    1.680630    2.640861
 H    2.784605    1.157142    2.601102
 H    2.308336   -3.673513    1.877430
