80 
6udv_ligand_xtb.xyz
 C   -3.821853    1.548047   -2.001396
 C   -4.841913    2.376875   -1.233344
 C   -6.093633    1.541382   -1.004917
 C   -5.769105    0.201354   -0.406562
 C   -6.782079   -0.494311    0.244146
 C   -6.541872   -1.741853    0.786309
Cl   -7.821317   -2.585080    1.589843
 C   -5.287297   -2.320441    0.690703
 C   -4.282070   -1.627813    0.045672
 C   -4.502382   -0.370756   -0.511954
 C   -3.348665    0.332725   -1.195179
 C   -2.333685    0.751331   -0.110985
 C   -2.614258   -0.629682   -2.156027
 O   -1.618724   -1.404531   -1.526106
 C   -0.372694   -0.825672   -1.466229
 C    0.685165   -1.668916   -1.781406
 C    1.981565   -1.210410   -1.908998
 C    2.206962    0.155649   -1.768406
 C    1.158182    0.996201   -1.396319
 C   -0.139519    0.537684   -1.150703
 N   -1.140926    1.358482   -0.672403
 C   -0.851544    2.687373   -0.173784
 C   -0.459716    2.724368    1.306155
 C    0.045105    4.076977    1.839178
 C    1.222193    3.359473    2.516623
 C    0.871919    2.076053    1.743768
 C    0.756564    0.776817    2.558262
 O   -0.010758   -0.190745    1.883504
 C    2.143771    0.308506    2.903328
 C    2.633880   -0.888912    2.628641
 C    4.045865   -1.300371    2.891130
 C    4.788331   -1.638905    1.583711
 C    6.248245   -1.980849    1.864913
 C    4.649640   -0.506585    0.567718
 C    5.417646    0.764715    0.848971
 S    5.224093   -1.137695   -1.045211
 O    6.643789   -1.019391   -1.188271
 O    4.642278   -2.416441   -1.312029
 N    4.630548    0.029516   -2.135536
 C    3.485564    0.808917   -2.102206
 O    3.560260    1.989141   -2.383354
 H   -2.954490    2.154740   -2.268516
 H   -4.283150    1.197348   -2.928089
 H   -5.092687    3.276354   -1.798511
 H   -4.430634    2.691294   -0.272711
 H   -6.596778    1.377649   -1.963471
 H   -6.795136    2.071450   -0.357597
 H   -7.765163   -0.055377    0.323925
 H   -5.102258   -3.294865    1.113369
 H   -3.306722   -2.080625   -0.040651
 H   -2.812448    1.474516    0.547761
 H   -2.071222   -0.118047    0.500159
 H   -2.163488   -0.052954   -2.973301
 H   -3.321511   -1.345586   -2.584818
 H    0.449445   -2.704700   -1.968084
 H    2.778702   -1.883479   -2.168007
 H    1.401360    2.043656   -1.324500
 H   -0.070215    3.147276   -0.777867
 H   -1.754691    3.294368   -0.303650
 H   -1.279783    2.333643    1.911722
 H    0.362159    4.745848    1.041477
 H   -0.632489    4.613053    2.499754
 H    1.089802    3.251878    3.591484
 H    2.207551    3.776221    2.320865
 H    1.547823    1.906053    0.905210
 H    0.196542    0.980250    3.480674
 H    0.453724   -0.443103    1.075630
 H    2.754892    1.060658    3.383282
 H    2.009142   -1.641963    2.165714
 H    4.573186   -0.504340    3.419462
 H    4.056506   -2.189349    3.525617
 H    4.308652   -2.511866    1.127506
 H    6.308717   -2.885698    2.464670
 H    6.737765   -1.178153    2.411320
 H    6.780708   -2.146525    0.932531
 H    3.591055   -0.303882    0.396793
 H    5.125447    1.544754    0.148772
 H    6.483051    0.582704    0.733936
 H    5.219303    1.121026    1.857076
 H    5.422272    0.551200   -2.492149
