55 
6udy_ligand_xtb.xyz
 C    3.888760   -1.618424   -1.164472
 C    4.987523   -0.817415   -0.903258
 C    4.897236    0.221911    0.002034
 C   -3.264353   -0.443559    0.138538
 C   -4.062719   -1.555616   -0.112523
 C   -3.491231   -2.820514   -0.202106
 C   -2.137472   -2.948917    0.026379
 C    0.624003   -1.385578    1.581006
 C    0.271324    0.504601    0.019144
 C   -1.887519   -0.546386    0.328147
 C   -1.339008   -1.849681    0.319943
 C    1.249304   -0.066585    1.071081
 C   -5.505579   -1.332270   -0.302535
 C   -2.070347    2.496155   -0.718263
 C   -1.077536    3.453030   -1.405668
 C   -2.230159    4.435687   -1.657940
 C    1.382381    0.880047    2.269712
 C    3.675874    1.603688    1.665424
 N   -1.082791    0.563954    0.529446
 O   -0.023548   -2.144944    0.584999
 O   -6.199215   -2.460022   -0.539741
 O   -6.050891   -0.254426   -0.256088
 C   -1.677044    1.878687    0.627830
 C   -3.100373    3.638742   -0.674906
 C    3.702613    0.483540    0.663644
 C    2.586954   -0.313099    0.407422
 C    2.701962   -1.355112   -0.509642
 C    2.258480    2.081799    1.946116
Cl    6.486905   -1.118831   -1.712990
 H    3.961583   -2.432636   -1.867577
 H    5.762291    0.836479    0.200292
 H   -3.762321    0.511249    0.158766
 H   -4.100997   -3.680658   -0.422257
 H   -1.659726   -3.916100    0.004269
 H    1.406826   -2.037588    1.980011
 H   -0.085362   -1.157447    2.385717
 H    0.314221   -0.122956   -0.878184
 H    0.587534    1.505587   -0.271585
 H   -2.385547    1.702822   -1.397824
 H   -0.566151    3.070288   -2.286943
 H   -0.338257    3.857124   -0.714481
 H   -2.040314    5.474794   -1.398117
 H   -2.603191    4.389762   -2.678494
 H    0.386746    1.199173    2.581650
 H    1.832363    0.331604    3.101254
 H    4.295146    2.429056    1.308528
 H    4.124016    1.241114    2.596380
 H   -7.137093   -2.242295   -0.653527
 H   -0.959534    2.532687    1.132815
 H   -2.558473    1.807713    1.270289
 H   -4.106283    3.390381   -1.004869
 H   -3.154567    4.105645    0.307081
 H    1.848833   -1.986907   -0.701210
 H    2.260236    2.779957    2.785152
 H    1.870979    2.610356    1.073575
