67 
6uf0_ligand_dft.xyz
 C   -2.703183    0.405565   -0.905190
 C    2.282228    3.024327   -0.296148
 C   -3.209547    1.653450   -0.571472
 C   -4.482728    1.746579    0.002691
 C   -5.244369    0.593724    0.227630
 C   -3.460886   -0.736284   -0.662286
 C   -3.028086   -1.562442    2.406581
 C   -4.303674    4.094477    0.253855
 O   -1.846403   -2.232751   -2.088027
 S   -2.732832   -2.319090   -0.941600
 N   -1.707167   -2.567639    0.394431
 C   -2.337538   -2.753700    1.704049
 O   -2.443387   -0.373317    2.352039
 O   -4.040395   -1.756057    3.033560
 C   -0.396283   -2.031484    0.307338
 N   -0.183883   -0.876920    0.899419
 C    1.039889   -0.311198    0.822103
 C    2.082401   -0.881590    0.140198
 N    3.321651   -0.184230    0.068736
 C    4.368605   -0.407251    1.041038
 C    4.088193    0.248133    2.385723
 F    3.759646    1.543116    2.250239
 F    3.079891   -0.349997    3.042104
 F    5.176843    0.172628    3.163076
 S    3.592801    0.822621   -1.259367
 O    3.434218    0.041030   -2.473554
 C    2.238580    1.960555   -1.188566
 C    1.196495    3.887029   -0.197930
 C    0.072727    3.675842   -1.003391
 O   -1.036969    4.448780   -0.979454
 C   -1.050897    5.580039   -0.129534
 C    0.044704    2.607525   -1.909100
 C    1.123391    1.746959   -2.000160
 O    4.839608    1.511417   -0.968664
 C    1.902871   -2.150864   -0.480218
 C    0.621361   -2.756174   -0.375057
 C    0.404737   -4.040229   -0.933945
 C    1.426102   -4.683504   -1.580285
 C    2.693804   -4.068946   -1.707830
 C    2.933627   -2.830170   -1.172412
 C   -4.733561   -0.648453   -0.095731
 O   -5.061508    2.909008    0.367946
 O   -3.763984   -3.333993   -0.834543
 H   -1.717122    0.322107   -1.349913
 H    3.159734    3.180327    0.321321
 H   -2.611762    2.538620   -0.754036
 H   -6.225040    0.696483    0.677687
 H   -3.391377    4.038696    0.860697
 H   -4.030150    4.301293   -0.788328
 H   -4.943169    4.894096    0.628735
 H   -3.094381   -3.532102    1.604028
 H   -1.561291   -3.130949    2.378299
 H   -1.610995   -0.411243    1.815249
 H    1.163871    0.644266    1.320190
 H    5.299032    0.014452    0.658853
 H    4.511155   -1.479620    1.211245
 H    1.241037    4.713310    0.501002
 H   -0.973681    5.288665    0.924925
 H   -0.240771    6.274357   -0.380305
 H   -2.009611    6.070017   -0.300988
 H   -0.829953    2.476707   -2.537721
 H    1.113596    0.915771   -2.697096
 H   -0.573043   -4.496738   -0.839066
 H    1.262026   -5.667345   -2.007333
 H    3.485727   -4.585907   -2.240825
 H    3.896214   -2.347073   -1.293534
 H   -5.304377   -1.549313    0.099368
