67 
6uf0_ligand_xtb.xyz
 C   -3.693985    0.224966   -0.774271
 C    2.152267    2.414504   -1.182460
 C   -4.783526    1.073031   -0.704522
 C   -5.948046    0.663755   -0.054477
 C   -6.017339   -0.626897    0.486465
 C   -3.769859   -1.027690   -0.200618
 C   -2.607734    0.494178    2.010049
 C   -7.018534    2.767991   -0.319542
 O   -1.587785   -1.917222   -1.420577
 S   -2.361177   -2.105502   -0.231516
 N   -1.385373   -1.523024    1.061649
 C   -2.091083   -0.949104    2.188908
 O   -1.726349    1.352610    1.541476
 O   -3.727028    0.808555    2.315172
 C   -0.046124   -1.266298    0.866654
 N    0.404967   -0.099021    1.283922
 C    1.689953    0.236288    1.105338
 C    2.590794   -0.575524    0.466864
 N    3.883608   -0.136835    0.107737
 C    4.929829    0.135688    1.039852
 C    4.659671    1.271052    2.031252
 F    4.086132    2.341141    1.468707
 F    3.857412    0.899771    3.044572
 F    5.797526    1.691756    2.598917
 S    4.025899    0.451400   -1.490336
 O    4.187673   -0.664330   -2.370585
 C    2.417412    1.168585   -1.711205
 C    0.851905    2.887328   -1.165617
 C   -0.181010    2.100826   -1.678001
 O   -1.482378    2.462213   -1.689888
 C   -1.866527    3.654156   -1.036212
 C    0.111615    0.846633   -2.231050
 C    1.407466    0.382277   -2.241044
 O    5.076560    1.424048   -1.447434
 C    2.159194   -1.866092    0.042766
 C    0.808351   -2.241159    0.277614
 C    0.394927   -3.548538   -0.039079
 C    1.270072   -4.422776   -0.627315
 C    2.586926   -4.035129   -0.907619
 C    3.032150   -2.786638   -0.564689
 C   -4.931788   -1.466956    0.415631
 O   -7.053565    1.418379    0.089578
 O   -2.784368   -3.429531    0.113228
 H   -2.786840    0.538009   -1.264751
 H    2.963425    3.000205   -0.780791
 H   -4.710718    2.050876   -1.149979
 H   -6.931128   -0.929777    0.970705
 H   -6.221374    3.314570    0.191807
 H   -6.892584    2.856381   -1.403012
 H   -7.983268    3.184699   -0.035353
 H   -2.941672   -1.598632    2.406424
 H   -1.417299   -0.950474    3.053420
 H   -0.808836    0.914119    1.449690
 H    1.942656    1.219088    1.471200
 H    5.794767    0.439794    0.442855
 H    5.178909   -0.754034    1.631990
 H    0.652846    3.856391   -0.738994
 H   -1.659679    3.595489    0.035302
 H   -1.373538    4.528181   -1.470694
 H   -2.940133    3.739028   -1.190288
 H   -0.689759    0.236223   -2.615598
 H    1.651820   -0.586501   -2.645218
 H   -0.611066   -3.855339    0.189535
 H    0.946048   -5.422675   -0.872108
 H    3.259149   -4.735289   -1.380229
 H    4.046050   -2.481743   -0.765636
 H   -4.959328   -2.463335    0.826629
