38 
6ufn_ligand_dft.xyz
 C   27.378000   40.478998   34.368292
 C   28.766962   41.042939   34.091829
 C   29.405079   40.457421   32.836637
 C   18.003743   40.031277   34.739689
 C   19.333948   40.533058   34.169317
 C   20.507461   40.241024   35.122717
 C   21.855677   40.732592   34.602409
 C   23.013071   40.393107   35.540602
 C   24.360479   40.900755   35.028162
 C   25.517137   40.527946   35.953737
 N   26.782072   41.117590   35.533157
 N   30.754812   40.988343   32.657934
 O   19.567698   39.965633   32.901340
 O   19.246979   41.908097   33.879523
 H   26.734651   40.667962   33.500065
 H   27.439621   39.377357   34.477507
 H   29.433924   40.845557   34.941064
 H   28.686706   42.133731   33.997127
 H   28.736349   40.637741   31.975348
 H   29.486775   39.368939   32.946926
 H   18.029325   38.950339   34.923447
 H   17.777316   40.522713   35.692231
 H   17.205434   40.255801   34.027937
 H   20.290836   40.693446   36.102400
 H   20.546993   39.156407   35.298664
 H   22.032187   40.293581   33.613917
 H   21.809752   41.817075   34.446853
 H   22.817914   40.819670   36.535543
 H   23.062034   39.303272   35.680861
 H   24.534584   40.492064   34.024286
 H   24.338792   41.992401   34.922806
 H   25.295424   40.905758   36.959572
 H   25.572687   39.423670   36.032091
 H   27.442522   41.053625   36.302875
 H   31.185251   40.571944   31.837218
 H   30.703766   41.987638   32.475888
 H   19.470007   39.010557   32.989327
 H   19.274029   42.383970   34.717701
