44 
6ufo_ligand_xtb.xyz
 C   -1.181642   -1.507722    0.291668
 C   -2.607675   -0.987125    0.065017
 C   -5.369143    1.644944    1.720658
 C   -6.238721    0.630941    1.045906
 C   -5.479202    1.628619    0.228370
 C    5.690142    2.073449   -1.357427
 C    4.794876    0.712516    0.331735
 C    3.760705   -0.407192    0.547900
 C    2.332436    0.152289    0.379981
 C    1.272250   -0.939762    0.497197
 C   -0.126334   -0.406725    0.200093
 N   -2.873312   -0.451530   -1.261323
 N   -5.832665   -0.880331   -2.299285
 O    4.752249    1.079574   -1.028389
 O    3.965376   -0.918908    1.831562
 O    3.998016   -1.445514   -0.369572
 H   -0.962221   -2.284195   -0.446570
 H   -1.136049   -1.968356    1.280525
 H   -2.825461   -0.197769    0.789287
 H   -3.316694   -1.804078    0.228179
 H   -5.845156    2.448726    2.261747
 H   -4.448037    1.309075    2.172500
 H   -7.309744    0.740829    1.128414
 H   -5.907133   -0.396197    1.031960
 H   -4.635549    1.276385   -0.344708
 H   -6.031322    2.424058   -0.249620
 H    5.508761    2.991565   -0.787117
 H    6.713465    1.732337   -1.160860
 H    5.569700    2.274374   -2.420147
 H    5.788106    0.325924    0.600137
 H    4.564223    1.564338    0.983337
 H    2.278055    0.627905   -0.600734
 H    2.174426    0.911391    1.146890
 H    1.291157   -1.352707    1.508283
 H    1.513457   -1.744401   -0.201188
 H   -0.370251    0.387853    0.910050
 H   -0.130706    0.029554   -0.802378
 H   -2.639182   -1.147670   -1.963302
 H   -2.289317    0.360707   -1.433946
 H   -5.944953   -0.173263   -3.016719
 H   -4.906610   -0.751867   -1.899652
 H   -6.501469   -0.666653   -1.568595
 H    3.685936   -1.841847    1.812932
 H    4.243115   -1.039598   -1.209850
