25 
6ugn_ligand_dft.xyz
 C   -3.934692   -1.431410   -0.242309
 C   -1.599197    3.021019    0.197259
 C   -2.650745   -0.651970   -0.118617
 C   -2.672791    0.742970    0.003454
 C   -1.524619    1.519574    0.099052
 C   -0.279818    0.865795    0.090815
 C   -0.254056   -0.524442   -0.001414
 C   -1.414335   -1.282414   -0.120900
 C    2.155241    1.195271   -0.282754
 N    0.907430    1.599702    0.149717
 N    2.232652   -0.157378   -0.618015
 O    3.084800    1.959546   -0.412948
 O    1.366065   -2.529655   -0.662152
 O    1.664056   -1.404503    1.562577
 S    1.299543   -1.337180    0.159448
 H   -4.568638   -1.288195    0.639568
 H   -4.509819   -1.108273   -1.116839
 H   -3.740818   -2.502345   -0.345275
 H   -1.066140    3.505878   -0.629843
 H   -2.637106    3.359750    0.162405
 H   -1.168618    3.389360    1.137145
 H   -3.635564    1.249833    0.008218
 H   -1.334117   -2.361159   -0.216036
 H    0.858459    2.590900    0.332205
 H    3.159817   -0.466592   -0.891955
