25 
6ugo_ligand_dft.xyz
 C   -3.934406   -1.431680   -0.243036
 C   -1.599675    3.020981    0.197534
 C   -2.650629   -0.652130   -0.118323
 C   -2.672808    0.742763    0.003782
 C   -1.524665    1.519561    0.099258
 C   -0.279855    0.865937    0.090899
 C   -0.253929   -0.524357   -0.001213
 C   -1.414118   -1.282441   -0.120573
 C    2.155131    1.195310   -0.283045
 N    0.907413    1.599823    0.149555
 N    2.232625   -0.157419   -0.618042
 O    3.084707    1.959560   -0.413505
 O    1.365789   -2.529642   -0.661951
 O    1.664364   -1.404383    1.562631
 S    1.299582   -1.337066    0.159543
 H   -4.574141   -1.279542    0.633107
 H   -4.503356   -1.116425   -1.124495
 H   -3.740778   -2.503693   -0.334621
 H   -2.637661    3.359426    0.162591
 H   -1.169163    3.389437    1.137384
 H   -1.066682    3.506087   -0.629486
 H   -3.635613    1.249561    0.008703
 H   -1.333784   -2.361184   -0.215610
 H    0.858521    2.591072    0.331772
 H    3.159928   -0.466465   -0.891704
