19 
6ugp_ligand_dft.xyz
 O    1.175484    3.139616   -0.348912
 O    2.217028   -0.392369    1.576453
 O    2.780832   -1.386666   -0.661281
 C   -1.509764   -2.549772   -0.257373
 C   -2.450109   -1.530999   -0.127394
 C   -2.044664   -0.211611    0.012931
 C   -0.684831    0.128076    0.043473
 C    0.233847   -0.922105   -0.057264
 C   -0.156949   -2.244358   -0.222796
 C    0.962035    1.954901   -0.246869
 N   -0.263957    1.446324    0.148827
 N    1.905194    0.981130   -0.580234
 S    1.942028   -0.538253    0.160458
Cl   -3.244174    1.048418    0.143059
 H   -1.837497   -3.575280   -0.383052
 H   -3.511267   -1.753281   -0.148416
 H    0.600778   -3.014412   -0.321150
 H   -0.961882    2.159863    0.311163
 H    2.815570    1.350421   -0.836354
