19 
6ugq_ligand_xtb.xyz
 O    1.160072    3.119792   -0.316595
 O    2.198338   -0.397280    1.543940
 O    2.791419   -1.376216   -0.627941
 C   -1.558334   -2.536537   -0.248657
 C   -2.475363   -1.501696   -0.126898
 C   -2.041945   -0.195518    0.005587
 C   -0.671509    0.110639    0.029853
 C    0.218175   -0.952538   -0.067559
 C   -0.203121   -2.259838   -0.210326
 C    0.981723    1.931901   -0.242850
 N   -0.240745    1.413071    0.132057
 N    1.919201    0.984429   -0.576936
 S    1.931088   -0.547865    0.149286
Cl   -3.193724    1.085763    0.145277
 H   -1.906728   -3.550044   -0.361940
 H   -3.534253   -1.707398   -0.140697
 H    0.542000   -3.034607   -0.288376
 H   -0.960543    2.111651    0.290179
 H    2.809846    1.356924   -0.873436
