19 
6ugr_ligand_dft.xyz
 C   -2.792925   -0.027803   -0.100774
 C   -2.676576    1.347132    0.066693
 C   -1.419540    1.921786    0.179813
 C   -0.272163    1.124470    0.146033
 C   -0.431680   -0.255713    0.004949
 C   -1.681161   -0.848169   -0.136584
 C    2.180405    1.147314   -0.232042
 F   -4.009453   -0.567363   -0.230907
 N    0.999130    1.694942    0.230560
 N    2.075533   -0.193092   -0.613908
 O    3.201083    1.785115   -0.348667
 O    1.351084   -1.431954    1.526575
 O    0.909552   -2.430270   -0.736860
 S    1.005308   -1.271961    0.127564
 H   -3.571971    1.957811    0.090315
 H   -1.324717    2.998308    0.284751
 H   -1.779525   -1.919715   -0.269993
 H    1.072638    2.680257    0.439565
 H    2.949167   -0.609197   -0.920964
