40 
6uil_ligand_xtb.xyz
 C   -5.224249    2.438357    0.514736
 C   -4.186760    1.374218    0.689094
 C   -5.296103    1.184373   -0.299437
 C   -3.133785   -2.541304   -0.102877
 C   -2.034236   -1.970874    0.790778
 C   -0.688486   -1.957784    0.069638
 C    0.304338   -1.018309    0.745128
 C    1.590717   -0.881809   -0.069744
 C    2.437173    0.295244    0.427675
 C    3.799124    0.297999   -0.337988
 F    4.524229    1.385178   -0.051588
 F    4.541957   -0.770166    0.003744
 F    3.650934    0.260938   -1.665555
 N   -3.286893   -1.701035   -1.281707
 N   -1.330399    1.640046   -1.005468
 O    1.780548    1.484702    0.163912
 O    2.729833    0.251859    1.792968
 H   -5.953843    2.581371    1.297704
 H   -4.937900    3.352577    0.018246
 H   -4.214960    0.789475    1.597356
 H   -3.191400    1.562618    0.311035
 H   -5.062410    1.249236   -1.351928
 H   -6.076750    0.472716   -0.072504
 H   -4.062606   -2.632409    0.485810
 H   -2.853192   -3.542959   -0.442918
 H   -1.970921   -2.554464    1.710660
 H   -2.303967   -0.946717    1.055216
 H   -0.864951   -1.626106   -0.953907
 H   -0.279778   -2.969254    0.026702
 H    0.534307   -1.378580    1.749937
 H   -0.150547   -0.032047    0.840667
 H    1.344244   -0.683488   -1.113734
 H    2.184173   -1.797606   -0.024119
 H   -3.553736   -0.764145   -0.993800
 H   -4.023696   -2.062051   -1.877694
 H   -1.448391    0.735484   -1.448540
 H   -0.364081    1.705884   -0.703101
 H   -1.467618    2.344954   -1.720520
 H    2.121696    2.165965    0.759282
 H    2.973851   -0.640228    2.063912
