41 
6un3_ligand_dft.xyz
 C    1.377494   -0.906220    1.571162
 O    1.359112   -0.435533    2.673821
 C    0.356136   -1.547088    0.607131
 C    1.422175   -1.216409   -0.479273
 S    1.213954    0.372326   -1.350524
 C    2.995564    0.785689   -1.032328
 C    3.869844    0.127634   -2.108430
 C    3.187412    2.300825   -1.038003
 C    3.275133    0.194316    0.398143
 C    4.750477   -0.126219    0.566852
 O    5.592018    0.729063    0.710339
 O    5.030666   -1.432844    0.503350
 N    2.376897   -0.924291    0.595493
 N   -0.930565   -0.948114    0.534653
 C   -2.061823   -1.696120    0.442040
 O   -2.071957   -2.913101    0.443932
 C   -3.384657   -0.910138    0.331043
 C   -4.013253   -1.314440   -0.994243
 O   -5.217983   -1.874469   -0.832245
 O   -3.500543   -1.142963   -2.073915
 C   -3.267948    0.591335    0.450771
 C   -2.910977    1.437476   -0.564915
 S   -2.817442    3.069896   -0.034133
 C   -3.249586    2.628905    1.574224
 C   -3.457370    1.287858    1.687152
 H    0.227686   -2.621991    0.751349
 H    1.714931   -2.021058   -1.155174
 H    4.921968    0.394981   -1.959118
 H    3.567111    0.479544   -3.097705
 H    3.787016   -0.963484   -2.092091
 H    3.000846    2.712963   -2.034460
 H    4.219851    2.532160   -0.757050
 H    2.514552    2.788550   -0.326566
 H    3.047541    0.955420    1.153258
 H    5.993782   -1.507961    0.604441
 H   -1.000958    0.059709    0.503309
 H   -4.016579   -1.292635    1.136521
 H   -5.538651   -2.103745   -1.720136
 H   -2.709092    1.173181   -1.593933
 H   -3.327784    3.381646    2.346201
 H   -3.732949    0.798337    2.614434
