40 
6uvp_ligand_xtb.xyz
 C   -2.350179   -1.051766    0.002904
 C    3.988182   -1.447306    0.115150
 C   -6.024359   -0.696063    0.735305
 C   -3.743097   -0.501603    0.052839
 C   -6.229509    0.523254    0.110291
 C   -5.176444    1.176500   -0.516269
 C   -4.743862   -1.218466    0.702906
 F   -7.451421    1.080025    0.107390
 N   -3.960585    0.669605   -0.541271
 O   -2.043916   -2.113693    0.510419
 N   -1.495094   -0.248617   -0.661033
 C   -0.122701   -0.565934   -0.846290
 C    0.606649   -0.058938   -2.055034
 C    0.906827    0.520014   -0.700402
 C    2.247713    0.319069   -0.014697
 N    2.782995   -0.986489   -0.333815
 C    2.082144    0.555880    1.515300
 O    2.294686    1.929602    1.708177
 C    3.392076    2.264296    0.889170
 C    3.208075    1.475429   -0.421897
 C    4.511529    0.970889   -1.010662
 S    5.313293   -0.231280    0.091285
 N    4.126797   -2.656208    0.424785
 H   -6.841350   -1.204582    1.223055
 H   -5.322291    2.128557   -1.007107
 H   -4.496235   -2.161509    1.163402
 H   -1.870867    0.614702   -1.029436
 H    0.074009   -1.565144   -0.477562
 H    0.064891    0.550379   -2.762289
 H    1.344468   -0.705169   -2.503780
 H    0.510511    1.508161   -0.494588
 H    2.096540   -1.729691   -0.287371
 H    1.086969    0.304866    1.881078
 H    2.832875   -0.037631    2.059450
 H    3.388571    3.344781    0.749178
 H    4.331849    1.962579    1.374981
 H    2.720011    2.103167   -1.172645
 H    4.338851    0.474902   -1.966256
 H    5.222847    1.784670   -1.145003
 H    5.065241   -2.959632    0.646692
