53 
6uwp_ligand_dft.xyz
 C    6.513372   -0.213489    0.137294
 C    0.647204   -0.092913    2.085693
 C   -5.302220   -2.836454   -1.136411
 N   -4.627760   -1.436309    1.103569
 C    2.246353   -0.698325    0.162405
 C   -0.243241    3.308793    0.604719
 C   -4.030707   -1.278365   -0.093901
 C   -5.591882   -2.349418    1.148573
 O    2.070513   -1.905422    0.269368
 N    3.273554   -0.160164   -0.551068
 C    4.337831   -0.993634   -1.084844
 C    5.440645   -1.250792   -0.084112
 C    6.845018   -1.511694   -0.552749
 C    7.701649   -2.549673    0.133256
 C    1.313882    0.294757    0.781903
 C   -0.147881   -0.076083    0.824484
 C   -1.219149    0.962291    0.502094
 N   -0.968766    2.253760    1.136090
 C   -1.356087    1.066787   -1.037604
 C   -1.827969    2.453590   -1.456550
 S   -0.530722    3.678454   -1.110057
 N    0.542944    4.097046    1.227485
 C   -2.601998    0.445778    0.948607
 N   -3.030140   -0.367566   -0.167683
 C   -2.339219   -0.058294   -1.408768
 N   -4.328458   -1.936968   -1.230832
 C   -5.985265   -3.099326    0.045492
 H    6.483240    0.693829   -0.461998
 H    6.882894   -0.065710    1.148441
 H    0.908003   -1.065161    2.490342
 H    0.522834    0.695191    2.823288
 H   -5.544771   -3.369785   -2.053962
 H   -6.073832   -2.482649    2.115609
 H    3.454027    0.828102   -0.455856
 H    3.879057   -1.935026   -1.395314
 H    4.741436   -0.502647   -1.977931
 H    5.111399   -1.804809    0.792738
 H    6.999175   -1.439389   -1.628732
 H    8.767377   -2.335726   -0.003509
 H    7.500707   -2.571975    1.210284
 H    7.502513   -3.550925   -0.264097
 H    1.546831    1.349312    0.652722
 H   -0.363450   -1.063194    0.419592
 H   -0.889107    2.194577    2.143839
 H   -0.384698    0.888357   -1.507780
 H   -2.760665    2.733243   -0.956010
 H   -1.995576    2.495806   -2.536313
 H    0.685982    3.791842    2.192043
 H   -3.282556    1.290419    1.122744
 H   -2.554721   -0.145902    1.866627
 H   -3.046456    0.252854   -2.186635
 H   -1.818531   -0.944750   -1.786904
 H   -6.775306   -3.837577    0.102305
