63 
7upj_ligand_xtb.xyz
 C    1.159315    1.461206    0.426229
 C    1.661150    1.229127    1.757237
 O    1.525777    1.965428    2.709927
 O    2.361265    0.062674    1.963429
 C    2.484902   -0.883762    1.021477
 C    1.961895   -0.747034   -0.223117
 C    1.330072    0.508358   -0.545996
 O    0.945945    0.759176   -1.810314
 C   -1.106518    2.317701    0.340027
 C   -1.858101    2.570536    1.481291
 C   -3.151891    2.090236    1.590743
 C   -3.695724    1.294996    0.596943
 C   -2.944366    1.027041   -0.540122
 C   -1.681676    1.579471   -0.684411
 C    0.347789    2.734569    0.265003
 C    0.679459    3.541787   -0.971140
 C    0.421317    5.017998   -0.946035
 C    1.827862    4.502989   -0.912566
 C    3.331890   -2.033361    1.465580
 C    4.810036   -1.776696    1.122585
 C    5.066469   -1.304861   -0.310031
 C    4.565207   -2.257267   -1.405573
 C    3.291477   -1.795629   -2.117734
 C    2.029981   -1.846692   -1.246526
 N   -3.380455    0.135292   -1.541600
 S   -2.510647   -1.298843   -1.641910
 O   -1.173432   -1.026507   -2.095801
 O   -3.311259   -2.194246   -2.419166
 C   -2.441249   -1.846153    0.060153
 C   -3.458277   -2.646472    0.541313
 C   -3.460391   -2.999552    1.880888
 C   -2.456587   -2.537467    2.718736
 C   -1.442464   -1.732803    2.223500
 C   -1.433690   -1.384160    0.883167
 H    0.636634   -0.047978   -2.251696
 H   -1.423693    3.135113    2.292002
 H   -3.732759    2.307760    2.474718
 H   -4.688483    0.880215    0.703217
 H   -1.147190    1.382721   -1.595235
 H    0.571087    3.345701    1.145552
 H    0.515391    3.028675   -1.906674
 H    0.066805    5.493582   -1.847771
 H    0.016204    5.447556   -0.042434
 H    2.443506    4.625233   -1.790721
 H    2.374578    4.582432    0.014977
 H    2.995184   -2.954923    0.994439
 H    3.239166   -2.139778    2.547029
 H    5.194152   -1.013575    1.802153
 H    5.366806   -2.697814    1.306326
 H    4.619880   -0.319990   -0.453897
 H    6.146753   -1.180849   -0.412358
 H    5.341516   -2.354789   -2.167577
 H    4.405809   -3.252384   -0.986254
 H    3.131598   -2.445334   -2.981501
 H    3.434783   -0.779640   -2.491444
 H    1.985233   -2.814340   -0.744636
 H    1.146608   -1.795064   -1.889459
 H   -4.366792   -0.079513   -1.513126
 H   -4.220263   -2.989023   -0.141448
 H   -4.245479   -3.629033    2.271291
 H   -2.464930   -2.807318    3.763958
 H   -0.663888   -1.369698    2.876440
 H   -0.658399   -0.760347    0.471556
