57 
8cpa_ligand_xtb.xyz
 C    3.078561    1.618002   -0.122559
 C    1.583507    3.392628    0.317968
 C    0.198881    2.854500    0.570360
 C   -0.135432    2.393870    1.836835
 C   -0.745878    2.809389   -0.444294
 C   -1.401526    1.898918    2.085498
 C   -2.015348    2.319283   -0.193167
 C   -2.346149    1.866161    1.072036
 C    3.774374   -1.392072   -0.420118
 C    4.737919   -0.190612   -0.317360
 C    6.016226   -0.569488    0.411133
 C    1.679523   -1.997171   -1.466702
 C   -0.749457   -2.467824    1.266853
 C   -1.624597   -1.525989    0.468093
 C   -3.011472   -2.142514    0.224199
 C   -3.992362   -1.094958   -0.222842
 C   -3.898336   -0.539138   -1.492453
 C   -4.984511   -0.646053    0.638769
 C   -4.781198    0.448914   -1.890247
 C   -5.871207    0.339344    0.239148
 C   -5.770100    0.890233   -1.026495
 O    2.749930    1.576897   -1.299941
 O    2.598542    2.490268    0.766753
 O    3.776387   -2.300606    0.375598
 O    0.932712   -0.212972    0.581669
 O    0.418282    0.336239   -1.876424
 O   -1.003954   -1.282985   -0.772929
 O    0.183703   -3.051368    0.789456
 O   -1.134217   -2.595005    2.531304
 N    4.052079    0.863433    0.415482
 N    2.945096   -1.308250   -1.490435
 P    0.517540   -0.757442   -0.717512
 H    1.731258    3.600504   -0.746802
 H    1.749739    4.307061    0.897020
 H    0.608610    2.412201    2.618439
 H   -0.489318    3.156203   -1.434823
 H   -1.652492    1.534708    3.071338
 H   -2.746991    2.281088   -0.985746
 H   -3.339224    1.486102    1.263376
 H    4.952316    0.197647   -1.319022
 H    5.765953   -1.076422    1.339947
 H    6.611944    0.314373    0.623411
 H    6.597501   -1.252480   -0.201616
 H    1.775671   -2.879519   -0.838730
 H    1.364535   -2.264558   -2.474801
 H   -1.716368   -0.590376    1.034586
 H   -2.899473   -2.913325   -0.541208
 H   -3.350868   -2.604078    1.152749
 H   -3.119342   -0.875312   -2.158820
 H   -5.063587   -1.070667    1.629828
 H   -4.698689    0.876671   -2.878851
 H   -6.639407    0.679275    0.918423
 H   -6.459554    1.661192   -1.337853
 H    1.131864    0.986363   -1.761646
 H   -0.517953   -3.174250    3.010472
 H    4.099895    0.830104    1.422239
 H    2.941070   -0.423435   -1.986382
