24 
9abp_ligand_dft.xyz
 C    0.422467    1.421914   -0.194335
 C    1.480133    0.386025    0.160190
 C    1.175456   -0.917540   -0.560028
 C   -0.243099   -1.382957   -0.227372
 C   -1.233617   -0.242404   -0.466977
 C   -2.640233   -0.547414    0.026091
 O    0.727483    2.579319    0.508329
 O    2.777210    0.782035   -0.231538
 O    2.063014   -1.938490   -0.152020
 O   -0.311068   -1.797880    1.115887
 O   -0.843971    0.954495    0.202269
 O   -3.520214    0.511574   -0.274334
 H    0.422383    1.603687   -1.286139
 H    1.416266    0.218989    1.244178
 H    1.259848   -0.743979   -1.644604
 H   -0.509802   -2.211201   -0.904488
 H   -1.274620   -0.048476   -1.552331
 H   -2.598477   -0.754536    1.102742
 H   -3.022024   -1.438031   -0.480848
 H    0.111072    3.271581    0.239702
 H    2.972122    1.608749    0.228402
 H    2.943656   -1.539291   -0.121067
 H    0.503626   -2.299258    1.270406
 H   -3.130334    1.297581    0.129879
