106 
9hvp_ligand_xtb.xyz
 C   -1.895637    0.816402    2.216967
 O   -1.873048    0.831821    1.001237
 O   -3.026620    0.845025    2.943345
 C   -4.239688    0.851431    2.185146
 C   -4.351150    2.039195    1.266407
 C   -4.679666    1.868807   -0.070896
 C   -4.776043    2.965699   -0.908491
 C   -4.534923    4.238646   -0.420275
 C   -4.199693    4.412555    0.911743
 C   -4.111858    3.317886    1.752826
 N   -0.800043    0.806775    2.998340
 C    0.509349    0.560777    2.421151
 C    0.630673   -0.947916    2.137240
 O    0.207327   -1.770238    2.940865
 C    1.611451    1.063824    3.362030
 C    2.981078    0.755791    2.765536
 C    1.460716    2.565905    3.588757
 C    2.505779   -3.310480    0.925677
 C    1.307671   -2.542458    0.336972
 N    1.167711   -1.230344    0.951718
 C    0.033026   -3.421701    0.411768
 O   -0.056932   -4.144433    1.605423
 C   -1.289583   -2.635042    0.186438
 N   -1.145695   -1.381851   -0.526773
 C   -2.320937   -3.541809   -0.509452
 C    3.817042   -2.720004    0.495774
 C    4.699338   -2.178679    1.420472
 C    5.904534   -1.629987    1.015809
 C    6.250475   -1.626761   -0.323784
 C    5.385182   -2.180368   -1.254498
 C    4.178456   -2.719871   -0.847623
 C   -3.653908   -2.858062   -0.574781
 C   -4.061423   -2.208646   -1.732844
 C   -5.273152   -1.541152   -1.778904
 C   -6.094595   -1.513997   -0.664321
 C   -5.696162   -2.157418    0.496164
 C   -4.483333   -2.822000    0.540200
 N    0.640644    0.589405   -2.833261
 C   -0.600733    0.281320   -2.154476
 C   -0.611793   -1.203227   -1.738746
 O   -0.152704   -2.080957   -2.448943
 C   -1.826866    0.619003   -3.018668
 C   -1.947062    2.131213   -3.190981
 C   -1.786626   -0.088364   -4.373166
 C    1.784987    0.703519   -2.137761
 O    1.862346    0.737921   -0.924209
 O    2.845712    0.828089   -2.958385
 C    4.109437    0.976245   -2.311568
 C    4.179004    2.178263   -1.407568
 C    3.605410    3.382201   -1.794582
 C    3.658328    4.482043   -0.957552
 C    4.295449    4.391149    0.268264
 C    4.876730    3.195435    0.654271
 C    4.815335    2.090815   -0.177196
 H   -4.309163   -0.076794    1.606421
 H   -5.026532    0.867947    2.944225
 H   -4.852591    0.874289   -0.454885
 H   -5.033338    2.824998   -1.947798
 H   -4.603731    5.093331   -1.077100
 H   -4.007281    5.403148    1.297185
 H   -3.847048    3.449561    2.792423
 H   -0.926423    0.575477    3.972439
 H    0.555868    1.109913    1.475700
 H    1.507065    0.538840    4.318741
 H    3.764521    1.172627    3.393761
 H    3.065793    1.188907    1.771546
 H    3.137630   -0.315423    2.686564
 H    0.469093    2.807977    3.962202
 H    1.617915    3.097938    2.653131
 H    2.196644    2.912256    4.310262
 H    2.426460   -3.312334    2.013168
 H    2.439025   -4.345274    0.583252
 H    1.499267   -2.351802   -0.721328
 H    1.472267   -0.451617    0.373956
 H    0.133712   -4.172886   -0.379903
 H   -0.014337   -3.491002    2.333559
 H   -1.672920   -2.371796    1.178608
 H   -1.475712   -0.553261   -0.042187
 H   -1.957139   -3.763330   -1.513280
 H   -2.388885   -4.469346    0.060758
 H    4.449322   -2.200057    2.471777
 H    6.577086   -1.209798    1.749637
 H    7.190995   -1.201680   -0.642945
 H    5.656623   -2.196762   -2.300535
 H    3.512136   -3.154015   -1.579344
 H   -3.425526   -2.234846   -2.605679
 H   -5.579434   -1.042300   -2.687471
 H   -7.041685   -0.995431   -0.698616
 H   -6.335301   -2.142350    1.367463
 H   -4.176670   -3.325891    1.446020
 H    0.712950    0.346274   -3.808912
 H   -0.629446    0.895931   -1.249042
 H   -2.698208    0.263481   -2.458382
 H   -2.794363    2.370679   -3.828919
 H   -1.045996    2.534525   -3.647403
 H   -2.093902    2.610991   -2.226372
 H   -1.474639   -1.123386   -4.256765
 H   -1.098169    0.409444   -5.053451
 H   -2.772689   -0.073375   -4.831606
 H    4.822295    1.068336   -3.136380
 H    4.331184    0.068585   -1.738989
 H    3.106334    3.449754   -2.750835
 H    3.201469    5.411928   -1.263203
 H    4.335574    5.249535    0.922579
 H    5.371293    3.118801    1.611308
 H    5.253928    1.152471    0.130929
