42 
13gs_ligand_dft.xyz
 C   -4.774177    0.903824    0.667389
 C   -4.932764    1.743775   -0.438536
 C   -4.665150    3.092700   -0.259300
 C   -4.285564    3.557595    0.997588
 C   -4.190280    2.634544    2.030572
 N   -4.413647    1.327320    1.876383
 N   -5.030121   -0.483693    0.594731
 S   -4.409246   -1.465299   -0.617965
 O   -4.877847   -0.944873   -1.888467
 O   -4.701009   -2.814244   -0.173551
 C   -2.645087   -1.216492   -0.549730
 C   -2.065023   -0.215224   -1.321858
 C   -0.698712    0.009866   -1.208121
 C    0.069652   -0.761839   -0.337825
 C   -0.524016   -1.772813    0.426534
 C   -1.886186   -1.998906    0.322054
 N    1.455071   -0.440210   -0.304409
 N    2.132461   -1.166244    0.454192
 C    3.510703   -0.853009    0.497360
 C    4.114092    0.174187   -0.233671
 C    5.479169    0.410807   -0.141925
 C    6.262405   -0.396700    0.709242
 C    5.656042   -1.416459    1.447072
 C    4.293169   -1.643756    1.336622
 C    6.114198    1.469317   -1.000321
 O    7.575468   -0.125839    0.803358
 O    5.421537    2.630088   -1.076645
 O    7.131523    1.322644   -1.617770
 H   -5.264874    1.342751   -1.388037
 H   -4.771150    3.779417   -1.093605
 H   -4.079053    4.607043    1.175275
 H   -3.912766    2.949273    3.033680
 H   -4.938073   -0.928270    1.504118
 H   -2.672056    0.364321   -2.007690
 H   -0.206748    0.778885   -1.794164
 H    0.093363   -2.368280    1.088638
 H   -2.364542   -2.786356    0.895035
 H    3.492605    0.762774   -0.902093
 H    6.258923   -2.032209    2.109783
 H    3.813710   -2.437139    1.900713
 H    7.993560   -0.748116    1.411467
 H    4.706496    2.629762   -0.426243
