24 
184l_ligand_xtb.xyz
 C   -0.369432   -0.148091    0.496474
 C   -1.078427    1.039716    0.619147
 C   -2.396264    1.123519    0.204780
 C   -3.024611    0.017746   -0.340626
 C   -2.328075   -1.172448   -0.466349
 C   -1.011688   -1.252712   -0.050567
 C    1.069961   -0.240887    0.911972
 C    2.017643   -0.208036   -0.299560
 C    3.454484   -0.458335    0.150945
 C    1.913932    1.125840   -1.033010
 H   -0.594441    1.907573    1.044791
 H   -2.933924    2.055219    0.307532
 H   -4.053144    0.081925   -0.664274
 H   -2.813639   -2.040557   -0.888529
 H   -0.473566   -2.185444   -0.147356
 H    1.229820   -1.176001    1.454659
 H    1.319270    0.586378    1.579696
 H    1.720967   -1.006761   -0.988531
 H    3.774326    0.316081    0.845373
 H    3.542180   -1.422095    0.648122
 H    4.128040   -0.451598   -0.703130
 H    0.895149    1.298045   -1.372513
 H    2.202229    1.943907   -0.375598
 H    2.571596    1.135461   -1.899488
