24 
186l_ligand_xtb.xyz
 C    0.413042   -0.373768    0.532922
 C    1.337599   -1.235639   -0.045161
 C    2.550327   -0.763401   -0.512403
 C    2.857231    0.583028   -0.409769
 C    1.945899    1.450205    0.166673
 C    0.733595    0.973664    0.634296
 C   -0.916506   -0.894266    0.997911
 C   -1.875268   -1.111997   -0.181668
 C   -2.232126    0.174079   -0.927000
 C   -3.130897    1.103919   -0.120204
 H    1.104041   -2.288226   -0.125446
 H    3.259178   -1.446933   -0.957295
 H    3.803610    0.953661   -0.775551
 H    2.179295    2.501887    0.252435
 H    0.028899    1.657953    1.085760
 H   -1.361917   -0.199131    1.710382
 H   -0.774162   -1.851271    1.506130
 H   -2.791558   -1.578425    0.188152
 H   -1.407105   -1.805711   -0.884012
 H   -2.747353   -0.094293   -1.852560
 H   -1.313456    0.697501   -1.200609
 H   -4.048649    0.593806    0.165627
 H   -2.633423    1.445423    0.783559
 H   -3.394784    1.978819   -0.710154
