18 
187l_ligand_dft.xyz
 C   -1.416325    0.005613   -0.000373
 C   -0.694065   -1.192143   -0.000396
 C    0.693998   -1.192092   -0.000226
 C    1.416333    0.005582    0.000027
 C    0.696745    1.198656   -0.000180
 C   -0.696695    1.198617   -0.000445
 C   -2.924580   -0.006516    0.000625
 C    2.924581   -0.006567    0.000477
 H   -1.229953   -2.138918   -0.000628
 H    1.229800   -2.138937   -0.000526
 H    1.230959    2.145940   -0.000255
 H   -1.230880    2.145921   -0.000829
 H   -3.317826   -0.535750   -0.874838
 H   -3.316628   -0.513356    0.889849
 H   -3.332023    1.008748   -0.011802
 H    3.316931   -0.521966    0.884603
 H    3.317560   -0.527332   -0.880210
 H    3.332110    1.008747   -0.002419
