18 
188l_ligand_ani.xyz
 C    0.474046    0.703340    0.000659
 C    0.474610   -0.703441   -0.000740
 C   -0.742267   -1.379959   -0.003419
 C   -1.954808   -0.694032   -0.002079
 C   -1.955290    0.693213    0.001932
 C   -0.743003    1.379492    0.003514
 C    1.770565    1.473872   -0.003859
 C    1.771876   -1.472866    0.003822
 H   -0.739212   -2.469805   -0.006208
 H   -2.892744   -1.244725   -0.003751
 H   -2.893441    1.243475    0.003792
 H   -0.739843    2.469285    0.007105
 H    2.400185    1.208583    0.852782
 H    2.355489    1.271140   -0.908536
 H    1.587022    2.550772    0.038091
 H    2.401086   -1.207332   -0.853112
 H    2.357064   -1.268960    0.908151
 H    1.590023   -2.550146   -0.037299
