75 
1a07_ligand_ani.xyz
 C    4.457189    1.933012    0.273397
 O    3.974329    3.044992    0.074509
 C    5.650734    1.714684    1.170901
 N    3.970263    0.815522   -0.337545
 C    2.719003    0.863633   -1.057767
 C    1.531182    0.745324   -0.087136
 O    1.663836    0.380996    1.070889
 C    2.677647   -0.216051   -2.156049
 C    2.590120   -1.632944   -1.632854
 C    1.349930   -2.231528   -1.385093
 C    3.747736   -2.375405   -1.385249
 C    1.272372   -3.545371   -0.934556
 C    3.672329   -3.690112   -0.933691
 C    2.433507   -4.283677   -0.712980
 N    0.329989    1.075455   -0.633668
 C   -0.932898    1.027369    0.061667
 C   -1.836788    0.035578   -0.691564
 O   -1.801041    0.009999   -1.915663
 C   -1.631537    2.400714    0.087755
 C   -0.847501    3.481991    0.839623
 C    0.494989    3.766532    0.194337
 O    1.487847    3.749736    1.082208
 O    0.640708    3.985786   -0.989112
 N   -2.681718   -0.770551    0.018041
 C   -3.596759   -1.612092   -0.758487
 C   -4.820131   -0.859602   -1.286208
 C   -5.684736   -0.217634   -0.201696
 C   -6.937064    0.454679   -0.763194
 C   -7.790068    1.111891    0.318823
 C   -2.774236   -0.838531    1.471906
 C   -1.956445   -1.974345    2.091788
 C   -0.443963   -1.792162    1.996117
 C    0.355279   -2.935963    2.617122
 C    1.859144   -2.683229    2.543816
 H    5.390829    1.068583    2.016309
 H    5.982530    2.681084    1.550206
 H    6.468562    1.240952    0.619395
 H    4.186450   -0.075315    0.092309
 H    2.674792    1.848143   -1.534771
 H    1.828579   -0.010700   -2.821574
 H    3.581230   -0.090010   -2.761194
 H    0.434106   -1.663557   -1.542820
 H    4.722458   -1.924625   -1.565718
 H    0.300766   -3.999349   -0.754124
 H    4.584173   -4.252742   -0.754203
 H    2.374737   -5.310021   -0.358401
 H    0.271597    1.283875   -1.619231
 H   -0.707622    0.694406    1.077072
 H   -1.791118    2.725288   -0.946107
 H   -2.624366    2.285446    0.543200
 H   -0.687180    3.215732    1.889866
 H   -1.415165    4.420047    0.812796
 H    2.345000    3.743293    0.598212
 H   -3.912735   -2.442660   -0.113830
 H   -3.032390   -2.028753   -1.598539
 H   -4.480092   -0.092886   -1.993591
 H   -5.429518   -1.569383   -1.863295
 H   -5.097810    0.532967    0.347812
 H   -5.986807   -0.976845    0.537912
 H   -6.637312    1.208457   -1.503987
 H   -7.537323   -0.288812   -1.305775
 H   -8.677921    1.592118   -0.105450
 H   -8.128284    0.374150    1.055985
 H   -7.219629    1.878611    0.856377
 H   -2.485374    0.128877    1.899130
 H   -3.830169   -0.986297    1.728385
 H   -2.239778   -2.059231    3.150393
 H   -2.247430   -2.921614    1.615046
 H   -0.136405   -1.686936    0.945505
 H   -0.152860   -0.853714    2.491391
 H    0.048570   -3.075694    3.663753
 H    0.111099   -3.874235    2.096800
 H    2.173904   -2.510730    1.507048
 H    2.432351   -3.531213    2.933258
 H    2.136185   -1.792326    3.119618
