45 
1a0t_ligand_ani.xyz
 C   -0.657108    0.533591   -1.209937
 C   -1.101245    1.873505   -0.639937
 C   -1.856104    1.643929    0.658488
 C   -2.992844    0.652639    0.442994
 C   -2.434714   -0.634312   -0.186297
 C   -3.502099   -1.633162   -0.593371
 O    0.257647   -0.010781   -0.286068
 O    0.083877    2.630180   -0.444332
 O   -2.343068    2.894503    1.097709
 O   -3.570508    0.431325    1.709212
 O   -1.750949   -0.318512   -1.401608
 O   -4.269430   -1.967593    0.559796
 C    0.967090   -1.833890   -1.761554
 C    1.364196   -0.737474   -0.772223
 C    2.472465    0.218307   -1.249015
 C    3.096441    0.638752    0.080658
 C    3.002512   -0.628835    0.915816
 C    2.701483   -0.372972    2.386637
 O    0.058357   -2.729358   -1.171577
 O    1.921539   -1.391073    0.352980
 O    2.067329    1.291251   -2.055295
 O    4.429019    1.067703   -0.019575
 O    2.607338   -1.569775    3.117844
 H   -0.188614    0.669676   -2.189522
 H   -1.764352    2.378114   -1.354537
 H   -1.163483    1.213932    1.399412
 H   -3.724255    1.101258   -0.255207
 H   -1.745646   -1.105137    0.530571
 H   -3.009350   -2.518221   -1.016664
 H   -4.130531   -1.171428   -1.366603
 H   -0.164991    3.440694    0.020209
 H   -2.858980    2.717334    1.897294
 H   -4.077024   -0.396681    1.647682
 H   -5.077769   -2.412144    0.282472
 H    0.475409   -1.409341   -2.641793
 H    1.882182   -2.346854   -2.099122
 H    3.208770   -0.360760   -1.820847
 H    2.448543    1.414409    0.525328
 H    3.926821   -1.212471    0.813265
 H    3.517301    0.210197    2.826849
 H    1.772696    0.219504    2.459796
 H    0.460265   -3.003050   -0.335079
 H    1.551452    1.902404   -1.496266
 H    4.440318    1.830798   -0.613573
 H    1.931567   -2.105662    2.680100
