52 
1a30_ligand_ani.xyz
 N    2.060727   -0.911968    0.239351
 C    2.846410    0.319344    0.566068
 C    1.809406    1.354805    1.024163
 O    1.480011    1.413068    2.193665
 C    3.736646    0.744112   -0.605396
 C    5.170563    0.216163   -0.525380
 C    5.300438   -1.284137   -0.605119
 O    6.581766   -1.676646   -0.588553
 O    4.390639   -2.085965   -0.676792
 N    1.179029    2.114059    0.047323
 C   -0.269606    2.211230    0.188735
 C   -0.867789    0.825799   -0.157481
 O   -0.317262    0.103205   -0.987717
 C   -0.827806    3.331004   -0.684459
 C   -2.247254    3.699804   -0.327441
 O   -2.896291    3.227647    0.583258
 O   -2.737354    4.652408   -1.133768
 N   -1.959700    0.475941    0.552410
 C   -2.512518   -0.864657    0.611256
 C   -1.562401   -1.786496    1.372530
 O   -2.224869   -2.761787    2.015133
 C   -2.860284   -1.427323   -0.782269
 C   -3.586783   -2.777035   -0.796955
 C   -3.810425   -3.210652   -2.247553
 C   -4.917214   -2.734191   -0.045243
 O   -0.358862   -1.686500    1.409913
 H    1.536055   -1.234394    1.068201
 H    2.724732   -1.637389   -0.092249
 H    1.352067   -0.707832   -0.491262
 H    3.454593    0.118234    1.452302
 H    3.273152    0.406285   -1.539686
 H    3.789492    1.837273   -0.640596
 H    5.649293    0.536308    0.408299
 H    5.780450    0.636022   -1.332962
 H    6.576445   -2.647230   -0.645549
 H    1.460232    1.893309   -0.902888
 H   -0.473052    2.439076    1.238940
 H   -0.784809    3.078717   -1.750969
 H   -0.206202    4.222556   -0.545390
 H   -3.641687    4.836885   -0.828368
 H   -2.447476    1.225750    1.026421
 H   -3.424461   -0.793912    1.209432
 H   -1.557128   -3.315365    2.454758
 H   -3.485129   -0.672074   -1.278024
 H   -1.939056   -1.491446   -1.367141
 H   -2.940934   -3.521357   -0.313482
 H   -4.459912   -2.496692   -2.770750
 H   -4.287634   -4.195816   -2.297069
 H   -2.862659   -3.266467   -2.795188
 H   -5.561633   -1.936192   -0.437341
 H   -4.781714   -2.568427    1.027330
 H   -5.453926   -3.682094   -0.164192
