85 
1a46_ligand_xtb.xyz
 C   -0.103340   -1.657263    2.084642
 C   -0.301561   -1.057061    3.476416
 C    0.484375    0.263759    3.445320
 C    2.561605    0.804488    2.132013
 C    3.067583    0.805851    0.694422
 C    3.040515   -0.611170    0.118611
 C    1.829356   -1.445093    0.559485
 N    1.183797    0.285098    2.132031
 N    1.158116   -1.060354    1.665687
 O    1.542147   -2.446633   -0.062494
 C   -1.198580   -1.170441    1.094836
 O   -1.903068   -0.224069    1.377717
 N    2.910334   -0.585700   -1.366893
 C    4.337843   -1.401656    0.435121
 C    5.523355   -0.774708   -0.257894
 C    6.340086    0.130150    0.411172
 C    7.412638    0.719937   -0.237067
 C    7.675805    0.420630   -1.564030
 C    6.876698   -0.488620   -2.236617
 C    5.801950   -1.081799   -1.591507
 N   -1.220827   -1.845283   -0.063836
 C   -1.881717   -1.374717   -1.273433
 C   -1.068165   -0.193369   -1.894675
 O    0.198913   -0.644955   -2.338040
 C   -3.366209   -1.045122   -1.066083
 C   -4.187809   -2.309296   -0.787633
 C   -5.689835   -2.008834   -0.704769
 C   -6.485648   -3.294881   -0.497509
 N   -7.956654   -3.034489   -0.466677
 N   -1.657405    1.892291   -0.806236
 C   -0.781451    0.918011   -0.879020
 O    0.267396    0.862728   -0.212677
 C   -1.581540    3.047190    0.080766
 C   -1.638071    4.338131   -0.741907
 C   -3.008624    4.558116   -1.378261
 C   -4.103082    4.537021   -0.316349
 C   -4.083777    3.219372    0.452271
 C   -2.720878    2.991660    1.103523
 H   -0.013501   -2.744168    2.081611
 H   -1.359125   -0.880697    3.664291
 H    0.082120   -1.725279    4.243898
 H   -0.170947    1.130531    3.517687
 H    1.220473    0.303488    4.248524
 H    3.173434    0.166350    2.775397
 H    2.559117    1.817021    2.538653
 H    4.086692    1.196216    0.664668
 H    2.432620    1.462674    0.097503
 H    0.629233    0.830477    1.397550
 H    3.836097   -0.345689   -1.787702
 H    2.652012   -1.549389   -1.647920
 H    2.132118    0.021113   -1.678035
 H    4.211310   -2.435369    0.106795
 H    4.503013   -1.415848    1.511914
 H    6.167637    0.345752    1.455881
 H    8.050768    1.403277    0.299628
 H    8.516423    0.873530   -2.063853
 H    7.098064   -0.752365   -3.258539
 H    5.253018   -1.862374   -2.103497
 H   -0.516967   -2.560961   -0.200823
 H   -1.813709   -2.201356   -1.990733
 H   -1.640944    0.220296   -2.733616
 H    0.078782   -1.188585   -3.126276
 H   -3.739985   -0.575333   -1.977661
 H   -3.476335   -0.345414   -0.238508
 H   -4.015154   -3.032592   -1.586732
 H   -3.855204   -2.757822    0.149158
 H   -6.005201   -1.526852   -1.632311
 H   -5.871456   -1.317847    0.120185
 H   -6.282774   -3.996038   -1.309065
 H   -6.202179   -3.766843    0.444667
 H   -8.270228   -2.609703   -1.350753
 H   -8.481490   -3.909931   -0.330227
 H   -8.199495   -2.392787    0.300891
 H   -2.478253    1.883152   -1.394618
 H   -0.615716    2.982102    0.593270
 H   -1.423441    5.169697   -0.070247
 H   -0.861530    4.320567   -1.509222
 H   -3.208748    3.795268   -2.136627
 H   -3.009385    5.521189   -1.887514
 H   -5.076593    4.680493   -0.784682
 H   -3.946279    5.361831    0.379312
 H   -4.324561    2.392016   -0.222844
 H   -4.847226    3.236167    1.230202
 H   -2.547758    3.774557    1.842065
 H   -2.702504    2.026264    1.612633
