43 
1a4g_ligand_dft.xyz
 C   -1.575754   -1.391144    2.518338
 O   -2.743476   -1.703375    1.930869
 O   -1.391648   -1.492790    3.708414
 C   -0.553567   -0.898137    1.550881
 C    0.602998   -0.396178    1.996855
 C    1.647255    0.134776    1.057548
 C    1.347121   -0.365909   -0.370602
 N    1.822785   -1.733342   -0.493000
 C    1.965851   -2.325864   -1.715128
 O    1.785151   -1.710542   -2.754426
 C    2.350797   -3.791386   -1.694132
 C   -0.152938   -0.296546   -0.704128
 O   -0.921124   -1.025792    0.254159
 C   -0.731302    1.106541   -0.916226
 O   -0.964400    1.758483    0.317509
 C   -2.041743    1.096881   -1.714221
 O   -2.479561    2.445214   -1.708271
 C   -3.139291    0.217346   -1.118658
 O   -4.329361    0.599468   -1.800923
 N    1.733082    1.574792    1.176230
 C    2.799500    2.259238    0.602436
 N    2.589197    3.636503    0.615303
 N    3.877314    1.791052    0.092274
 H   -3.322007   -2.004185    2.649998
 H    0.764776   -0.337857    3.065990
 H    2.621904   -0.274881    1.354293
 H    1.889048    0.239957   -1.101764
 H    1.811187   -2.311688    0.334757
 H    2.740715   -4.124995   -0.728353
 H    3.103016   -3.963612   -2.466409
 H    1.471184   -4.392040   -1.946651
 H   -0.284442   -0.835346   -1.646734
 H   -0.000421    1.675250   -1.511990
 H   -1.554965    2.495232    0.084110
 H   -1.834349    0.769397   -2.743588
 H   -3.431063    2.403993   -1.893873
 H   -3.218795    0.402992   -0.041088
 H   -2.916293   -0.844443   -1.268441
 H   -5.084285    0.234833   -1.327742
 H    0.827532    2.026626    1.067321
 H    2.208195    3.990259    1.483558
 H    3.428199    4.128402    0.336429
 H    3.865999    0.776050    0.028108
