80 
1a4h_ligand_ani.xyz
 O   -3.416545   -2.066282    1.077838
 O   -3.632811    1.468311    0.350159
 O   -0.219133    1.663819    1.362175
 O   -1.260178    1.666176    3.383290
 O    1.968190    2.163168   -2.211203
 O    3.322149    1.640177    1.058987
 O    3.005350   -3.170201    0.758585
 O    0.884811   -3.807135    2.455219
 O   -0.185102   -2.120300   -2.513903
 N   -2.220847   -2.302605   -0.856170
 N    0.956135    1.155771    3.191687
 C   -3.311413   -1.888896   -0.129415
 C   -4.397895   -1.233845   -0.930655
 C   -4.126577   -0.384745   -1.937258
 C   -2.878956    0.341774   -2.175746
 C   -1.996039    0.773663   -1.250675
 C   -2.272649    1.103152    0.193778
 C   -1.390165    2.259541    0.775079
 C   -1.062229    3.382419   -0.186581
 C    0.148206    3.820546   -0.562243
 C    1.521945    3.362082   -0.129488
 C    1.856505    2.013433   -0.800136
 C    3.153651    1.356280   -0.327924
 C    3.129496   -0.177887   -0.491088
 C    2.824832   -0.725159   -1.895648
 C    2.580340   -2.252852   -1.860163
 C    1.485001   -2.670973   -0.929401
 C    1.720211   -3.118749    0.337406
 C    0.640652   -3.392962    1.330782
 C   -0.717433   -3.092650    0.887590
 C   -0.968983   -2.635931   -0.355551
 C    0.105412   -2.461536   -1.375770
 C   -5.799562   -1.610811   -0.522399
 C   -4.151490    1.125382    1.624058
 C   -0.260031    1.513923    2.707998
 C   -2.301902    4.070303   -0.717342
 C    2.583265    4.424280   -0.442874
 C    4.664593    1.618177    1.486537
 C    3.928062   -0.380261   -2.899715
 C    3.444647   -4.240207    1.585192
 H    1.128137    2.534337   -2.512671
 H   -2.201525   -2.065674   -1.841211
 H    1.055435    1.094781    4.191180
 H    1.783170    1.175735    2.610998
 H   -4.907002   -0.201208   -2.676341
 H   -2.679718    0.559648   -3.224556
 H   -0.962442    0.939049   -1.559516
 H   -2.050528    0.224554    0.816476
 H   -1.967677    2.692810    1.595664
 H    0.153630    4.629111   -1.297946
 H    1.508477    3.186263    0.945679
 H    1.031275    1.322780   -0.567457
 H    3.982376    1.805720   -0.895711
 H    2.377496   -0.543049    0.222182
 H    4.088180   -0.587991   -0.144472
 H    1.888202   -0.273792   -2.245713
 H    3.509382   -2.766360   -1.586932
 H    2.294306   -2.567262   -2.869611
 H   -1.502468   -3.243813    1.608143
 H   -5.954123   -2.694490   -0.586253
 H   -5.969439   -1.331330    0.524708
 H   -6.547154   -1.110750   -1.147815
 H   -5.199286    1.437182    1.621336
 H   -4.091269    0.042540    1.791603
 H   -3.619133    1.641294    2.438177
 H   -2.964676    4.353431    0.107016
 H   -2.873528    3.396920   -1.365893
 H   -2.054779    4.970985   -1.288713
 H    2.294178    5.382629   -0.000660
 H    2.697884    4.550364   -1.524420
 H    3.555648    4.140656   -0.025415
 H    4.686910    1.990531    2.514602
 H    5.294749    2.268457    0.861216
 H    5.088591    0.604215    1.471400
 H    4.036650    0.701344   -3.017454
 H    4.894860   -0.792379   -2.581176
 H    3.696866   -0.800989   -3.885498
 H    3.272299   -4.009834    2.637315
 H    4.513391   -4.346423    1.387158
 H    2.922816   -5.168962    1.332711
