54 
1a4k_ligand_ani.xyz
 C    8.504107   -2.105142    0.356537
 C    7.004276   -2.068637    0.122449
 O    6.352656   -3.071326   -0.103361
 N    6.473201   -0.801649    0.171945
 C    5.133569   -0.405087    0.011524
 C    4.117037   -1.288474   -0.353138
 C    2.818692   -0.822239   -0.486107
 C    2.514809    0.523145   -0.278050
 C    3.532382    1.410876    0.074349
 C    4.826591    0.942212    0.223814
 N    1.169280    0.975520   -0.437907
 C    0.804084    2.248325   -0.888715
 C   -0.712350    2.321614   -0.992270
 C   -1.200734    0.934718   -0.562981
 C    0.050079    0.224720   -0.070244
 O    1.563693    3.155912   -1.137880
 O    0.079080   -0.803233    0.572379
 C   -1.316714    3.400661   -0.071863
 C   -1.009859    3.039259    1.389942
 C   -1.715497    1.715202    1.755592
 C   -3.402777    1.987550   -0.053775
 C   -2.841388    3.413760   -0.253734
 C   -2.312456    1.059491    0.502007
 N   -2.863213   -0.230550    0.903191
 C   -3.538715   -1.035495    0.021035
 O   -3.900783   -0.769726   -1.105372
 O   -3.763971   -2.242334    0.594832
 C   -4.642139   -3.065782   -0.145423
 C   -6.078907   -2.589903   -0.016131
 O   -6.485021   -1.758216    0.753170
 O   -6.863438   -3.263781   -0.874034
 H    9.031492   -1.792058   -0.550980
 H    8.813162   -1.445410    1.174028
 H    8.791043   -3.130683    0.587780
 H    7.112726   -0.051974    0.387506
 H    4.346635   -2.332735   -0.516247
 H    2.032887   -1.522605   -0.747168
 H    3.314899    2.461172    0.220809
 H    5.612118    1.641901    0.502446
 H   -0.964069    2.531488   -2.036466
 H   -1.599590    0.375118   -1.414874
 H   -0.880976    4.373954   -0.323356
 H    0.074144    2.939083    1.511742
 H   -1.337367    3.850411    2.048458
 H   -1.010885    1.012010    2.211590
 H   -2.531377    1.878308    2.469010
 H   -4.243103    1.977166    0.647072
 H   -3.767489    1.565580   -0.993344
 H   -3.098071    3.788640   -1.250871
 H   -3.283692    4.107089    0.471545
 H   -2.245005   -0.763644    1.501271
 H   -4.559110   -4.067601    0.281287
 H   -4.361613   -3.100212   -1.200782
 H   -7.763916   -2.921255   -0.747852
