31 
1a4m_ligand_ani.xyz
 N   -3.876077    0.977682    0.375077
 C   -2.851778    1.857262    0.305971
 N   -1.619908    1.533036    0.020555
 C   -1.479040    0.199218   -0.224192
 C   -2.446527   -0.790457   -0.176824
 C   -3.807314   -0.428942    0.154913
 O   -4.811925   -1.099508    0.261019
 N   -1.898907   -2.015352   -0.475023
 C   -0.642087   -1.775232   -0.699132
 N   -0.309703   -0.438632   -0.564774
 C    0.978645    0.192471   -0.790632
 C    1.493199    0.964768    0.428701
 O    1.106175    2.311820    0.411712
 C    3.005696    0.844437    0.262845
 O    3.470220    1.811578   -0.653378
 C    3.167360   -0.535233   -0.380133
 O    1.929958   -0.816129   -1.044009
 C    3.464775   -1.653551    0.601814
 O    2.476165   -1.638445    1.612217
 H   -4.807654    1.299389    0.610576
 H   -3.112724    2.887400    0.516209
 H    0.113854   -2.501948   -0.966324
 H    0.905207    0.865173   -1.656420
 H    1.165515    0.451353    1.340514
 H    0.132991    2.329981    0.310431
 H    3.532012    0.928619    1.226579
 H    2.905591    2.590270   -0.527902
 H    3.958370   -0.494820   -1.137411
 H    3.473077   -2.605765    0.052819
 H    4.470108   -1.491631    1.023221
 H    2.533502   -2.458128    2.116400
