56 
1a4q_ligand_ani.xyz
 C    0.291154   -0.298717    2.827986
 O    0.260429    0.924428    3.380551
 O    0.833226   -1.244406    3.359781
 C   -0.397801   -0.373460    1.513807
 C   -0.556308   -1.541280    0.872988
 C   -1.442683   -1.702468   -0.320761
 C   -2.089392   -0.335511   -0.703260
 N   -3.338124   -0.151757    0.016184
 C   -4.512755   -0.640600   -0.480409
 O   -4.559958   -1.227739   -1.551158
 C   -5.726099   -0.389523    0.390063
 C   -1.168533    0.835023   -0.340432
 O   -0.893288    0.808770    1.067010
 C    0.133646    0.861708   -1.168361
 O    0.277756    0.074124   -2.103758
 N    1.093736    1.753750   -0.826516
 C    2.397866    1.636522   -1.482802
 C    3.414407    0.834257   -0.658177
 C    3.075797   -0.630931   -0.465417
 C    2.933629   -1.167678    0.815322
 C    2.933264   -1.481824   -1.563505
 C    2.671815   -2.522558    0.997936
 C    2.678760   -2.838772   -1.387178
 C    2.550976   -3.364310   -0.104999
 C    0.880933    2.931715    0.012430
 C    0.382359    4.146344   -0.771470
 C    0.222827    5.378132    0.116108
 N   -0.679366   -2.311275   -1.470469
 H    0.729875    0.828488    4.226753
 H   -0.062304   -2.419800    1.254834
 H   -2.251607   -2.397910   -0.084284
 H   -2.323308   -0.319070   -1.765248
 H   -3.294340    0.227524    0.951915
 H   -5.585502   -0.801836    1.395324
 H   -5.915296    0.684926    0.488947
 H   -6.591778   -0.862729   -0.074021
 H   -1.709562    1.769565   -0.520807
 H    2.789203    2.649240   -1.639653
 H    2.244030    1.176627   -2.462923
 H    3.525402    1.314288    0.323340
 H    4.390156    0.924201   -1.156778
 H    3.029906   -0.515008    1.680532
 H    3.023355   -1.090357   -2.573460
 H    2.537891   -2.918729    2.001715
 H    2.557910   -3.482356   -2.256163
 H    2.362971   -4.427328    0.030130
 H    0.188954    2.688451    0.819861
 H    1.847157    3.161656    0.483290
 H    1.082308    4.366206   -1.588683
 H   -0.579717    3.899871   -1.240980
 H   -0.489795    5.190693    0.928093
 H    1.178134    5.667852    0.569520
 H   -0.145010    6.233543   -0.459474
 H   -1.307793   -2.831995   -2.106297
 H   -0.217365   -1.514478   -1.976917
 H    0.063898   -2.934386   -1.101565
