56 
1a4q_ligand_xtb.xyz
 C    0.044447   -0.320161    3.051367
 O    0.494367    0.865020    3.437304
 O    0.140133   -1.331802    3.689269
 C   -0.590890   -0.277399    1.693445
 C   -1.061907   -1.398310    1.139804
 C   -1.778129   -1.402931   -0.167350
 C   -2.014489    0.040452   -0.683686
 N   -3.293730    0.533209   -0.233291
 C   -4.423990   -0.005320   -0.787982
 O   -4.324120   -0.882662   -1.618153
 C   -5.709886    0.576981   -0.283397
 C   -0.884607    0.992451   -0.265027
 O   -0.633836    0.949316    1.130102
 C    0.405146    0.716341   -1.072314
 O    0.424766   -0.211018   -1.900876
 N    1.453975    1.493227   -0.877603
 C    2.670152    1.202583   -1.628868
 C    3.608228    0.275073   -0.841878
 C    2.956703   -1.050424   -0.560802
 C    2.471313   -1.348792    0.704878
 C    2.805520   -1.989056   -1.576016
 C    1.849102   -2.559876    0.959812
 C    2.165684   -3.190221   -1.333471
 C    1.678452   -3.477152   -0.064660
 C    1.492317    2.660808   -0.014417
 C    1.126868    3.943074   -0.770459
 C    1.167681    5.144925    0.164428
 N   -1.023002   -2.183324   -1.193447
 H    0.881907    0.816759    4.327440
 H   -0.985411   -2.318365    1.693509
 H   -2.758475   -1.875340   -0.037911
 H   -2.061432    0.008045   -1.781067
 H   -3.342249    1.160667    0.552361
 H   -5.825742    0.365653    0.777676
 H   -5.717197    1.655110   -0.424287
 H   -6.540707    0.136748   -0.826424
 H   -1.201425    2.023037   -0.466522
 H    3.171769    2.145691   -1.845400
 H    2.382329    0.724351   -2.566847
 H    3.896663    0.752873    0.095958
 H    4.507815    0.127455   -1.440839
 H    2.600936   -0.638190    1.509129
 H    3.197115   -1.779472   -2.559471
 H    1.509897   -2.786755    1.959019
 H    2.062678   -3.913280   -2.128709
 H    1.214720   -4.433106    0.136517
 H    0.825011    2.525240    0.835830
 H    2.509585    2.748921    0.372499
 H    1.825454    4.097901   -1.594285
 H    0.128503    3.845712   -1.202292
 H    0.467068    5.017780    0.985999
 H    2.163741    5.274113    0.579580
 H    0.903643    6.049498   -0.375301
 H   -1.654560   -2.546627   -1.911212
 H   -0.336218   -1.455662   -1.641079
 H   -0.462882   -2.939646   -0.775089
