81 
1a4w_ligand_ani.xyz
 C    0.534797   -2.350488    0.070151
 C   -0.403259   -2.854338   -0.804925
 C   -1.758623   -2.528935   -0.659084
 C   -2.172035   -1.735278    0.379024
 C   -1.234513   -1.219388    1.318257
 C   -1.670714   -0.386078    2.405332
 C   -0.745163    0.215804    3.226522
 C    0.623963   -0.034996    3.048822
 C    1.060996   -0.871255    2.048771
 C    0.149910   -1.489842    1.152035
 N   -3.072977   -0.247425    2.593687
 C   -3.503787    0.999384    3.194394
 C   -3.641289   -1.401661    3.282298
 S    2.221675   -2.808630   -0.314281
 O    3.089883   -2.593801    0.832985
 O    2.164178   -4.108994   -0.955531
 N    2.736419   -1.740742   -1.489273
 C    2.805786   -0.320685   -1.158409
 C    1.478759    0.335173   -1.601427
 O    0.860113   -0.163019   -2.533022
 C    3.960987    0.353528   -1.920822
 C    5.310935   -0.359716   -1.790393
 C    5.827793   -0.538118   -0.357919
 N    5.897744    0.712679    0.390862
 C    4.922896    1.083286    1.301608
 N    4.770960    2.461222    1.420208
 N    4.150598    0.312331    1.975434
 N    1.077851    1.505182   -1.016193
 C   -0.092328    2.180710   -1.590304
 C    0.177747    3.688206   -1.625660
 C    0.619932    4.240430   -0.268571
 C    1.808211    3.448058    0.281846
 C    1.465075    1.965744    0.315163
 C   -1.375084    1.774688   -0.842763
 C   -2.668993    2.091884   -1.594323
 S   -6.102418    0.014420   -0.400081
 O   -4.184721    2.284456    0.221895
 C   -6.269247   -1.307019   -1.480654
 C   -4.644600    0.464549   -1.217669
 C   -3.864385    1.671833   -0.776084
 C   -5.232004   -1.315839   -2.364329
 N   -4.312222   -0.311540   -2.211536
 H   -0.080992   -3.513143   -1.605834
 H   -2.481972   -2.922510   -1.366648
 H   -3.217959   -1.472296    0.502294
 H   -1.061607    0.879397    4.024158
 H    1.351096    0.448778    3.698142
 H    2.120709   -1.038276    1.939508
 H   -3.313393    1.061982    4.281424
 H   -4.580974    1.112006    3.035787
 H   -2.998295    1.832245    2.701253
 H   -3.364673   -2.324182    2.761799
 H   -4.733840   -1.324067    3.287537
 H   -3.288592   -1.482230    4.325122
 H    2.173822   -1.870595   -2.328807
 H    2.970519   -0.232708   -0.080324
 H    4.037181    1.391991   -1.571059
 H    3.697513    0.405506   -2.984973
 H    6.053578    0.199594   -2.375061
 H    5.238354   -1.353984   -2.247439
 H    6.831753   -0.977835   -0.394104
 H    5.196437   -1.253808    0.174831
 H    6.234807    1.486299   -0.167330
 H    5.626654    2.997182    1.374035
 H    4.222736    2.702637    2.234395
 H    4.400023   -0.667407    1.856454
 H   -0.166854    1.809988   -2.617279
 H    0.974307    3.862700   -2.359575
 H   -0.711937    4.216093   -1.992590
 H    0.876723    5.301353   -0.365515
 H   -0.218186    4.190041    0.442906
 H    2.692527    3.599265   -0.351690
 H    2.067940    3.798039    1.290139
 H    0.623753    1.817057    1.010894
 H    2.291812    1.376148    0.709307
 H   -1.411551    2.260736    0.140385
 H   -1.316608    0.694392   -0.653159
 H   -2.693456    1.579875   -2.559969
 H   -2.766671    3.170059   -1.758347
 H   -7.099294   -1.998599   -1.423913
 H   -5.088327   -2.043284   -3.155224
