44 
1a52_ligand_ani.xyz
 C    2.649962   -1.504066   -0.340079
 C    4.017407   -1.467073   -0.113226
 C    4.631567   -0.251225    0.178232
 O    5.968612   -0.139247    0.412715
 C    3.860605    0.902901    0.235374
 C    2.485440    0.863940    0.008385
 C    1.706683    2.162167    0.126642
 C    0.295901    2.086673   -0.451890
 C   -0.390710    0.805337    0.014914
 C    0.357546   -0.407130   -0.589738
 C    1.852029   -0.354971   -0.285227
 C   -0.310506   -1.746442   -0.210129
 C   -1.820252   -1.775884   -0.499251
 C   -2.532908   -0.572840    0.124044
 C   -1.858251    0.714445   -0.385213
 C   -2.840903    1.827838    0.009978
 C   -4.240262    1.155761   -0.090226
 C   -3.966135   -0.341617   -0.369547
 O   -4.861436   -1.234513    0.263022
 C   -2.535402   -0.689245    1.655712
 H    2.203450   -2.467376   -0.566303
 H    4.603634   -2.383450   -0.163216
 H    6.371695   -1.013535    0.342779
 H    4.351922    1.844966    0.466317
 H    2.272829    2.972632   -0.348014
 H    1.646295    2.425721    1.192783
 H   -0.274359    2.975644   -0.152149
 H    0.342026    2.096534   -1.550717
 H   -0.302695    0.764094    1.111215
 H    0.250008   -0.304102   -1.685321
 H   -0.125857   -1.951968    0.852649
 H    0.158908   -2.563937   -0.766213
 H   -1.978184   -1.762491   -1.587803
 H   -2.271091   -2.704868   -0.128967
 H   -1.874674    0.654614   -1.489431
 H   -2.753908    2.706878   -0.638888
 H   -2.649645    2.168903    1.035460
 H   -4.856571    1.589603   -0.883936
 H   -4.802301    1.258589    0.845675
 H   -3.974594   -0.513073   -1.459937
 H   -5.741771   -1.068206   -0.095817
 H   -3.055126    0.142852    2.141486
 H   -3.048934   -1.607890    1.951465
 H   -1.519329   -0.721474    2.058444
