56 
1a5h_ligand_dft.xyz
 C    0.888961   -1.139045    1.699145
 C   -0.516667   -1.287012    1.152987
 C   -0.819244   -2.098171    0.054600
 C   -2.117632   -2.202826   -0.428504
 C   -1.566730   -0.583558    1.747825
 C   -2.863607   -0.664806    1.255694
 C   -3.153304   -1.476193    0.157758
 C   -4.531874   -1.570833   -0.408838
 N   -5.262106   -0.396503   -0.318736
 N   -4.922250   -2.695620   -0.884565
 C    3.405181    1.978672   -0.273671
 C    1.901457    2.121800   -0.329007
 C    1.178841    2.323630    0.850674
 C   -0.206952    2.402055    0.837481
 C    1.191334    2.014337   -1.527653
 C   -0.197297    2.080073   -1.544612
 C   -0.911609    2.270713   -0.360876
 C   -2.402396    2.320262   -0.375999
 N   -3.163230    1.612269   -1.128623
 N   -2.966334    3.170445    0.548087
 C    1.975308   -1.103768    0.610173
 C    2.596663   -2.499879    0.343457
 C    3.193245   -2.674056   -1.052875
 C    4.319370   -1.701946   -1.421468
 C    3.895166   -0.227307   -1.499569
 C    3.899951    0.508584   -0.155360
 C    3.110148   -0.158754    0.973016
 O    3.392776    0.090195    2.127949
 H    1.108025   -1.952835    2.402728
 H    0.940962   -0.221478    2.291890
 H   -0.033413   -2.656847   -0.445654
 H   -2.347180   -2.846253   -1.271787
 H   -1.361143    0.052587    2.605396
 H   -3.658579   -0.092210    1.723084
 H   -4.721247    0.455404   -0.487676
 H   -6.137781   -0.409075   -0.825779
 H   -5.865515   -2.614041   -1.272227
 H    3.862370    2.423988   -1.165114
 H    3.781348    2.527575    0.594756
 H    1.711592    2.400166    1.794505
 H   -0.750832    2.535554    1.767466
 H    1.730880    1.886563   -2.462501
 H   -0.729960    2.005907   -2.488644
 H   -2.612365    0.928911   -1.645166
 H   -2.460506    4.015148    0.769879
 H   -3.965212    3.289334    0.447148
 H    1.520182   -0.744981   -0.320994
 H    1.818860   -3.257442    0.488202
 H    3.355483   -2.701549    1.111788
 H    2.388210   -2.573646   -1.795136
 H    3.570455   -3.699648   -1.144970
 H    4.720236   -2.003333   -2.396052
 H    5.146921   -1.805827   -0.705101
 H    2.909734   -0.156948   -1.978293
 H    4.588384    0.311149   -2.157603
 H    4.935433    0.556293    0.202864
