34 
1a5v_ligand_xtb.xyz
 C   -1.205533    1.723756   -0.041298
 C   -2.507110    1.279060   -0.089647
 C   -2.784585   -0.082224   -0.103938
 C   -1.796663   -1.012643   -0.070445
 C   -0.447782   -0.594425   -0.019554
 C   -0.118415    0.797151   -0.002343
 C    1.266978    1.169432    0.051190
 C    2.239048    0.183932    0.098635
 C    1.875551   -1.153271    0.082504
 C    0.578268   -1.560016    0.019443
 S   -4.493222   -0.563291   -0.117899
 O   -4.782629   -0.591015    1.473157
 O   -4.642690   -1.904442   -0.589847
 O   -5.272052    0.482723   -0.691976
 N    1.613695    2.507654    0.066051
 C    2.863352    3.080079   -0.004495
 O    3.898566    2.471081   -0.100447
 C    2.779625    4.589353    0.046891
 S    3.159277   -2.383913    0.126732
 O    3.654536   -2.329805   -1.411169
 O    2.584296   -3.682007    0.323088
 O    4.223588   -1.958964    0.968853
 O   -0.973526    3.068333   -0.029814
 H   -3.340128    1.964670   -0.129043
 H   -2.039357   -2.062028   -0.094770
 H    3.283494    0.439840    0.152784
 H    0.344887   -2.611729    0.015413
 H   -4.945191   -1.492204    1.756317
 H    0.833440    3.150590    0.094548
 H    3.782637    5.003706    0.008852
 H    2.206112    4.962446   -0.798808
 H    2.294369    4.907372    0.966871
 H    3.467672   -3.167160   -1.838486
 H   -1.817791    3.537840   -0.073773
