34 
1a5v_ligand_ani.xyz
 C   37.172071   26.592188   58.341631
 C   36.679326   25.361041   57.972589
 C   37.555026   24.264003   57.874541
 C   38.895932   24.404243   58.110719
 C   39.414903   25.667833   58.490279
 C   38.563932   26.797005   58.629231
 C   39.157912   28.056715   59.044419
 C   40.516120   28.133215   59.271838
 C   41.328179   26.997430   59.097883
 C   40.808388   25.785549   58.729378
 S   36.890390   22.674599   57.439136
 O   36.541504   22.042059   58.895291
 O   37.946654   21.854812   56.874859
 O   35.628039   22.871397   56.769116
 N   38.353352   29.186989   59.217305
 C   38.732473   30.444752   59.617025
 O   39.868874   30.787370   59.894554
 C   37.590285   31.437559   59.696623
 S   43.081986   27.151404   59.359209
 O   43.600044   27.632121   57.895366
 O   43.638000   25.829970   59.583145
 O   43.334418   28.251022   60.258078
 O   36.313858   27.653492   58.433218
 H   35.623571   25.232688   57.744528
 H   39.581014   23.570633   57.999287
 H   40.941596   29.075413   59.592835
 H   41.437749   24.907795   58.629713
 H   37.254158   21.420270   59.117231
 H   37.375553   29.037852   59.014965
 H   37.553627   31.838598   60.713291
 H   37.813356   32.273188   59.027279
 H   36.614886   31.016294   59.437461
 H   43.944135   26.846898   57.438292
 H   35.420392   27.362102   58.205588
