52 
1a86_ligand_ani.xyz
 N   -4.657432    1.755220   -0.097585
 O   -5.560347    2.708223    0.349331
 C   -4.278869    0.826419    0.813732
 O   -4.834723    0.751380    1.908290
 C   -3.200417   -0.148427    0.358304
 C   -3.713805   -1.182858   -0.668403
 C   -5.000903   -1.912660   -0.262400
 C   -4.895501   -2.545946    1.124677
 C   -5.341744   -2.965748   -1.316543
 C   -1.978271    0.559493   -0.230764
 O   -2.055499    1.544350   -0.963809
 N   -0.785451    0.000640    0.070673
 C    0.450545    0.475078   -0.509609
 C    1.434471   -0.704407   -0.454589
 O    1.272827   -1.617021    0.347402
 C    0.960561    1.715332    0.246560
 C    2.115058    2.417993   -0.417204
 O    2.589068    3.416790    0.338996
 O    2.576451    2.166738   -1.512193
 N    2.445311   -0.668523   -1.353368
 C    3.524602   -1.642562   -1.285772
 C    4.608332   -1.249563   -0.299822
 C    5.738021   -0.545212   -0.717690
 C    6.712170   -0.160930    0.199900
 C    4.459930   -1.549699    1.056399
 C    5.435107   -1.170767    1.973217
 C    6.564074   -0.476567    1.546737
 H   -3.934287    2.145780   -0.697849
 H   -5.703918    2.425424    1.276479
 H   -2.887190   -0.675062    1.265426
 H   -2.917513   -1.923432   -0.826269
 H   -3.864215   -0.680258   -1.632513
 H   -5.818394   -1.177820   -0.236832
 H   -4.025219   -3.213143    1.187790
 H   -4.810701   -1.785850    1.906895
 H   -5.786359   -3.147288    1.338191
 H   -6.287379   -3.467514   -1.082960
 H   -4.558278   -3.733108   -1.363532
 H   -5.433492   -2.516959   -2.312221
 H   -0.705301   -0.849758    0.613935
 H    0.273873    0.767930   -1.550311
 H    1.224384    1.472635    1.280542
 H    0.137662    2.436537    0.294881
 H    3.311418    3.828006   -0.165619
 H    2.630233    0.223270   -1.798078
 H    3.941317   -1.755375   -2.292384
 H    3.079564   -2.599192   -0.996213
 H    5.857403   -0.293810   -1.770415
 H    7.589480    0.384699   -0.139263
 H    3.568392   -2.076167    1.389019
 H    5.313499   -1.418690    3.024892
 H    7.325643   -0.179712    2.263855
