29 
1a8i_ligand_ani.xyz
 C    0.820855   -0.258665   -0.338533
 C    0.433778    1.205315   -0.559593
 O    1.486239    1.989890   -0.059905
 C   -0.877533    1.534988    0.122243
 O   -1.217281    2.858897   -0.226770
 C   -1.955200    0.555713   -0.312617
 O   -3.117779    0.903282    0.403808
 C   -1.474442   -0.871571   -0.008828
 C   -2.428984   -1.939554   -0.526946
 O   -3.698062   -1.743972    0.092067
 O   -0.232730   -1.121277   -0.688066
 N    2.010641   -0.608422   -1.081827
 C    3.141874   -0.650265   -0.295404
 O    4.296785   -0.698313   -0.639577
 N    2.664038   -0.669725    1.021780
 C    1.317354   -0.477880    1.114231
 O    0.656497   -0.448221    2.128257
 H    0.307247    1.349170   -1.645790
 H    1.194279    2.911659   -0.114724
 H   -0.743321    1.432933    1.211032
 H   -2.084266    3.029351    0.168812
 H   -2.117067    0.658046   -1.402104
 H   -3.691890    0.118052    0.408932
 H   -1.339065   -0.974451    1.075651
 H   -2.502370   -1.837163   -1.618625
 H   -2.027568   -2.933263   -0.292168
 H   -4.364348   -2.246670   -0.389118
 H    2.114158   -0.350107   -2.050365
 H    3.275895   -0.721296    1.822970
