94 
1a9m_ligand_ani.xyz
 C    2.007074   -2.745750    2.861133
 C    2.591270   -1.403458    2.488096
 C    3.373618    0.001705    0.627595
 C    4.189747   -0.283417   -0.632815
 C    5.233541   -1.403652   -0.519524
 C    5.951011   -1.589720   -1.862724
 C    7.006193   -2.696702   -1.807242
 C    8.019873   -2.432275   -0.691481
 C    7.314921   -2.253774    0.654938
 C    6.257802   -1.148303    0.593347
 C    2.222735    1.005810    0.378498
 C    2.682829    2.323664   -0.242342
 C    1.583681    3.408277   -0.307079
 C    2.035281    4.674142   -1.059232
 C    0.953186    5.758710   -1.018445
 C    3.350320    5.232352   -0.509445
 C    0.328726    2.830675   -0.970617
 C   -1.686454    1.495832   -0.631156
 C   -1.297698    0.084324   -1.126011
 C   -0.923826   -0.910406   -0.010199
 C   -0.352319   -2.221810   -0.541467
 C   -2.728025    1.434305    0.483488
 C   -4.982187    0.955364    1.163645
 C   -4.586170   -0.222521    2.071816
 C   -6.430685    0.879007    0.644701
 C   -6.706728   -0.043310   -0.546204
 C   -6.693430   -1.551810   -0.249128
 C   -5.121812   -2.314670   -1.964241
 N    2.835367   -1.238627    1.164242
 N   -0.560815    2.239469   -0.128125
 N   -1.169257   -2.923334   -1.361244
 N   -4.008601    1.113417    0.099301
 N   -4.865878   -0.048021    3.387047
 N   -6.399338   -2.365650   -1.425396
 N   -5.064177   -2.733489   -3.285757
 N   -4.052292   -1.898850   -1.385027
 O    2.849882   -0.530957    3.318151
 O    1.523015    1.264400    1.590431
 O    0.147510    2.870320   -2.181795
 O    0.772187   -2.625716   -0.258612
 O   -2.442903    1.656854    1.649869
 O   -4.089011   -1.261291    1.653005
 H    1.146192   -2.977213    2.227031
 H    2.751029   -3.537739    2.716768
 H    1.711148   -2.722248    3.910947
 H    4.010048    0.431941    1.410604
 H    4.707201    0.637232   -0.936194
 H    3.493722   -0.531789   -1.451432
 H    4.716272   -2.347580   -0.285333
 H    5.215504   -1.800949   -2.650167
 H    6.437519   -0.639648   -2.133599
 H    7.513596   -2.789998   -2.775069
 H    6.508349   -3.659723   -1.620719
 H    8.754594   -3.244925   -0.637169
 H    8.582129   -1.516604   -0.926492
 H    8.043603   -2.038586    1.445746
 H    6.822699   -3.197843    0.931457
 H    6.750635   -0.181395    0.406995
 H    5.753394   -1.061693    1.564414
 H    1.521615    0.516269   -0.315872
 H    3.054435    2.135568   -1.258463
 H    3.523112    2.705783    0.353772
 H    1.323843    3.681463    0.725789
 H    2.184864    4.382637   -2.107196
 H    1.299233    6.660276   -1.536041
 H    0.027669    5.431354   -1.501343
 H    0.720901    6.039731    0.017209
 H    4.194067    4.553694   -0.671653
 H    3.597442    6.179886   -1.000005
 H    3.270573    5.429829    0.567770
 H   -2.092238    2.042511   -1.490402
 H   -2.139387   -0.321796   -1.699523
 H   -0.464887    0.216891   -1.829978
 H   -1.819984   -1.142831    0.581913
 H   -0.184132   -0.481338    0.680553
 H   -4.912678    1.863001    1.770885
 H   -7.082444    0.617965    1.489289
 H   -6.707696    1.896606    0.346958
 H   -7.687219    0.223590   -0.961471
 H   -5.989996    0.175368   -1.346669
 H   -5.964014   -1.802733    0.521113
 H   -7.667565   -1.865884    0.141665
 H    2.330369   -1.844251    0.520805
 H   -0.310309    2.072310    0.842083
 H   -2.147933   -2.669201   -1.491065
 H   -0.849386   -3.831365   -1.664347
 H   -4.082723    0.469527   -0.681459
 H   -4.495779   -0.731963    4.031103
 H   -5.040292    0.876088    3.749188
 H   -7.116082   -2.313772   -2.141037
 H   -5.609437   -3.561766   -3.487043
 H   -4.104285   -2.832055   -3.591209
 H   -4.193002   -1.704428   -0.394687
 H    2.050367    0.932962    2.340461
