89 
1aaq_ligand_dft.xyz
 C   -0.067945   -0.459248   -1.944917
 C   -0.254359   -1.682754   -1.039490
 N   -1.220679   -1.376833    0.041501
 C    1.055758   -2.077106   -0.350621
 O    1.165672   -1.956521    0.861189
 N    2.060686   -2.487466   -1.161990
 C    3.443838   -2.319937   -0.699560
 C    4.419321   -3.074492   -1.587610
 C    3.688945   -0.807533   -0.764335
 O    3.713565   -0.258827   -1.870569
 N    3.752688   -0.156828    0.405425
 C    3.987699    1.285126    0.562591
 C    5.305485    1.731855   -0.104054
 C    6.464728    0.844805    0.279279
 C    7.052263    0.947343    1.541871
 C    6.935630   -0.130835   -0.602416
 C    8.083044    0.092354    1.919811
 C    7.967240   -0.988167   -0.228175
 C    8.541717   -0.880551    1.035308
 C    2.779712    2.137051    0.122275
 O    2.574621    2.147938   -1.274579
 C    1.491679    1.721138    0.846065
 C    0.311545    2.555110    0.359745
 C   -1.041288    1.996680    0.747163
 O   -1.198762    0.987819    1.440423
 N   -2.105339    2.684338    0.275978
 C   -3.466314    2.323923    0.585254
 C   -4.461469    3.343325   -0.023768
 C   -4.345167    3.446068   -1.549244
 C   -4.327370    4.713487    0.646511
 C   -3.796892    0.899645    0.103311
 O   -3.195227    0.359719   -0.823355
 N   -4.846377    0.349337    0.753877
 C   -5.535890   -0.903994    0.458117
 C   -5.811737   -1.147035   -1.044163
 C   -6.532565   -2.484685   -1.239379
 C   -6.633707    0.004097   -1.624762
 C   -4.787898   -2.083980    1.074351
 O   -5.591441   -2.827135    1.820738
 O   -3.615036   -2.331919    0.885198
 C   -5.017807   -4.011144    2.394101
 H   -1.034005    0.007250   -2.156119
 H    0.379801   -0.756827   -2.896189
 H    0.594690    0.285906   -1.493399
 H   -0.666377   -2.520815   -1.609537
 H   -0.882089   -0.621961    0.671324
 H   -2.124185   -1.033265   -0.330697
 H   -1.430206   -2.186208    0.627816
 H    1.937361   -2.367906   -2.159950
 H    3.487639   -2.694388    0.324555
 H    4.393703   -2.678030   -2.606812
 H    4.177754   -4.140225   -1.601919
 H    5.435043   -2.948299   -1.202062
 H    3.655811   -0.707997    1.244636
 H    4.096277    1.427359    1.643124
 H    5.489300    2.765558    0.210042
 H    5.182290    1.748123   -1.188661
 H    6.706884    1.711737    2.235302
 H    6.490651   -0.214685   -1.590994
 H    8.535331    0.191718    2.901942
 H    8.330608   -1.733566   -0.929935
 H    9.349123   -1.545238    1.326599
 H    3.019340    3.170783    0.413015
 H    3.002475    1.362034   -1.666855
 H    1.613416    1.828785    1.930131
 H    1.302103    0.658051    0.664947
 H    0.361887    2.637364   -0.732887
 H    0.382909    3.580539    0.745831
 H   -1.939854    3.470677   -0.333576
 H   -3.584427    2.335120    1.677519
 H   -5.461403    2.955328    0.208096
 H   -3.425407    3.957136   -1.857874
 H   -4.355149    2.464968   -2.032850
 H   -5.179003    4.032504   -1.945202
 H   -5.084884    5.399909    0.257122
 H   -4.459225    4.643424    1.731112
 H   -3.348366    5.167826    0.456907
 H   -5.217871    0.874212    1.532223
 H   -6.503422   -0.838122    0.964404
 H   -4.847304   -1.187730   -1.556147
 H   -7.473786   -2.518524   -0.678785
 H   -5.920503   -3.337045   -0.925931
 H   -6.768275   -2.626222   -2.297905
 H   -7.614224    0.071953   -1.138078
 H   -6.129954    0.968376   -1.511314
 H   -6.803154   -0.157137   -2.693248
 H   -5.828432   -4.489792    2.939706
 H   -4.643687   -4.667782    1.605861
 H   -4.202374   -3.744587    3.069231
