29 
1acj_ligand_xtb.xyz
 C    3.686264   -1.031323    0.022626
 C    2.468651   -1.649545    0.041442
 C    1.278031   -0.893136    0.025659
 C    1.353504    0.524761   -0.008798
 C    2.626574    1.127143   -0.033640
 C    3.764716    0.367565   -0.016226
 N    0.109089   -1.554933    0.032946
 C   -1.013051   -0.876779    0.030925
 C   -1.073765    0.528824    0.024420
 C    0.120312    1.242894   -0.017091
 C   -2.262264   -1.713384    0.047694
 C   -3.484148   -0.939873   -0.426226
 C   -3.575158    0.358532    0.362715
 C   -2.393099    1.259463    0.018321
 N    0.122304    2.610500   -0.134148
 H    4.596275   -1.613373    0.035751
 H    2.376288   -2.724017    0.068216
 H    2.720567    2.203879   -0.072395
 H    4.733260    0.846068   -0.033792
 H   -2.422616   -2.059135    1.073704
 H   -2.086459   -2.599228   -0.563835
 H   -4.384458   -1.540323   -0.282311
 H   -3.393195   -0.715382   -1.491204
 H   -3.563396    0.128782    1.430784
 H   -4.507708    0.882691    0.142410
 H   -2.547416    1.693530   -0.976319
 H   -2.363720    2.087758    0.735766
 H    0.969672    3.092607    0.110985
 H   -0.726252    3.096318    0.099726
