29 
1af2_ligand_dft.xyz
 O   -1.116520    1.975356    1.306344
 C   -2.132064    2.275907    0.369648
 C   -2.409857    1.038031   -0.463252
 O   -1.252578    0.687423   -1.237973
 C   -2.765187   -0.217538    0.331582
 O   -3.575208   -1.036556   -0.472344
 C   -1.399960   -0.880940    0.545583
 O   -1.577121   -2.266682    0.644368
 C   -0.626021   -0.443627   -0.720981
 N    0.795671   -0.129726   -0.435690
 C    1.580615   -1.191653   -0.037336
 O    1.131932   -2.323599    0.118630
 N    2.900319   -0.888440    0.173952
 C    3.530475    0.367240    0.054392
 O    4.716499    0.479160    0.288470
 C    2.613468    1.415477   -0.356583
 C    1.316016    1.132847   -0.581231
 H   -0.918415    2.767200    1.817675
 H   -1.825373    3.088024   -0.305568
 H   -3.065891    2.578559    0.866925
 H   -3.213690    1.261120   -1.170478
 H   -3.255759    0.023378    1.284485
 H   -3.302089   -1.946656   -0.272047
 H   -0.910480   -0.459342    1.430260
 H   -0.691798   -2.656763    0.528665
 H   -0.631662   -1.248316   -1.463771
 H    3.484884   -1.660973    0.467703
 H    3.004073    2.415452   -0.483558
 H    0.593321    1.870207   -0.899023
