45 
1af6_ligand_ani.xyz
 C    1.003433   -0.345176   -1.109238
 C    1.598396   -1.725887   -0.819096
 C    2.286177   -1.716542    0.537138
 C    3.294370   -0.578853    0.618959
 C    2.571680    0.723509    0.295190
 C    3.430652    1.971721    0.287516
 O    0.623768   -2.744844   -0.813282
 O    2.982519   -2.925517    0.755812
 O    3.841064   -0.486115    1.914676
 O    2.002119    0.630990   -1.022106
 O    2.628144    3.128042    0.293722
 C   -0.733821    1.929360   -1.466280
 C   -1.133294    0.696392   -0.639317
 C   -2.195975   -0.185681   -1.316560
 C   -3.080726   -0.593925   -0.145717
 C   -3.049088    0.661472    0.720837
 C   -3.307540    0.374334    2.186074
 O    0.021338    2.816144   -0.680320
 O   -0.040196   -0.082119   -0.198498
 O   -1.614222   -1.283360   -1.992003
 O   -4.361957   -0.960176   -0.582928
 O   -1.733271    1.185170    0.549265
 O   -4.574718   -0.270729    2.245216
 H    0.617610   -0.327596   -2.134424
 H    2.360464   -1.938621   -1.588190
 H    1.520295   -1.562239    1.315060
 H    4.081145   -0.748416   -0.137432
 H    1.770377    0.867657    1.033981
 H    4.094487    1.934055   -0.593151
 H    4.056598    1.997142    1.186737
 H   -0.172447   -2.395306   -1.249083
 H    2.331170   -3.634757    0.658247
 H    4.187904   -1.363904    2.127158
 H    1.897768    2.992999   -0.337148
 H   -0.136201    1.644903   -2.336609
 H   -1.648372    2.421054   -1.832038
 H   -2.794867    0.428072   -2.004974
 H   -2.573457   -1.415381    0.390001
 H   -3.793407    1.384740    0.347827
 H   -2.506693   -0.274691    2.567572
 H   -3.301800    1.308246    2.763961
 H   -0.330826    2.760566    0.222827
 H   -2.335797   -1.776601   -2.409041
 H   -4.907760   -1.022069    0.217117
 H   -4.718482   -0.604102    3.138121
