88 
1agm_ligand_ani.xyz
 C   -5.420402    0.702447   -0.585232
 C   -5.555211    2.210773   -0.296226
 C   -6.537064    2.516663    0.824687
 C   -7.906915    1.935347    0.481469
 C   -7.793198    0.452726    0.223420
 C   -9.023743   -0.358408    0.512911
 C   -6.664398   -0.077776   -0.249333
 O   -4.262517    2.692562    0.039494
 O   -6.586754    3.934319    0.940071
 O   -8.829234    2.164017    1.533316
 O   -8.866494   -1.681859    0.033839
 C   -0.895880   -2.206056   -1.021309
 C   -1.515341   -1.355952   -2.129662
 C   -2.368085   -0.258610   -1.512577
 C   -3.396354   -0.855298   -0.546793
 C   -2.678041   -1.749908    0.480519
 C   -3.619032   -2.532092    1.379470
 N   -4.197875    0.188352    0.151288
 O   -0.542779   -0.727717   -2.935161
 O   -3.026900    0.456996   -2.539219
 O   -1.894851   -2.735717   -0.205349
 C    4.076976   -1.633385    0.524334
 C    3.630244   -2.165348   -0.847266
 C    2.239304   -1.640415   -1.170110
 C    1.283607   -2.001965   -0.042557
 C    1.840243   -1.460133    1.273983
 C    1.032145   -1.873146    2.495170
 O    4.535609   -1.892218   -1.894236
 O    1.790188   -2.229666   -2.384731
 O    0.010439   -1.421117   -0.276568
 O    3.151021   -1.997120    1.499307
 O    1.588343   -1.329395    3.668126
 C    7.177465    2.592906    0.061082
 C    6.464395    2.141137   -1.208284
 C    5.161256    1.445049   -0.856830
 C    5.440140    0.313697    0.123357
 C    6.196176    0.859729    1.338278
 C    6.600959   -0.211580    2.341787
 O    8.407859    3.133791   -0.317039
 O    6.152052    3.229872   -2.052265
 O    4.542643    0.898316   -2.010550
 O    4.194964   -0.226558    0.531071
 O    7.405497    1.492029    0.916648
 O    7.249607    0.359835    3.451427
 H   -5.188179    0.572474   -1.642979
 H   -5.919326    2.723048   -1.198942
 H   -6.183291    2.075745    1.767551
 H   -8.264846    2.431803   -0.438212
 H   -9.203299   -0.332419    1.596627
 H   -9.885117    0.140139    0.044338
 H   -6.595019   -1.151190   -0.407234
 H   -4.392186    3.590010    0.383240
 H   -6.803540    4.148802    1.854420
 H   -8.987551    3.116239    1.557113
 H   -9.674528   -2.164244    0.241453
 H   -0.366327   -3.060094   -1.458988
 H   -2.166597   -2.000083   -2.745221
 H   -1.699006    0.411528   -0.951847
 H   -4.074697   -1.486463   -1.136059
 H   -2.010622   -1.120272    1.088339
 H   -4.313989   -3.119756    0.771273
 H   -3.039331   -3.220048    1.999766
 H   -4.200798   -1.885362    2.045392
 H   -4.525991   -0.200594    1.062820
 H   -3.632492    1.053675    0.336101
 H    0.263947   -1.273497   -2.920313
 H   -2.333322    0.737237   -3.153194
 H    5.041276   -2.086666    0.798269
 H    3.574699   -3.257680   -0.781570
 H    2.266952   -0.547009   -1.279772
 H    1.193347   -3.096988    0.033683
 H    1.893308   -0.364257    1.226868
 H    0.980275   -2.974041    2.545627
 H    0.008385   -1.492392    2.414329
 H    4.513304   -0.932619   -2.068625
 H    2.561295   -2.260144   -2.972254
 H    2.523532   -1.578604    3.649300
 H    6.563054    3.342832    0.596960
 H    7.126170    1.421113   -1.717819
 H    4.481798    2.169862   -0.383441
 H    6.059972   -0.449449   -0.375449
 H    5.556268    1.596015    1.852167
 H    7.244618   -0.955393    1.839814
 H    5.715550   -0.732785    2.722332
 H    8.990707    3.053716    0.448650
 H    6.986445    3.672732   -2.257314
 H    4.549785    1.583225   -2.695002
 H    7.985462    0.878030    3.097608
