21 
1ahx_ligand_ani.xyz
 C   10.124802   26.961088   23.898019
 O    9.843638   26.213558   24.801730
 O   11.406644   27.299519   23.619915
 C    9.147685   27.582701   22.928748
 C    9.421069   29.057919   22.603158
 C    9.295054   29.971173   23.803062
 C    8.037406   30.415032   24.217825
 C    7.901535   31.232711   25.335075
 C    9.027416   31.617219   26.057148
 C   10.285099   31.177698   25.656551
 C   10.416922   30.359258   24.538760
 H   11.948104   26.831829   24.277737
 H    9.199163   26.988152   22.006307
 H    8.147128   27.438914   23.344324
 H   10.422039   29.141443   22.169763
 H    8.710298   29.370571   21.829567
 H    7.152493   30.119460   23.655877
 H    6.914807   31.571805   25.641827
 H    8.923713   32.257130   26.930171
 H   11.169029   31.475995   26.215737
 H   11.400956   30.012825   24.232700
