12 
1ahy_ligand_ani.xyz
 C   44.862266  -10.257731   58.086536
 O   44.414887  -10.805479   59.063554
 O   45.398938  -10.952131   57.087113
 C   44.788222   -8.747302   58.043897
 C   45.148859   -7.779895   57.190180
 C   45.803947   -7.786182   55.863553
 O   46.054528   -6.793899   55.230463
 O   46.117170   -9.019495   55.384614
 H   45.715635  -10.373242   56.370981
 H   44.314362   -8.406757   58.960602
 H   44.934758   -6.759628   57.494044
 H   46.535429   -8.877259   54.519465
