19 
1ai6_ligand_xtb.xyz
 C    2.616557   -0.052244   -0.217834
 O    3.692473    0.450756   -0.353202
 O    2.139074   -0.936295   -1.102845
 C    1.706655    0.229364    0.980048
 C    0.250650    0.167206    0.622939
 C   -0.408699    1.296584    0.145484
 C   -1.733128    1.237916   -0.232532
 C   -2.432635    0.035762   -0.145866
 C   -1.783666   -1.098450    0.325690
 C   -0.453679   -1.029727    0.703175
 O   -3.734238    0.021799   -0.527936
 H    1.237601   -1.218761   -0.875908
 H    1.980400    1.206688    1.377752
 H    1.950489   -0.523490    1.735272
 H    0.125885    2.231697    0.074002
 H   -2.249562    2.110526   -0.598210
 H   -2.319813   -2.035086    0.401870
 H    0.030100   -1.918603    1.086120
 H   -4.105909   -0.861522   -0.415661
