13 
1ai7_ligand_ani.xyz
 C    9.965880   35.395583   32.624472
 C   10.564304   36.448612   31.931017
 C   11.650102   37.108092   32.490438
 C   12.148736   36.730237   33.735815
 C   11.546622   35.680094   34.419456
 C   10.457219   35.009390   33.871333
 O    8.903995   34.782849   32.030021
 H   10.165311   36.731925   30.961000
 H   12.113227   37.928103   31.946896
 H   12.998941   37.251345   34.166627
 H   11.925070   35.374681   35.391740
 H    9.990145   34.186978   34.412041
 H    8.582448   34.078112   32.606143
