80 
1aj6_ligand_ani.xyz
 C    9.102523   -1.458440    1.969715
 O    7.713812   -1.220032    1.861147
 N    9.936191    2.279528   -0.410926
 C    8.632863    1.940575   -0.232113
 O    7.719302    2.723443   -0.095383
 O    8.489634    0.583742   -0.256608
 C    7.196043   -1.267659    0.554004
 C    7.136466    0.122662   -0.076928
 C    6.474770    0.052770   -1.452413
 O    7.232382   -0.749619   -2.331130
 C    5.106782   -0.603345   -1.336271
 O    5.157557   -1.834230   -0.666791
 C    5.792668   -1.910829    0.627915
 C    5.943766   -3.410278    0.865300
 C    4.911078   -1.301416    1.720450
 O    4.254496    0.330216   -0.715587
 C    2.912190    0.075577   -0.624726
 C    2.142425    1.083985   -0.030018
 C    2.725919    2.356150    0.531409
 C    0.762683    0.863924    0.019430
 C    0.159863   -0.309176   -0.448308
 C    0.977624   -1.309772   -0.992132
 C    2.342217   -1.125576   -1.080266
 O    0.005980    1.865277    0.559555
 C   -1.347061    1.821816    0.612282
 O   -1.941948    2.779574    1.054239
 C   -2.016126    0.607486    0.122349
 C   -1.282960   -0.447452   -0.360483
 O   -1.760248   -1.611244   -0.787333
 N   -3.418573    0.763168    0.193909
 C   -4.437105   -0.110996   -0.019560
 O   -4.282431   -1.315765   -0.248402
 C   -5.811012    0.456266    0.064483
 C   -6.852735   -0.433803    0.320441
 C   -8.178044   -0.022285    0.383321
 C   -8.458585    1.330227    0.137350
 O   -9.731596    1.812053    0.145779
 C   -7.428313    2.239409   -0.111341
 C   -6.114358    1.803018   -0.149484
 C   -9.278090   -1.006685    0.742117
 C  -10.320757   -1.176938   -0.339228
 C  -11.645433   -1.249409   -0.199109
 C  -12.362850   -1.166254    1.122381
 C  -12.544728   -1.429382   -1.397667
 H    9.365981   -2.459160    1.594180
 H    9.691663   -0.705988    1.434153
 H    9.340008   -1.413510    3.035778
 H   10.175974    3.247842   -0.277021
 H   10.660869    1.582422   -0.363415
 H    7.822792   -1.895872   -0.097548
 H    6.616146    0.824865    0.576055
 H    6.343062    1.073667   -1.841439
 H    8.134935   -0.405945   -2.309051
 H    4.718815   -0.824797   -2.335927
 H    4.954853   -3.873035    0.932927
 H    6.493240   -3.598401    1.793167
 H    6.480447   -3.869825    0.029221
 H    4.829291   -0.213883    1.632885
 H    3.903700   -1.723625    1.638296
 H    5.320702   -1.543801    2.704496
 H    3.815818    2.352745    0.444165
 H    2.466031    2.479894    1.588940
 H    2.342201    3.237873    0.005693
 H    0.518916   -2.225245   -1.346434
 H    2.961659   -1.914995   -1.489800
 H   -2.739820   -1.653996   -0.620450
 H   -3.652142    1.681173    0.559795
 H   -6.607062   -1.482091    0.469140
 H  -10.340619    1.058484    0.068028
 H   -7.682557    3.282513   -0.278421
 H   -5.330169    2.521156   -0.384684
 H   -8.804648   -1.979684    0.921695
 H   -9.743828   -0.713948    1.691932
 H   -9.909059   -1.261653   -1.347335
 H  -13.052163   -0.312816    1.132309
 H  -11.680057   -1.065188    1.968469
 H  -12.971222   -2.063938    1.287598
 H  -13.141577   -2.344361   -1.298681
 H  -13.254741   -0.597117   -1.480415
 H  -11.976630   -1.490979   -2.332482
