20 
1ajp_ligand_ani.xyz
 C   13.577525   37.536541   35.924189
 C   12.947243   36.166295   35.823965
 C   11.931374   36.079295   34.694886
 C   12.086692   36.796179   33.515972
 C   11.159013   36.686987   32.481549
 O   11.380208   37.434267   31.363010
 C   10.065833   35.840660   32.619209
 C    9.910432   35.099168   33.786943
 C   10.839666   35.207649   34.813280
 O   10.740640   34.483925   35.969557
 O   14.515953   37.921076   35.266571
 O   12.959794   38.319007   36.825277
 H   13.763324   35.458881   35.631069
 H   12.482077   35.891454   36.772818
 H   12.945544   37.449481   33.383811
 H   10.669523   37.268700   30.731453
 H    9.333226   35.749280   31.818465
 H    9.057210   34.429320   33.891460
 H    9.958111   33.921639   35.919565
 H   13.420612   39.174196   36.805951
