20 
1ajp_ligand_dft.xyz
 C    2.464302   -0.587357   -0.152544
 C    1.428393   -0.479391    0.972430
 C    0.045081   -0.076531    0.533051
 C   -0.994918   -0.998559    0.455095
 C   -2.266161   -0.619829    0.020616
 O   -3.224178   -1.586667   -0.022283
 C   -2.496877    0.702252   -0.344997
 C   -1.463849    1.635018   -0.275946
 C   -0.199244    1.254159    0.156199
 O    0.855517    2.112450    0.235706
 O    3.647248   -0.563525    0.052903
 O    1.980959   -0.766965   -1.396277
 H    1.838645    0.228985    1.695552
 H    1.396870   -1.459679    1.461395
 H   -0.830783   -2.033198    0.741941
 H   -4.052899   -1.202189   -0.330924
 H   -3.480368    1.016108   -0.686530
 H   -1.653517    2.666084   -0.564763
 H    0.593135    2.982401   -0.086786
 H    1.012191   -0.739417   -1.373691
