15 
1ajq_ligand_ani.xyz
 S   10.469011   35.511703   34.449163
 C   11.819710   36.330193   33.750031
 C   11.629863   36.530872   32.415122
 C   10.384482   36.017915   31.940650
 C    9.658003   35.435157   32.933429
 C   13.014802   36.727446   34.566120
 C   12.689710   37.638407   35.735899
 O   11.603464   38.065759   36.030478
 O   13.807790   37.924353   36.430320
 H   12.361799   37.033259   31.791454
 H   10.052725   36.079828   30.909872
 H    8.686312   34.963743   32.862220
 H   13.532726   35.847319   34.970883
 H   13.741619   37.248123   33.933076
 H   13.531984   38.506923   37.157282
