41 
1al8_ligand_ani.xyz
 N   24.330792   70.280492   -6.009064
 C   24.890393   72.435312   -6.547733
 O   25.584638   73.563078   -6.344491
 C   25.167391   71.315368   -5.582203
 O   25.928529   71.292712   -4.649901
 C   23.577448   70.659475   -7.127270
 O   22.773906   69.957008   -7.692996
 C   23.965198   72.066149   -7.454718
 C   23.329742   72.729492   -8.629756
 C   23.664471   74.208321   -8.829178
 C   22.872437   74.849146   -9.969437
 C   23.125013   74.214018  -11.336190
 C   22.417585   74.956551  -12.470600
 C   22.568555   74.292763  -13.842092
 C   24.013871   74.214072  -14.338696
 C   24.152352   73.687644  -15.772026
 C   23.529639   72.308551  -16.019637
 C   24.079341   71.213851  -15.106425
 H   24.263851   69.373784   -5.570063
 H   25.355805   74.207729   -7.026082
 H   23.598562   72.156366   -9.528452
 H   22.242723   72.604482   -8.540143
 H   23.449779   74.758748   -7.902791
 H   24.740571   74.313045   -9.033251
 H   21.797918   74.796782   -9.738982
 H   23.123334   75.917557  -10.021128
 H   24.207582   74.191110  -11.524899
 H   22.789717   73.166991  -11.332375
 H   21.348168   75.037013  -12.230363
 H   22.800225   75.987340  -12.519247
 H   22.140940   73.281020  -13.797420
 H   21.967538   74.847233  -14.576623
 H   24.465512   75.214278  -14.284661
 H   24.604246   73.581652  -13.662249
 H   23.699123   74.410599  -16.465157
 H   25.220502   73.646126  -16.028048
 H   22.439214   72.369146  -15.906070
 H   23.705107   72.029214  -17.066119
 H   23.667274   70.233355  -15.366317
 H   25.171345   71.149767  -15.182589
 H   23.832665   71.407659  -14.056554
