22 
1alw_ligand_dft.xyz
 C    3.646983    0.172619    0.274902
 C    3.082457   -0.993421    0.785876
 C    1.787891   -1.354659    0.427245
 C    2.909257    0.972041   -0.593184
 C    1.613978    0.608153   -0.950203
 C    1.039578   -0.560619   -0.445285
 C   -0.380459   -0.942606   -0.798300
 C   -1.383710   -0.429591    0.244134
 S   -3.088703   -1.041537   -0.043457
 C   -1.421329    1.087183    0.269603
 O   -1.477195    1.784034   -0.716633
 O   -1.403450    1.577688    1.515790
 H    4.659294    0.453859    0.549686
 H    3.653371   -1.625206    1.459983
 H    1.352653   -2.269260    0.824513
 H    3.343982    1.881250   -0.998081
 H    1.036020    1.237524   -1.621089
 H   -0.654172   -0.529216   -1.774523
 H   -0.482134   -2.030463   -0.858720
 H   -1.120321   -0.794886    1.239816
 H   -3.233812   -0.451130   -1.242883
 H   -1.458347    2.543744    1.434622
