45 
1anf_ligand_ani.xyz
 C    0.897496   -0.728959   -1.036666
 C    1.602590   -1.924073   -0.404783
 C    2.447425   -1.449624    0.761244
 C    3.417159   -0.378025    0.292319
 C    2.632000    0.749218   -0.400618
 C    3.528871    1.782040   -1.061815
 O    0.598892   -2.833744    0.011253
 O    3.128181   -2.572989    1.280698
 O    4.099472    0.071318    1.441018
 O    1.826956    0.227075   -1.460549
 O    4.375222    2.347571   -0.063830
 C   -4.028454    0.613832    0.243941
 C   -3.660438   -0.658025   -0.520611
 C   -2.220891   -1.037789   -0.227760
 C   -1.292121    0.138818   -0.522634
 C   -1.776412    1.360822    0.258863
 C   -1.013652    2.633366   -0.080571
 O   -4.007765    0.362234    1.627637
 O   -4.525293   -1.679580   -0.059287
 O   -1.927524   -2.178010   -1.005194
 O    0.019013   -0.178612   -0.081973
 O   -3.139102    1.646074   -0.070039
 O   -1.441919    3.708525    0.718532
 H    0.333559   -1.046046   -1.924107
 H    2.255287   -2.399506   -1.149940
 H    1.786344   -1.008126    1.521726
 H    4.119000   -0.827432   -0.435094
 H    2.000786    1.240693    0.357228
 H    2.906266    2.552841   -1.533246
 H    4.116312    1.278321   -1.841331
 H    1.024842   -3.491878    0.578340
 H    3.699425   -2.240111    1.987511
 H    4.492934    0.931791    1.215746
 H    5.098707    2.816508   -0.493542
 H   -5.024882    0.969271   -0.061991
 H   -3.785649   -0.498190   -1.601452
 H   -2.135107   -1.272737    0.844886
 H   -1.293872    0.359789   -1.600956
 H   -1.688203    1.158868    1.335039
 H   -1.139779    2.853980   -1.154300
 H    0.056985    2.495078    0.108501
 H   -4.426957   -0.510499    1.726630
 H   -4.126777   -2.512984   -0.351698
 H   -1.118983   -2.580575   -0.638887
 H   -2.400721    3.762441    0.599356
