23 
1apb_ligand_xtb.xyz
 C   -0.662677   -1.320037   -0.249790
 C   -1.249218    0.037298    0.183879
 C   -0.492061    1.156693   -0.531467
 C    1.006504    1.019442   -0.220109
 C    1.487402   -0.400657   -0.571925
 C    2.926682   -0.623119   -0.133074
 O   -1.316837   -2.364048    0.392983
 O   -2.615660    0.125305   -0.141110
 O   -0.913341    2.423851   -0.086331
 O    1.242020    1.282959    1.137284
 O    0.696608   -1.391327    0.059117
 H   -0.836036   -1.449839   -1.335014
 H   -1.103965    0.144920    1.271684
 H   -0.659961    1.058209   -1.615612
 H    1.560331    1.739485   -0.844552
 H    1.393448   -0.519116   -1.665608
 H    3.002616   -0.429295    0.931970
 H    3.212266   -1.651085   -0.333366
 H    3.585248    0.051358   -0.671067
 H   -0.835415   -2.539167    1.211533
 H   -3.013526   -0.736196    0.039094
 H   -1.878197    2.423594   -0.102477
 H    0.731082    2.075497    1.352788
