91 
1aq7_ligand_dft.xyz
 C   -6.210803    0.005076    0.245292
 C   -5.693597    0.287953    1.509161
 C   -4.518346   -0.324265    1.931314
 C   -3.834040   -1.223497    1.109793
 C   -4.371122   -1.498153   -0.152871
 C   -5.545907   -0.894530   -0.587249
 C   -2.504154   -1.803394    1.530421
 C   -1.406869   -0.742506    1.379604
 C    0.013774   -1.297934    1.483805
 O   -1.554902    0.288524    2.319282
 O    0.369930   -2.412244    1.068238
 N    0.879644   -0.416756    1.995799
 C    2.307294   -0.634692    2.114320
 C    2.794674   -0.615990    3.573651
 C    1.926253   -1.546767    4.433746
 C    4.276041   -1.001111    3.621139
 C    2.323758   -1.574145    5.908944
 C    3.002031    0.445727    1.264230
 O    3.449763    1.465462    1.796872
 N    3.079297    0.255996   -0.071856
 C    2.585937   -0.860560   -0.884314
 C    3.803085   -1.150538   -1.777042
 C    4.337815    0.258670   -2.094723
 C    3.921085    1.137907   -0.902417
 C    1.346222   -0.437260   -1.688369
 C    1.037507   -1.411705   -2.815294
 C    2.230365   -1.588945   -3.744707
 C    3.482326   -2.035661   -2.984554
 O    0.744416   -2.727459   -2.257156
 S   -0.799950   -3.108269   -2.007173
 O   -1.263276   -3.960616   -3.068409
 O   -0.630349   -3.985615   -0.720451
 O   -1.519508   -1.883693   -1.700769
 C    3.136704    2.395843   -1.345327
 O    2.748235    2.557988   -2.496659
 N    2.908150    3.284213   -0.352885
 C    2.034365    4.418710   -0.572368
 C    0.556613    4.095593   -0.325957
 C   -0.351280    5.217692   -0.830604
 C   -1.844485    5.050445   -0.523906
 N   -2.454046    3.832551   -1.024396
 C   -2.546255    2.662413   -0.305176
 N   -2.175347    2.482490    0.919325
 N   -3.085749    1.618775   -1.019945
 O   -7.349251    0.582473   -0.230748
 H   -6.203998    0.991370    2.163975
 H   -4.109578   -0.082057    2.906988
 H   -3.844068   -2.173621   -0.819286
 H   -5.959817   -1.112534   -1.566338
 H   -2.265737   -2.673647    0.914797
 H   -2.526617   -2.126268    2.577259
 H   -1.463343   -0.348036    0.351788
 H   -1.910390    1.089466    1.839690
 H    0.444392    0.414846    2.383123
 H    2.496704   -1.628596    1.702297
 H    2.693309    0.411053    3.946660
 H    0.880381   -1.229711    4.355807
 H    1.969714   -2.563663    4.018955
 H    4.875931   -0.354558    2.975187
 H    4.416763   -2.042713    3.304728
 H    4.674183   -0.903240    4.634668
 H    2.356881   -0.560928    6.326647
 H    1.599939   -2.152220    6.491808
 H    3.306550   -2.031339    6.061121
 H    2.328123   -1.717851   -0.262089
 H    4.542038   -1.667690   -1.152582
 H    5.421740    0.258712   -2.231917
 H    3.886166    0.668603   -3.001766
 H    4.767929    1.457724   -0.288178
 H    0.480653   -0.340881   -1.028525
 H    1.513806    0.541845   -2.149359
 H    0.165996   -1.065371   -3.376172
 H    2.400192   -0.625377   -4.240387
 H    1.980093   -2.317069   -4.521866
 H    4.341650   -2.056956   -3.664401
 H    3.329667   -3.063045   -2.635969
 H   -0.296080   -3.397886    0.035120
 H    3.149821    2.991086    0.591199
 H    2.175274    4.735726   -1.609168
 H    2.359090    5.238770    0.077012
 H    0.311583    3.158917   -0.838997
 H    0.401944    3.921707    0.746804
 H   -0.219852    5.312232   -1.917217
 H   -0.033539    6.177786   -0.400850
 H   -2.024655    5.098872    0.554725
 H   -2.392061    5.895852   -0.955055
 H   -2.449884    3.718552   -2.027968
 H   -1.669036    3.277202    1.292305
 H   -3.311841    0.803537   -0.462429
 H   -3.823856    1.851059   -1.669711
 H   -7.725019    1.146963    0.455193
