47 
1aqi_ligand_xtb.xyz
 N    2.885678    0.214704   -1.135776
 C    3.028657   -0.700811    0.021730
 C    2.432220   -2.082895   -0.272437
 C    0.920261   -2.154797   -0.108650
 S    0.010964   -1.076169   -1.293123
 C    4.542501   -0.831952    0.242277
 O    4.852230   -1.465612    1.344959
 O    5.313715   -0.389714   -0.568409
 C   -1.532164   -2.006827   -1.504067
 C   -2.592549   -1.687625   -0.450438
 O   -2.026991   -1.586940    0.850035
 C   -3.364333   -0.382737   -0.714305
 O   -4.560737   -0.699920   -1.364720
 C   -3.602959    0.178666    0.708981
 O   -4.792399   -0.294989    1.256961
 C   -2.400378   -0.384144    1.480583
 N   -1.250595    0.503241    1.465766
 C   -0.093981    0.212342    2.135223
 N    0.942311    0.888946    1.743137
 C    0.463514    1.710613    0.753194
 C    1.059473    2.597398   -0.140672
 N    2.452383    2.724153   -0.230923
 N    0.315938    3.221308   -1.036495
 C   -0.986628    2.975768   -1.070559
 N   -1.658412    2.112789   -0.334953
 C   -0.919018    1.480177    0.569136
 H    3.778644    0.144641   -1.661605
 H    2.770074    1.248720   -0.822057
 H    2.082677   -0.054558   -1.717601
 H    2.549491   -0.267202    0.910030
 H    2.713895   -2.390267   -1.282169
 H    2.866010   -2.797249    0.430187
 H    0.587039   -3.172209   -0.305749
 H    0.621112   -1.873835    0.899070
 H    5.813069   -1.557468    1.468735
 H   -1.264423   -3.062244   -1.479600
 H   -1.912731   -1.754609   -2.493235
 H   -3.320102   -2.512804   -0.451507
 H   -2.755232    0.323065   -1.293678
 H   -5.002788    0.109462   -1.648747
 H   -3.598347    1.274278    0.724743
 H   -5.260176   -0.811050    0.579813
 H   -2.658963   -0.604940    2.521953
 H   -0.069322   -0.525363    2.914000
 H    2.903884    2.767258    0.676544
 H    2.710573    3.509166   -0.821242
 H   -1.555190    3.528282   -1.803796
