86 
1au0_ligand_ani.xyz
 C    4.514080    0.231660   -2.309758
 C    4.586226   -1.118911   -2.640547
 C    3.446555   -1.915809   -2.564095
 C    2.223159   -1.371736   -2.179358
 C    2.156228   -0.013079   -1.863668
 C    3.295978    0.779654   -1.912942
 C    0.976219   -2.211261   -2.127710
 O    0.346991   -2.031953   -0.836887
 C   -0.939881   -2.427161   -0.785315
 O   -1.488934   -3.054865   -1.682142
 C   -2.967231   -2.227012    0.548628
 C   -3.353852   -2.242952    2.026894
 C   -2.479313   -3.147544    2.906506
 C   -2.427078   -4.583430    2.381329
 C   -2.988658   -3.117162    4.347517
 C   -3.744030   -1.128190   -0.213324
 O   -4.294586   -0.200308    0.371555
 N   -3.743958   -1.282227   -1.555393
 C   -4.339124   -0.355810   -2.492641
 N   -1.536063   -2.039917    0.366713
 C   -3.391333    0.737652   -3.038917
 O   -2.077242    0.231446   -3.148717
 C    7.119118    0.154550    1.045796
 C    6.352198    1.173317    1.602063
 C    4.977382    1.017069    1.745918
 C    4.354519   -0.162040    1.340207
 C    5.130327   -1.178366    0.782139
 C    6.506205   -1.025069    0.634181
 C    2.873047   -0.356900    1.535110
 O    2.185290    0.882886    1.268882
 C    0.846058    0.794109    1.384243
 O    0.266201   -0.189625    1.808696
 C   -1.187734    2.002159    0.849502
 C   -1.819194    3.148952    1.668243
 C   -1.827041    4.546684    1.030767
 C   -0.442474    4.999194    0.563959
 C   -2.418768    5.547461    2.023630
 C   -1.589525    2.050100   -0.631004
 O   -0.758529    2.226891   -1.526980
 N   -2.912188    1.933665   -0.879919
 C   -3.436810    2.040876   -2.226751
 N    0.249048    1.949701    0.972968
 H    5.406595    0.852918   -2.355077
 H    5.533426   -1.556880   -2.952085
 H    3.510467   -2.974146   -2.811744
 H    1.199574    0.432645   -1.589456
 H    3.229088    1.829449   -1.632605
 H    0.258142   -1.909962   -2.901945
 H    1.195198   -3.273428   -2.263376
 H   -3.207629   -3.188596    0.076374
 H   -4.403484   -2.555643    2.100597
 H   -3.317474   -1.215045    2.409650
 H   -1.455869   -2.737928    2.892700
 H   -1.828117   -5.216927    3.044971
 H   -1.982883   -4.633534    1.380743
 H   -3.435612   -5.014135    2.329551
 H   -3.011037   -2.095390    4.743346
 H   -2.353247   -3.720984    5.004735
 H   -4.007314   -3.521366    4.401666
 H   -3.122249   -1.986715   -1.940402
 H   -4.713227   -0.944891   -3.336747
 H   -5.205419    0.113985   -2.014636
 H   -1.025812   -1.393103    0.965302
 H   -3.761384    0.997482   -4.045808
 H   -1.460425    0.933444   -2.868641
 H    8.193737    0.278337    0.934717
 H    6.825884    2.097479    1.927165
 H    4.379859    1.815462    2.177271
 H    4.645673   -2.092783    0.441890
 H    7.101136   -1.824663    0.195634
 H    2.493588   -1.121331    0.850827
 H    2.625174   -0.673703    2.553265
 H   -1.556000    1.061113    1.280165
 H   -2.854529    2.871950    1.909725
 H   -1.274258    3.181451    2.620045
 H   -2.484608    4.515162    0.151128
 H    0.304279    4.869683    1.358477
 H   -0.111756    4.442519   -0.318000
 H   -0.459998    6.061291    0.293384
 H   -3.424068    5.247761    2.341596
 H   -1.790452    5.622685    2.920673
 H   -2.490838    6.548078    1.582217
 H   -3.507371    1.499709   -0.182012
 H   -4.467950    2.408088   -2.178645
 H   -2.843570    2.792150   -2.755883
 H    0.791829    2.487938    0.309804
