108 
1awf_ligand_ani.xyz
 C    0.303662   -2.798643    1.041398
 C    1.678854   -3.305636    1.480254
 C    2.800675   -2.576868    0.764532
 C    2.719994   -1.027165    0.962479
 C    1.283749   -0.518951    0.628489
 C    1.127189    0.986339    0.862878
 C   -0.262548    1.473721    0.571130
 C   -1.327164    0.674523    0.434693
 C   -1.163476   -0.835988    0.435111
 C    0.089569   -1.289544    1.262376
 C   -2.474181   -1.582491    0.778688
 C   -3.774522   -1.076536    0.091081
 C   -3.625968    0.295114   -0.599058
 C   -2.743017    1.209505    0.338631
 C   -2.909543    2.576942   -0.341780
 C   -4.357571    2.606486   -0.883291
 C   -4.921407    1.154106   -0.758685
 C   -3.003963    0.113392   -1.991410
 C   -0.110869   -0.997215    2.754790
 C   -6.569750   -0.546149   -1.921759
 C   -7.291986   -1.003650   -0.658280
 C   -8.491105   -0.253578   -0.220026
 C   -9.193816   -0.445360    0.912016
 C  -10.329394    0.486887    1.236707
 C   -8.946842   -1.522105    1.926641
 C   -3.210756    1.341202    1.816180
 C    3.682901   -0.416973   -0.062757
 C    3.216841   -0.664771    2.372395
 O    3.376558    0.030852   -1.141604
 O   -5.163115    3.573609   -0.239817
 O   -7.934551    1.776244   -2.787151
 O    4.980877   -0.501159    0.341366
 O   -6.887925   -1.996942   -0.061758
 O    2.675550   -2.925453   -0.638630
 C    3.802627   -3.063357   -1.349606
 C    3.529363   -3.190936   -2.821839
 O    4.907308   -3.069146   -0.852381
 O   -4.436007    2.055529    1.952846
 O   -4.204285   -2.071191   -0.826320
 O    5.928743    1.535287    0.106115
 C    5.931024    0.230359   -0.415363
 C    7.287618   -0.449280   -0.203589
 C    8.406215    0.425651   -0.739727
 C    8.327101    1.823430   -0.158074
 C    6.940320    2.411191   -0.400233
 O    9.264875    2.674834   -0.779823
 O    9.667682   -0.110716   -0.405488
 O    7.406369   -1.678345   -0.881891
 C    6.743499    3.718200    0.357423
 O    6.851791    3.502763    1.746547
 C   -5.891437    0.844974   -1.923731
 C   -6.949487    1.940889   -2.101743
 H    0.183745   -3.018986   -0.026511
 H   -0.472940   -3.358802    1.576370
 H    1.810553   -3.197200    2.563944
 H    1.768632   -4.374334    1.261565
 H    3.776961   -2.928256    1.109241
 H    1.186648   -0.690160   -0.448826
 H    1.835739    1.546419    0.242881
 H    1.370375    1.251288    1.901304
 H   -0.369115    2.555114    0.495161
 H   -0.910186   -1.126040   -0.598271
 H   -2.376490   -2.634830    0.500058
 H   -2.641857   -1.566577    1.861101
 H   -4.544696   -0.965059    0.870185
 H   -2.748319    3.414535    0.343929
 H   -2.194869    2.679911   -1.167842
 H   -4.328686    2.897561   -1.941910
 H   -5.486209    1.091382    0.178355
 H   -1.999061   -0.305092   -1.953714
 H   -2.942475    1.061686   -2.533356
 H   -3.613651   -0.580481   -2.573290
 H   -1.023675   -1.476758    3.120642
 H    0.701551   -1.394529    3.365588
 H   -0.196043    0.074536    2.957826
 H   -7.309815   -0.539247   -2.729496
 H   -5.825816   -1.308379   -2.150789
 H   -8.808219    0.527953   -0.905412
 H  -10.163725    0.981369    2.202254
 H  -10.447680    1.258107    0.468481
 H  -11.273471   -0.064755    1.324484
 H   -9.889516   -2.031471    2.166316
 H   -8.216807   -2.250739    1.584036
 H   -8.587405   -1.076578    2.864545
 H   -3.290180    0.351897    2.279726
 H   -2.422279    1.889426    2.352490
 H    3.356025    0.415614    2.476410
 H    4.176200   -1.147993    2.569255
 H    2.528669   -0.983962    3.157474
 H   -5.162327    3.313012    0.697441
 H    3.126157   -2.240030   -3.186207
 H    4.464370   -3.410036   -3.337330
 H    2.792343   -3.974898   -3.015343
 H   -4.634334    2.135329    2.894250
 H   -5.079975   -2.362706   -0.528040
 H    5.632592    0.223928   -1.473909
 H    7.430298   -0.574751    0.883783
 H    8.297573    0.499351   -1.836667
 H    8.491176    1.764397    0.929902
 H    6.798349    2.570198   -1.482801
 H   10.131626    2.269437   -0.639543
 H    9.671827   -1.021915   -0.732267
 H    6.619851   -2.218149   -0.704486
 H    7.521616    4.433781    0.079341
 H    5.764156    4.143463    0.090953
 H    6.218207    2.800160    1.948032
 H   -5.325370    0.904698   -2.865386
 H   -6.775417    2.912540   -1.603659
