108 
1awf_ligand_dft.xyz
 C   -0.405888    2.461472    1.306015
 C   -1.793491    2.765804    1.861315
 C   -2.872410    1.982547    1.136165
 C   -2.637213    0.452438    1.135109
 C   -1.171046    0.105522    0.739088
 C   -0.852085   -1.390717    0.869105
 C    0.586359   -1.701341    0.572607
 C    1.539257   -0.779782    0.425385
 C    1.213663    0.707022    0.495974
 C   -0.038896    0.968767    1.388597
 C    2.434763    1.586088    0.823270
 C    3.783818    1.233817    0.124892
 C    3.744207   -0.111234   -0.643149
 C    3.003300   -1.152270    0.269734
 C    3.302156   -2.477110   -0.439470
 C    4.744588   -2.344487   -0.973319
 C    5.115238   -0.823806   -0.903853
 C    3.027356    0.052338   -1.999183
 C    0.255400    0.593626    2.851710
 C    6.576675    1.022354   -2.059632
 C    7.237094    1.308840   -0.723687
 C    8.414776    0.498095   -0.368781
 C    8.734294    0.127657    0.885043
 C    9.928491   -0.751570    1.130733
 C    7.956310    0.513526    2.114249
 C    3.493438   -1.242923    1.741429
 C   -3.581861   -0.122555    0.066885
 C   -3.105617   -0.120579    2.490004
 O   -3.277217   -0.817034   -0.866701
 O    5.668457   -3.154997   -0.275911
 O    7.990980   -1.166713   -3.189850
 O   -4.860085    0.271474    0.308499
 O    6.779036    2.153054    0.043274
 O   -2.879176    2.405617   -0.250605
 C   -3.953614    3.058885   -0.701285
 C   -3.924574    3.237155   -2.191703
 O   -4.871086    3.422545    0.009486
 O    4.888502   -1.523985    1.871031
 O    4.144082    2.331845   -0.689683
 O   -6.187735   -1.524521    0.116126
 C   -5.873400   -0.299396   -0.487565
 C   -7.078879    0.638544   -0.477817
 C   -8.238480   -0.069233   -1.165626
 C   -8.511244   -1.424799   -0.535060
 C   -7.227536   -2.254036   -0.533271
 O   -9.480871   -2.134527   -1.270758
 O   -9.422170    0.692836   -1.090380
 O   -6.852976    1.827962   -1.197704
 C   -7.359320   -3.551894    0.250958
 O   -7.611535   -3.305548    1.615040
 C    5.974834   -0.400347   -2.115270
 C    7.090727   -1.409476   -2.416146
 H   -0.370258    2.783886    0.257418
 H    0.338977    3.058142    1.843638
 H   -1.853131    2.532534    2.930492
 H   -2.020481    3.833021    1.765167
 H   -3.855979    2.204040    1.550389
 H   -1.121616    0.335979   -0.332455
 H   -1.502236   -1.959305    0.198086
 H   -1.071278   -1.752102    1.884011
 H    0.846345   -2.757682    0.520236
 H    0.899658    1.014496   -0.509920
 H    2.217028    2.613406    0.524075
 H    2.599626    1.618398    1.905762
 H    4.543941    1.118272    0.909353
 H    3.227944   -3.353525    0.211768
 H    2.592132   -2.621204   -1.259549
 H    4.782331   -2.702527   -2.008409
 H    5.728498   -0.704082   -0.006284
 H    1.951618    0.199963   -1.905288
 H    3.167053   -0.823750   -2.640807
 H    3.436453    0.923910   -2.515743
 H    1.095919    1.181430    3.234578
 H   -0.588882    0.799270    3.513169
 H    0.513955   -0.462792    2.961012
 H    7.326270    1.088411   -2.856169
 H    5.800195    1.764855   -2.236689
 H    9.004957    0.118706   -1.198142
 H    9.610964   -1.709452    1.561325
 H   10.490930   -0.952512    0.215772
 H   10.600158   -0.284051    1.861503
 H    8.320462    1.471049    2.503742
 H    6.890864    0.637275    1.910454
 H    8.091984   -0.239083    2.898732
 H    3.260341   -0.324325    2.289615
 H    2.910747   -2.053483    2.200083
 H   -3.077878   -1.213266    2.486912
 H   -4.135469    0.183183    2.692216
 H   -2.477303    0.225699    3.311679
 H    5.648602   -2.823347    0.637207
 H   -4.667354    2.549572   -2.611163
 H   -4.234214    4.253935   -2.441766
 H   -2.943209    3.016998   -2.611491
 H    5.089089   -1.591099    2.811385
 H    5.067124    2.547429   -0.463149
 H   -5.501051   -0.451191   -1.508936
 H   -7.346857    0.841878    0.568374
 H   -7.958526   -0.233932   -2.220423
 H   -8.830589   -1.279780    0.507324
 H   -6.944770   -2.476772   -1.574053
 H  -10.237609   -1.540724   -1.364966
 H   -9.197298    1.572074   -1.424946
 H   -6.357850    2.456597   -0.643883
 H   -8.204051   -4.122537   -0.140253
 H   -6.439750   -4.139703    0.112567
 H   -6.918478   -2.698173    1.907069
 H    5.350624   -0.433147   -3.020180
 H    7.038560   -2.386580   -1.906060
