30 
1ax0_ligand_ani.xyz
 C    0.208617   -1.197887    0.138980
 C    0.685910    0.226710   -0.160924
 C   -0.117985    1.233370    0.673160
 C   -1.601518    1.059022    0.381807
 C   -1.995807   -0.396673    0.640304
 C   -3.432275   -0.701423    0.245197
 C    3.083805   -0.305069   -0.426024
 C    4.491474    0.159926   -0.117381
 N    2.086528    0.429724    0.144922
 O    0.514255   -1.496249    1.475014
 O    0.305147    2.553154    0.405768
 O   -1.786358    1.451619   -0.963720
 O   -1.179172   -1.301055   -0.114014
 O   -3.640211   -0.542507   -1.153896
 O    2.865623   -1.267874   -1.145896
 H    0.695378   -1.906098   -0.534691
 H    0.498418    0.414869   -1.226654
 H    0.068357    1.043686    1.735017
 H   -2.186892    1.712898    1.052125
 H   -1.870449   -0.597774    1.714794
 H   -3.693304   -1.719548    0.560405
 H   -4.110826    0.000217    0.739316
 H    5.106113   -0.718537    0.093260
 H    4.908837    0.645212   -1.005903
 H    4.551319    0.855095    0.725412
 H    2.310227    1.335587    0.537570
 H    0.207168   -2.397054    1.644264
 H   -0.080845    2.784245   -0.455080
 H   -2.591839    1.011305   -1.292086
 H   -2.984947   -1.116729   -1.578970
