25 
1axr_ligand_ani.xyz
 C   -1.461875   -0.445023    0.146073
 C   -1.428812    1.020935    0.413880
 C   -0.198740    1.616350   -0.260956
 C    1.061413    0.868567    0.154203
 C    1.010529   -0.588120   -0.337534
 C    2.044347   -1.466579    0.357572
 C   -2.441604   -1.404328    0.116560
 N   -0.583923   -2.435120   -0.297672
 N   -1.865475   -2.602218   -0.152582
 N   -0.324747   -1.135385   -0.112336
 O   -2.613798    1.618207   -0.055653
 O   -0.138319    2.972387    0.118685
 O    2.154980    1.565383   -0.401345
 O    3.321157   -0.870785    0.139427
 H   -1.315184    1.188264    1.500462
 H   -0.322894    1.521538   -1.353273
 H    1.119087    0.880666    1.258046
 H    1.215334   -0.593135   -1.417248
 H    1.801948   -1.514093    1.427247
 H    2.002218   -2.481630   -0.053286
 H   -3.506556   -1.297639    0.263779
 H   -2.499401    2.573981    0.051019
 H    0.728083    3.295678   -0.168489
 H    2.933591    0.999641   -0.267133
 H    3.959078   -1.256564    0.749315
