55 
1axs_ligand_dft.xyz
 C   -8.532946    0.590932    0.044449
 C   -7.581646    1.478688    0.541306
 C   -8.116311   -0.583351   -0.573573
 C   -6.757852   -0.865417   -0.691972
 C   -5.793676    0.013659   -0.196975
 C   -6.226507    1.190947    0.421194
 C   -4.318603   -0.308007   -0.324136
 C   -3.646412   -0.466659    1.048733
 C   -2.174455   -0.834253    0.920239
 C   -1.413879    0.202990    0.068688
 C   -2.082820    0.362312   -1.305971
 C   -3.560690    0.730393   -1.167882
 C    0.055368   -0.151690   -0.020226
 C    1.012343    0.597105    0.668067
 C    2.362019    0.256945    0.630254
 C    2.786095   -0.851717   -0.105136
 C    1.837548   -1.598906   -0.805984
 C    0.493385   -1.260959   -0.754347
 O   -1.650164   -0.919625    2.228814
 C    4.223212   -1.275349   -0.232299
 O    4.606765   -1.935416   -1.188244
 N    5.056649   -0.890963    0.777033
 C    6.491588   -1.087556    0.715218
 C    7.261752    0.226853    0.541533
 C    6.741885    1.055879   -0.633815
 C    5.453606    1.770674   -0.298694
 O    5.151759    2.200906    0.794279
 O    4.654975    1.904191   -1.367912
 H   -9.591539    0.812722    0.141664
 H   -7.896489    2.398079    1.026588
 H   -8.848780   -1.284548   -0.963134
 H   -6.440308   -1.786574   -1.175201
 H   -5.496421    1.892433    0.817625
 H   -4.235246   -1.272983   -0.845489
 H   -4.158470   -1.233186    1.639518
 H   -3.716805    0.471954    1.613943
 H   -2.097516   -1.813105    0.412837
 H   -1.500847    1.159403    0.602847
 H   -1.549151    1.122752   -1.886769
 H   -1.998584   -0.576506   -1.869821
 H   -4.025548    0.814507   -2.156502
 H   -3.648180    1.717491   -0.693758
 H    0.696637    1.465639    1.240536
 H    3.073488    0.894454    1.149440
 H    2.178442   -2.444874   -1.393431
 H   -0.225063   -1.868418   -1.298038
 H   -0.712275   -1.139631    2.153506
 H    4.687859   -0.347512    1.541822
 H    6.831288   -1.603850    1.620047
 H    6.667320   -1.749749   -0.135491
 H    7.198710    0.830136    1.453793
 H    8.318957   -0.012437    0.384320
 H    7.469931    1.832463   -0.898860
 H    6.586355    0.440050   -1.524430
 H    3.850990    2.356520   -1.064313
