24 
1axz_ligand_xtb.xyz
 C    0.446801    1.419303   -0.208875
 C    1.503974    0.371956    0.166262
 C    1.183639   -0.937520   -0.556932
 C   -0.248993   -1.370543   -0.207154
 C   -1.226592   -0.219760   -0.486094
 C   -2.632008   -0.545103    0.034024
 O    0.729353    2.590895    0.481726
 O    2.795712    0.781674   -0.205946
 O    2.054593   -1.964910   -0.152738
 O   -0.326847   -1.744408    1.141012
 O   -0.834956    0.987104    0.147787
 O   -3.548141    0.466664   -0.279603
 H    0.489280    1.597139   -1.307664
 H    1.441521    0.211788    1.253904
 H    1.269198   -0.768617   -1.641922
 H   -0.523923   -2.222559   -0.850283
 H   -1.259066   -0.049819   -1.575476
 H   -2.994549   -1.456782   -0.442664
 H   -2.562964   -0.703636    1.116201
 H   -0.098463    3.065931    0.615669
 H    2.917210    1.684597    0.111406
 H    2.950698   -1.608132   -0.190253
 H    0.455721   -2.285690    1.319383
 H   -3.203302    1.289632    0.086406
