85 
1ayv_ligand_dft.xyz
 C   -1.918472    3.250182   -2.339767
 C   -2.301703    3.524527   -1.028490
 C   -1.336449    3.797145   -0.062588
 C    0.021682    3.819985   -0.393925
 C    0.402271    3.534047   -1.710385
 C   -0.562620    3.244050   -2.676488
 C    1.051142    4.196017    0.647741
 O    1.707405    3.045127    1.203792
 C    2.781563    2.601990    0.524016
 O    3.207689    3.088727   -0.502943
 C    4.049316    0.581183    0.295004
 C    4.709879   -0.522872    1.131175
 C    5.672089   -0.013784    2.214865
 C    6.761253    0.892146    1.636892
 C    6.282462   -1.206501    2.954891
 C    3.079356   -0.009264   -0.711378
 S    3.543376   -0.611227   -2.273957
 N    1.806757   -0.111483   -0.461926
 C    1.148680   -0.686576   -1.516861
 N    3.332799    1.512527    1.145378
 C    1.901430   -1.020692   -2.595236
 C   -0.305187   -0.929689   -1.305173
 O   -0.957334   -1.435497   -2.392421
 C    1.747205   -3.547213    0.053025
 C    0.973679   -3.340870    1.192988
 C   -0.364218   -3.726792    1.208799
 C   -0.944875   -4.307057    0.077216
 C   -0.168978   -4.495558   -1.066528
 C    1.173933   -4.126203   -1.075293
 C   -2.386413   -4.756402    0.099620
 O   -3.217688   -3.827158    0.819790
 C   -3.403839   -2.645007    0.239100
 O   -3.099982   -2.379508   -0.923892
 C   -4.115416   -0.353536    0.718518
 C   -4.882342    0.415457    1.790697
 C   -5.053349    1.912250    1.484354
 C   -5.817611    2.582007    2.628643
 C   -5.751935    2.159674    0.143515
 C   -2.706807    0.217611    0.537752
 O   -1.945295    0.504450    1.437853
 N   -2.325385    0.357811   -0.786726
 N   -0.932079    0.449680   -0.965682
 N   -3.970393   -1.753840    1.085200
 H   -2.670190    3.053561   -3.098257
 H   -3.353867    3.536529   -0.761329
 H   -1.642591    4.017768    0.956785
 H    1.455102    3.553956   -1.971196
 H   -0.257542    3.052153   -3.701172
 H    0.575003    4.678906    1.502215
 H    1.802674    4.866300    0.226015
 H    4.812710    1.146623   -0.244425
 H    3.918755   -1.131805    1.592778
 H    5.254165   -1.186915    0.446313
 H    5.089224    0.575786    2.934055
 H    7.315268    0.380598    0.839367
 H    7.480342    1.169669    2.413560
 H    6.348018    1.820437    1.229294
 H    5.509003   -1.859169    3.375534
 H    6.920156   -0.868464    3.777482
 H    6.901921   -1.810152    2.280317
 H    2.741431    1.093624    1.851604
 H    1.584149   -1.489559   -3.515240
 H   -0.467011   -1.514896   -0.392397
 H   -1.612418   -2.085940   -2.072696
 H    2.792146   -3.251111    0.041830
 H    1.414329   -2.889287    2.076304
 H   -0.959001   -3.580543    2.105928
 H   -0.612377   -4.940432   -1.953868
 H    1.769623   -4.284240   -1.968645
 H   -2.506726   -5.689360    0.652797
 H   -2.780637   -4.889265   -0.910511
 H   -4.650980   -0.309098   -0.234573
 H   -4.351883    0.304480    2.744245
 H   -5.868006   -0.053846    1.899926
 H   -4.051653    2.363877    1.442349
 H   -5.310980    2.434260    3.587985
 H   -6.830158    2.170233    2.713856
 H   -5.909415    3.658935    2.458273
 H   -5.930204    3.229756   -0.003748
 H   -5.159149    1.810518   -0.710582
 H   -6.725079    1.655736    0.108022
 H   -2.743221   -0.284838   -1.455003
 H   -0.539504    0.798044   -0.071408
 H   -0.727147    1.154843   -1.693879
 H   -4.072927   -2.021554    2.054074
