85 
1ayv_ligand_ani.xyz
 C    0.425892    3.531694   -3.153777
 C    0.074187    3.378686   -1.814906
 C    1.057905    3.286939   -0.836141
 C    2.406274    3.378068   -1.184618
 C    2.750971    3.513892   -2.527755
 C    1.767393    3.592007   -3.511470
 C    3.469505    3.335342   -0.116654
 O    3.400533    2.137622    0.673223
 C    3.920666    1.042971    0.073597
 O    4.461778    1.052631   -1.014137
 C    3.940027   -1.367959    0.316978
 C    4.895168   -2.230708    1.147421
 C    6.216157   -1.534293    1.493605
 C    7.004260   -1.128075    0.246535
 C    7.058658   -2.446531    2.385536
 C    2.589069   -2.000669    0.077904
 S    2.365111   -3.719982   -0.060177
 N    1.505346   -1.297656   -0.081128
 C    0.427129   -2.122021   -0.318611
 N    3.762093   -0.046151    0.888016
 C    0.688519   -3.447507   -0.352037
 C   -0.899754   -1.473695   -0.531793
 O   -1.476583   -1.696151   -1.796442
 C   -2.771058   -4.773688   -1.099500
 C   -2.851595   -4.529095    0.272774
 C   -3.789007   -3.630288    0.770698
 C   -4.660544   -2.967454   -0.094615
 C   -4.548653   -3.184461   -1.468283
 C   -3.617516   -4.091621   -1.972244
 C   -5.730713   -2.054904    0.454104
 O   -5.196332   -1.010792    1.285559
 C   -4.630306    0.002673    0.600940
 O   -4.521761    0.026293   -0.613513
 C   -3.318437    2.023677    0.946996
 C   -3.265484    3.193271    1.927931
 C   -2.385704    4.375031    1.498765
 C   -2.301624    5.395539    2.635795
 C   -2.884797    5.045339    0.216502
 C   -1.932065    1.429737    0.710929
 O   -1.023205    1.443065    1.532209
 N   -1.741374    0.810904   -0.507165
 N   -0.611187   -0.009725   -0.483036
 N   -4.212138    0.986436    1.447573
 H   -0.345118    3.597926   -3.917666
 H   -0.973795    3.315820   -1.531129
 H    0.777534    3.137257    0.207260
 H    3.803639    3.546179   -2.805160
 H    2.050658    3.702577   -4.555507
 H    3.331217    4.136578    0.615470
 H    4.466742    3.418386   -0.556285
 H    4.381171   -1.181398   -0.669529
 H    4.393310   -2.515615    2.081416
 H    5.101668   -3.159410    0.600451
 H    5.977625   -0.622468    2.057730
 H    7.227907   -2.003104   -0.379124
 H    7.960449   -0.674371    0.531110
 H    6.463225   -0.398035   -0.367427
 H    6.517857   -2.722903    3.298077
 H    7.992184   -1.955648    2.682566
 H    7.320919   -3.372143    1.856643
 H    3.041685    0.065384    1.588067
 H   -0.013977   -4.252226   -0.522868
 H   -1.619624   -1.755700    0.245249
 H   -1.918741   -2.560849   -1.776117
 H   -2.065001   -5.502705   -1.489422
 H   -2.193624   -5.055552    0.961092
 H   -3.857506   -3.452161    1.841395
 H   -5.188810   -2.628842   -2.148006
 H   -3.557750   -4.271803   -3.044267
 H   -6.411094   -2.593193    1.119915
 H   -6.302699   -1.607814   -0.363047
 H   -3.734513    2.332726   -0.017979
 H   -2.893804    2.804066    2.884093
 H   -4.294939    3.537738    2.093053
 H   -1.373085    3.983884    1.316276
 H   -1.909216    4.940747    3.552404
 H   -3.295185    5.803808    2.862252
 H   -1.648724    6.234297    2.369284
 H   -2.227036    5.875228   -0.066659
 H   -2.920401    4.353155   -0.633076
 H   -3.896235    5.449260    0.356692
 H   -2.557310    0.477409   -1.026813
 H   -0.120602    0.208606    0.414857
 H    0.059718    0.206923   -1.264030
 H   -4.092258    0.698331    2.408948
