85 
1ayv_ligand_xtb.xyz
 C   -1.795088    2.497978   -2.797104
 C   -1.797223    3.512666   -1.855087
 C   -0.602560    3.980791   -1.331440
 C    0.609823    3.452387   -1.756279
 C    0.610466    2.426686   -2.700158
 C   -0.589787    1.944998   -3.213692
 C    1.912908    3.970102   -1.203667
 O    2.397268    3.141589   -0.138916
 C    3.166389    2.094365   -0.501623
 O    3.388503    1.769767   -1.642636
 C    4.212317    0.125952    0.396755
 C    4.667578   -0.471097    1.730484
 C    5.811398    0.313033    2.388399
 C    7.097697    0.224032    1.571884
 C    6.045828   -0.230395    3.796617
 C    3.176389   -0.729316   -0.265304
 S    3.580286   -2.036629   -1.335571
 N    1.906710   -0.517907   -0.149919
 C    1.180832   -1.378381   -0.913923
 N    3.659962    1.452589    0.583877
 C    1.908130   -2.275778   -1.630563
 C   -0.305756   -1.218572   -0.850124
 O   -0.952947   -1.685089   -1.948228
 C    0.196554   -4.730792   -0.154959
 C   -0.278333   -4.215428    1.039536
 C   -1.627966   -3.946941    1.191694
 C   -2.512783   -4.184143    0.145769
 C   -2.027857   -4.683045   -1.056017
 C   -0.679863   -4.962083   -1.201733
 C   -3.985111   -3.916391    0.325879
 O   -4.230751   -2.729933    1.092789
 C   -3.866483   -1.583462    0.533201
 O   -3.392388   -1.484242   -0.592690
 C   -3.728186    0.838620    1.030314
 C   -4.155228    1.789187    2.142070
 C   -3.977581    3.263020    1.745631
 C   -4.087832    4.139734    2.990901
 C   -5.013667    3.697624    0.711644
 C   -2.211380    0.875698    0.829235
 O   -1.371349    1.035688    1.677704
 N   -1.862092    0.656560   -0.482357
 N   -0.524556    0.306204   -0.730827
 N   -4.061157   -0.539717    1.362302
 H   -2.723259    2.150933   -3.224539
 H   -2.728991    3.955953   -1.540038
 H   -0.610116    4.781314   -0.607560
 H    1.552894    2.027653   -3.044805
 H   -0.580467    1.176200   -3.972761
 H    1.784457    4.958590   -0.760146
 H    2.668352    4.006056   -1.994962
 H    5.064346    0.206523   -0.287703
 H    3.807971   -0.500392    2.404650
 H    4.992853   -1.498613    1.555859
 H    5.518529    1.365076    2.463095
 H    7.383743   -0.814335    1.419986
 H    7.905322    0.725036    2.098526
 H    6.988736    0.702031    0.602063
 H    5.144506   -0.153621    4.400328
 H    6.834543    0.329988    4.290685
 H    6.344921   -1.275193    3.755324
 H    3.280149    1.693074    1.486113
 H    1.547837   -3.031137   -2.296678
 H   -0.695141   -1.634560    0.093314
 H   -1.884174   -1.893575   -1.739785
 H    1.244939   -4.963175   -0.262072
 H    0.399085   -4.036652    1.860898
 H   -2.002339   -3.563977    2.130552
 H   -2.708682   -4.867153   -1.873302
 H   -0.318012   -5.368165   -2.133479
 H   -4.456366   -4.712616    0.907095
 H   -4.481920   -3.831240   -0.645581
 H   -4.216980    1.098589    0.084433
 H   -3.542463    1.581646    3.021631
 H   -5.201156    1.605595    2.392285
 H   -2.974613    3.385906    1.320647
 H   -3.323321    3.876189    3.717092
 H   -5.063427    4.018592    3.455292
 H   -3.963107    5.186715    2.729139
 H   -4.873315    4.746253    0.463187
 H   -4.939782    3.121763   -0.208129
 H   -6.017945    3.579271    1.111271
 H   -2.542417    0.148066   -1.055542
 H    0.051817    0.625726    0.080071
 H   -0.189768    0.801393   -1.606583
 H   -4.422335   -0.736310    2.283517
