59 
1b05_ligand_ani.xyz
 N    5.781297    0.329093   -0.293228
 C    4.515372    0.084843    0.483602
 C    3.652549   -0.768642   -0.463528
 O    3.934281   -0.791320   -1.655207
 C    3.816903    1.403790    0.856963
 C    3.436295    2.305675   -0.323387
 C    2.723111    3.593999    0.104107
 C    1.343436    3.405788    0.742683
 N    0.343862    2.823832   -0.198189
 N    2.607423   -1.450569    0.072084
 C    1.537148   -1.968653   -0.754529
 C    0.416872   -0.910468   -0.873686
 O    0.719615    0.234375   -1.202842
 C    1.120261   -3.367005   -0.303523
 S    0.598899   -3.377232    1.452793
 N   -0.871444   -1.280736   -0.644375
 C   -1.903285   -0.263518   -0.539027
 C   -1.802339    0.483249    0.787755
 O   -1.566379   -0.339832    1.819345
 C   -3.296620   -0.881135   -0.692027
 C   -4.425604    0.133839   -0.513025
 C   -5.808212   -0.475723   -0.749318
 C   -6.951545    0.544031   -0.761990
 N   -7.100648    1.255383    0.555728
 O   -1.959198    1.677426    0.924220
 H    5.504517    0.086035   -1.275199
 H    6.087954    1.309398   -0.220300
 H    6.545574   -0.295107    0.020502
 H    4.746025   -0.475710    1.388761
 H    4.469759    1.952317    1.549404
 H    2.915033    1.153198    1.427236
 H    4.337584    2.590756   -0.880969
 H    2.814354    1.745591   -1.030648
 H    3.353669    4.135985    0.821037
 H    2.618238    4.256240   -0.765204
 H    0.972075    4.368329    1.102691
 H    1.411416    2.744759    1.611126
 H    0.625832    1.871527   -0.493214
 H   -0.574728    2.747277    0.266504
 H    0.235355    3.414991   -1.039353
 H    2.436530   -1.371663    1.065636
 H    1.957457   -2.046395   -1.761370
 H    1.986606   -4.022138   -0.413221
 H    0.318850   -3.747807   -0.942798
 H    0.625822   -4.709185    1.605688
 H   -1.039726   -2.124790   -0.110051
 H   -1.737991    0.480722   -1.320034
 H   -1.547402    0.209352    2.620766
 H   -3.408148   -1.692193    0.041768
 H   -3.347032   -1.340241   -1.686714
 H   -4.274959    0.978296   -1.201345
 H   -4.359871    0.546969    0.500368
 H   -5.816630   -0.985946   -1.720212
 H   -6.005307   -1.248237    0.007143
 H   -6.759949    1.296656   -1.526713
 H   -7.895428    0.055065   -0.997642
 H   -6.230598    1.779903    0.743402
 H   -7.894141    1.912344    0.529347
 H   -7.249154    0.554782    1.304215
