74 
1b0h_ligand_dft.xyz
 N   -4.197009    0.645086   -0.705923
 C   -3.209861   -0.391385   -0.252457
 C   -1.982453   -0.100620   -1.155697
 O   -2.196423    0.381493   -2.263018
 C   -3.733007   -1.815875   -0.481335
 C   -4.938048   -2.218643    0.382986
 C   -5.334848   -3.685976    0.143312
 C   -6.557437   -4.068454    0.973860
 N   -6.949580   -5.513522    0.743568
 N   -0.777506   -0.381120   -0.659500
 C    0.427802    0.202229   -1.225254
 C    1.596329   -0.431559   -0.466096
 O    1.427717   -0.976539    0.614915
 C    0.455410    1.770246   -1.070735
 C   -0.350648    2.228895    0.125448
 C    0.133554    1.971411    1.388233
 C   -0.645079    2.190270    2.545548
 C   -1.656737    2.808078   -0.015233
 C   -2.457314    2.983023    1.155579
 C   -1.927977    2.654210    2.430887
 C   -2.197915    3.242373   -1.260922
 C   -3.453931    3.788513   -1.348108
 C   -4.265024    3.909061   -0.193078
 C   -3.775950    3.509828    1.028264
 N    2.809576   -0.303276   -1.060763
 C    4.041176   -0.657125   -0.385341
 C    4.701979    0.561031    0.264445
 O    5.855818    0.583933    0.649167
 C    5.011858   -1.426219   -1.315362
 C    5.685562   -2.657888   -0.690309
 C    6.637129   -2.393098    0.483507
 C    7.905196   -1.641833    0.061516
 N    8.310874   -0.660018    1.129894
 O    3.888455    1.600401    0.395429
 H   -5.168137    0.330488   -0.699211
 H   -4.142659    1.522311   -0.155020
 H   -3.902497    0.879771   -1.680520
 H   -2.988247   -0.198880    0.800716
 H   -2.895942   -2.491155   -0.270012
 H   -3.962147   -1.937079   -1.547895
 H   -4.698907   -2.069361    1.442957
 H   -5.808614   -1.584743    0.164006
 H   -4.489674   -4.335423    0.404052
 H   -5.546630   -3.837441   -0.922769
 H   -7.435806   -3.473576    0.712864
 H   -6.374315   -3.970387    2.046232
 H   -6.195255   -6.160433    1.000775
 H   -7.772784   -5.773093    1.300827
 H   -7.182722   -5.693909   -0.239880
 H   -0.657874   -0.699409    0.298186
 H    0.485103   -0.054883   -2.286568
 H    0.089766    2.203727   -2.000257
 H    1.496969    2.088829   -0.962660
 H    1.130994    1.556983    1.502014
 H   -0.222766    1.979958    3.522611
 H   -2.539184    2.817038    3.314141
 H   -1.611139    3.158145   -2.167227
 H   -3.824340    4.143919   -2.304403
 H   -5.253264    4.352003   -0.269250
 H   -4.370455    3.645684    1.927968
 H    2.875809    0.197705   -1.936592
 H    3.737814   -1.301615    0.450664
 H    5.755440   -0.735763   -1.728775
 H    4.423173   -1.781207   -2.166062
 H    6.226432   -3.186790   -1.483561
 H    4.907965   -3.348387   -0.345763
 H    6.915312   -3.347382    0.940373
 H    6.108513   -1.820180    1.253890
 H    7.753342   -1.039548   -0.835183
 H    8.750359   -2.310282   -0.110079
 H    9.169937   -0.156386    0.888563
 H    7.539744    0.022332    1.228224
 H    8.464755   -1.119137    2.032560
 H    4.374307    2.320230    0.835250
