71 
1b1h_ligand_ani.xyz
 N   -3.419567    1.465751    1.380108
 C   -3.488094    0.009896    1.000486
 C   -2.532653   -0.223353   -0.183385
 O   -2.907256   -0.651143   -1.267978
 C   -4.916742   -0.416797    0.677356
 C   -5.086446   -1.931040    0.569575
 C   -6.527274   -2.337864    0.266437
 C   -6.673356   -3.854035    0.128755
 N   -8.079167   -4.270496   -0.204899
 N   -1.232880    0.094932    0.044799
 C   -0.235766   -0.130458   -0.978562
 C    1.121550   -0.242369   -0.286832
 O    1.331050    0.241259    0.816201
 C   -0.226749    0.969788   -2.061094
 C    0.323155    2.336828   -1.628650
 C   -0.491792    3.056636   -0.577452
 C   -0.019554    3.211044    0.730034
 C   -1.744424    3.589739   -0.895903
 C   -0.742343    3.936211    1.672826
 C   -2.484829    4.292031    0.049358
 C   -1.978220    4.480612    1.334220
 N    2.096663   -0.915415   -0.966476
 C    3.454524   -0.855493   -0.460803
 C    3.954659    0.583335   -0.540373
 O    3.724275    1.338158   -1.453883
 C    4.345936   -1.801845   -1.275747
 C    5.833424   -1.780644   -0.910868
 C    6.130371   -2.126372    0.547882
 C    7.636671   -2.210120    0.797534
 N    7.966303   -2.478314    2.238688
 O    4.727426    0.919671    0.508292
 H   -3.840619    2.044013    0.622884
 H   -2.445503    1.794746    1.506579
 H   -3.931452    1.629292    2.265845
 H   -3.121315   -0.563703    1.858712
 H   -5.577743   -0.030700    1.465194
 H   -5.223591    0.047377   -0.267594
 H   -4.423177   -2.306445   -0.219174
 H   -4.759610   -2.405121    1.507404
 H   -7.187479   -1.968504    1.065027
 H   -6.847761   -1.847500   -0.664462
 H   -6.384364   -4.342534    1.058688
 H   -6.014581   -4.218933   -0.658697
 H   -8.147079   -5.292130   -0.293718
 H   -8.356161   -3.829798   -1.097461
 H   -8.711432   -3.948326    0.546009
 H   -0.872267    0.359879    0.952768
 H   -0.473237   -1.072507   -1.485342
 H    0.369167    0.607757   -2.909718
 H   -1.256322    1.070234   -2.423423
 H    0.370725    2.963755   -2.528570
 H    1.358552    2.229774   -1.286006
 H    0.914997    2.734507    1.015206
 H   -2.145874    3.452855   -1.898038
 H   -0.342654    4.075282    2.674821
 H   -3.473886    4.667312   -0.202695
 H   -2.556985    5.027471    2.072512
 H    1.992486   -0.983667   -1.970112
 H    3.438628   -1.146923    0.590884
 H    3.942800   -2.813959   -1.144697
 H    4.234324   -1.548770   -2.339206
 H    6.354060   -2.492845   -1.565187
 H    6.247380   -0.790109   -1.142535
 H    5.696928   -1.360671    1.200767
 H    5.650016   -3.083221    0.799443
 H    8.109022   -1.270893    0.511668
 H    8.074913   -3.003217    0.192124
 H    8.982352   -2.550601    2.374950
 H    7.515927   -3.362117    2.527210
 H    7.597702   -1.702903    2.813749
 H    5.007393    1.838682    0.358817
