67 
1b2h_ligand_dft.xyz
 N   -5.173426    1.712041   -0.934632
 C   -4.214985    0.807428   -0.199739
 C   -2.852304    1.146426   -0.875649
 O   -2.890202    1.706103   -1.968611
 C   -4.618180   -0.668451   -0.370925
 C   -5.907319   -1.053796    0.379520
 C   -6.307964   -2.522948    0.146660
 C   -7.585813   -2.860362    0.917663
 N   -8.022683   -4.291244    0.686786
 N   -1.726371    0.816197   -0.239482
 C   -0.410833    1.040909   -0.832520
 C    0.011723    2.531145   -0.822648
 C    0.068367    3.141390    0.583054
 C    0.651520    4.549050    0.653269
 N    2.118352    4.573277    0.277323
 C    0.582692    0.224003    0.007218
 O    0.286496   -0.123413    1.140620
 N    1.797486   -0.000487   -0.553695
 C    2.935171   -0.387445    0.260713
 C    3.453485    0.847452    1.006705
 O    3.132210    1.989949    0.730858
 C    4.015959   -1.067582   -0.612948
 C    5.137278   -1.770983    0.166849
 C    6.090935   -2.533874   -0.769061
 C    7.204138   -3.206661    0.030980
 N    8.162503   -3.960082   -0.868777
 O    4.287000    0.529008    1.978506
 H   -5.376213    2.582073   -0.432704
 H   -6.066782    1.271897   -1.167837
 H   -4.656110    1.961238   -1.816109
 H   -4.218784    1.092642    0.855755
 H   -3.785903   -1.276081    0.000710
 H   -4.704351   -0.888490   -1.443151
 H   -5.765357   -0.876385    1.452519
 H   -6.747248   -0.416550    0.068869
 H   -6.462688   -2.695541   -0.925789
 H   -5.492267   -3.181021    0.470659
 H   -7.452668   -2.754373    1.996670
 H   -8.427972   -2.236871    0.608208
 H   -8.881352   -4.506425    1.210091
 H   -8.222538   -4.480506   -0.302666
 H   -7.312103   -4.967719    0.989451
 H   -1.706189    0.371809    0.675881
 H   -0.432689    0.693790   -1.870900
 H    0.995493    2.577614   -1.306202
 H   -0.681013    3.087793   -1.461443
 H   -0.944208    3.215275    0.993575
 H    0.625347    2.493553    1.267624
 H    0.593124    4.932757    1.673160
 H    0.145955    5.253835   -0.010628
 H    2.619817    3.747679    0.655892
 H    2.573898    5.425900    0.619419
 H    2.250985    4.556314   -0.737618
 H    1.987705    0.371193   -1.474567
 H    2.578784   -1.092758    1.017760
 H    3.485229   -1.804728   -1.225953
 H    4.445627   -0.328997   -1.303001
 H    4.694453   -2.470556    0.886190
 H    5.708120   -1.042038    0.749979
 H    5.529734   -3.289529   -1.333488
 H    6.526295   -1.837685   -1.497736
 H    6.814509   -3.941164    0.739469
 H    7.811487   -2.482763    0.578806
 H    8.617228   -3.340027   -1.548816
 H    7.688206   -4.698932   -1.400425
 H    8.909795   -4.411533   -0.327021
 H    4.596385    1.330012    2.436870
