55 
1b3l_ligand_dft.xyz
 N    1.720891   -0.820466    1.678030
 C    2.812111    0.086832    1.147716
 C    2.038383    0.908855    0.096478
 O    1.829744    0.419990   -0.995837
 C    3.956819   -0.726053    0.553284
 C    5.112061    0.177924    0.100537
 C    6.263537   -0.631615   -0.516712
 C    7.407591    0.288343   -0.932748
 N    8.547485   -0.494747   -1.551926
 N    1.456656    2.055972    0.544727
 C    0.113872    2.323507    0.058204
 C   -0.797184    1.231614    0.643032
 O   -0.564327    0.771140    1.763168
 N   -1.822941    0.796555   -0.111489
 C   -2.615922   -0.346730    0.301101
 C   -1.781539   -1.636680    0.200267
 O   -2.550213   -2.716212    0.276230
 C   -3.955032   -0.414019   -0.450070
 C   -4.853321    0.791772   -0.145484
 C   -6.205573    0.783696   -0.879508
 C   -7.168049   -0.273443   -0.345059
 N   -8.527775   -0.137794   -1.001894
 O   -0.573278   -1.675172    0.115761
 H    1.311442   -1.396026    0.923434
 H    2.048833   -1.433570    2.429300
 H    0.907302   -0.253277    2.012743
 H    3.144144    0.692088    1.996660
 H    3.569046   -1.289123   -0.302701
 H    4.319579   -1.443507    1.299885
 H    4.740395    0.897487   -0.638933
 H    5.487420    0.753558    0.955888
 H    5.892295   -1.183802   -1.389195
 H    6.626477   -1.368873    0.210933
 H    7.096548    1.016618   -1.684920
 H    7.835912    0.822664   -0.081857
 H    8.248007   -1.004310   -2.391019
 H    9.319598    0.122154   -1.831612
 H    8.934364   -1.185210   -0.898253
 H    1.616459    2.316700    1.508821
 H    0.116054    2.329008   -1.032805
 H   -0.211004    3.305231    0.411678
 H   -1.861078    1.076848   -1.082595
 H   -2.814788   -0.228219    1.373895
 H   -1.989157   -3.510487    0.253773
 H   -4.440661   -1.348103   -0.155175
 H   -3.769407   -0.487284   -1.530273
 H   -4.338496    1.715449   -0.428168
 H   -5.024725    0.862698    0.936228
 H   -6.661719    1.773768   -0.757544
 H   -6.044132    0.631971   -1.954453
 H   -6.838255   -1.294528   -0.546725
 H   -7.339591   -0.162779    0.728143
 H   -8.940741    0.785125   -0.824136
 H   -8.470490   -0.251613   -2.020263
 H   -9.191790   -0.839273   -0.653692
