55 
1b3l_ligand_ani.xyz
 N    1.604477   -0.599200    1.722990
 C    2.734480    0.213512    1.135057
 C    2.060068    1.008648    0.006044
 O    1.925212    0.536090   -1.108103
 C    3.842792   -0.684350    0.604184
 C    5.013642    0.091667    0.006899
 C    6.153548   -0.822042   -0.439435
 C    7.318861   -0.029213   -1.031491
 N    8.445778   -0.914424   -1.487286
 N    1.492773    2.225103    0.350023
 C    0.140108    2.423642   -0.154687
 C   -0.819886    1.462383    0.566124
 O   -0.640267    1.148546    1.740262
 N   -1.852305    0.947306   -0.159498
 C   -2.591934   -0.174885    0.386327
 C   -1.706589   -1.420109    0.459411
 O   -2.371741   -2.487416    0.920807
 C   -3.900889   -0.415381   -0.372617
 C   -4.877266    0.754059   -0.227355
 C   -6.192329    0.573535   -0.991572
 C   -7.036521   -0.591377   -0.464084
 N   -8.385120   -0.662924   -1.126505
 O   -0.531577   -1.464229    0.168047
 H    1.168833   -1.157053    0.957211
 H    1.924740   -1.226616    2.486063
 H    0.863466    0.035629    2.094062
 H    3.116033    0.893344    1.903193
 H    3.411562   -1.344110   -0.157291
 H    4.204027   -1.314930    1.427279
 H    4.656823    0.678318   -0.850020
 H    5.391522    0.815003    0.745053
 H    5.769614   -1.536562   -1.181795
 H    6.503678   -1.412235    0.420151
 H    6.976075    0.553256   -1.885866
 H    7.710273    0.665625   -0.289126
 H    8.088962   -1.568758   -2.202889
 H    9.211413   -0.356824   -1.886134
 H    8.798153   -1.451892   -0.678238
 H    1.583754    2.472004    1.327750
 H    0.138323    2.233939   -1.230399
 H   -0.154273    3.463575    0.020381
 H   -1.774599    0.995912   -1.167352
 H   -2.816492    0.078215    1.428421
 H   -1.735572   -3.222092    0.945151
 H   -4.344078   -1.338092    0.012626
 H   -3.671735   -0.593563   -1.433199
 H   -4.387904    1.676562   -0.561363
 H   -5.101635    0.895936    0.840220
 H   -6.772472    1.502550   -0.912438
 H   -5.974622    0.424389   -2.058920
 H   -6.533301   -1.541332   -0.635226
 H   -7.190569   -0.482680    0.609640
 H   -8.900708    0.210533   -0.931099
 H   -8.253967   -0.761665   -2.146473
 H   -8.926072   -1.461874   -0.772385
