68 
1b40_ligand_ani.xyz
 N    3.475488    1.546108   -1.486508
 C    3.375196    0.057929   -1.205322
 C    2.472815   -0.115827    0.031982
 O    2.913957   -0.090063    1.175378
 C    4.756873   -0.557690   -0.982119
 C    4.699954   -2.073757   -0.785481
 C    6.071997   -2.735598   -0.617309
 C    6.765844   -2.345288    0.692798
 N    8.059275   -3.084913    0.896031
 N    1.145650   -0.281487   -0.220520
 C    0.163313   -0.119982    0.825837
 C   -1.218661   -0.296613    0.185166
 O   -1.389462   -0.212475   -1.026443
 C    0.280367    1.240559    1.579813
 C    0.722633    2.414063    0.730807
 C    1.869972    3.130203    1.087214
 C    0.035902    2.792112   -0.425152
 C    2.319503    4.199902    0.316795
 C    0.480259    3.861128   -1.198379
 C    1.621151    4.568369   -0.830536
 N   -2.245594   -0.520451    1.038452
 C   -3.607468   -0.566206    0.535706
 C   -4.620581   -0.350214    1.642871
 O   -5.819785   -0.418311    1.476496
 C   -3.943088   -1.851272   -0.267079
 C   -4.321750   -1.563752   -1.724492
 C   -5.642477   -0.805512   -1.887313
 C   -6.880303   -1.625163   -1.469772
 N   -7.718851   -0.888121   -0.468179
 O   -4.089003   -0.066523    2.840301
 H    2.537856    1.963937   -1.647214
 H    4.065083    1.718129   -2.317913
 H    3.890392    2.014125   -0.655080
 H    2.892357   -0.407351   -2.069070
 H    5.211089   -0.085977   -0.103414
 H    5.389541   -0.328984   -1.851021
 H    4.187628   -2.527127   -1.645257
 H    4.082958   -2.295954    0.095833
 H    5.939254   -3.825420   -0.641192
 H    6.712133   -2.474380   -1.472854
 H    6.112085   -2.564791    1.537503
 H    6.987637   -1.279377    0.710665
 H    7.866661   -4.099604    0.914332
 H    8.504199   -2.808929    1.780490
 H    8.695811   -2.872009    0.110617
 H    0.770502   -0.200169   -1.157359
 H    0.304830   -0.911394    1.572807
 H    1.014733    1.096797    2.373768
 H   -0.680995    1.460698    2.063572
 H    2.435085    2.824087    1.965067
 H   -0.850646    2.242180   -0.732761
 H    3.225724    4.732536    0.596834
 H   -0.069589    4.146883   -2.092229
 H    1.969611    5.399065   -1.437934
 H   -2.090700   -0.551575    2.034961
 H   -3.731952    0.288945   -0.141057
 H   -3.065498   -2.501903   -0.243179
 H   -4.758058   -2.391697    0.228519
 H   -4.384943   -2.515317   -2.267151
 H   -3.504370   -0.994911   -2.181957
 H   -5.745464   -0.477587   -2.928120
 H   -5.616709    0.107521   -1.279008
 H   -6.584560   -2.570533   -1.014481
 H   -7.498745   -1.871032   -2.332232
 H   -7.118815   -0.598950    0.324191
 H   -8.131828   -0.045002   -0.906320
 H   -8.476373   -1.488037   -0.106633
 H   -4.832054    0.049781    3.457291
