62 
1b46_ligand_xtb.xyz
 N    4.960317   -0.359929   -2.313265
 C    4.545880   -0.476597   -0.892583
 C    3.121531   -1.082896   -1.007987
 O    2.597281   -0.998824   -2.119219
 C    4.492576    0.907676   -0.228102
 C    3.482301    1.861714   -0.878591
 C    3.321974    3.163930   -0.083727
 C    2.409327    3.064728    1.134452
 N    0.989203    2.893649    0.730489
 N    2.546032   -1.624558    0.047805
 C    1.157126   -2.065265   -0.028673
 C    0.252430   -0.825163   -0.035072
 O    0.725363    0.303869   -0.028687
 C    0.984047   -2.943022    1.214953
 C    1.952509   -2.310899    2.213042
 C    3.146036   -1.933266    1.339591
 N   -1.058826   -1.082065   -0.051168
 C   -2.094831   -0.052363   -0.052384
 C   -2.032507    0.644252    1.320144
 O   -1.343770    1.612601    1.524581
 C   -3.452877   -0.690603   -0.349332
 C   -4.578688    0.337077   -0.501069
 C   -5.918717   -0.355307   -0.782514
 C   -7.045922    0.662586   -0.933153
 N   -8.354621   -0.009226   -1.193147
 O   -2.747481    0.030311    2.235178
 H    3.989303   -0.496906   -2.791465
 H    5.373038    0.546087   -2.548516
 H    5.594434   -1.102251   -2.622242
 H    5.219294   -1.135486   -0.342174
 H    4.236174    0.773640    0.821918
 H    5.491178    1.348643   -0.253987
 H    3.816459    2.129962   -1.881280
 H    2.518599    1.363319   -0.976506
 H    2.935649    3.940229   -0.746017
 H    4.302348    3.500781    0.254254
 H    2.499386    3.980234    1.720968
 H    2.683156    2.222218    1.768752
 H    0.819883    1.935976    0.333912
 H    0.729818    3.599805    0.035047
 H    0.340737    2.968257    1.524829
 H    0.991911   -2.604993   -0.967525
 H    1.288518   -3.964449    0.989241
 H   -0.036966   -2.962058    1.587830
 H    1.510002   -1.418265    2.657173
 H    2.231225   -2.992792    3.011347
 H    3.701549   -1.089076    1.744819
 H    3.824997   -2.784530    1.229844
 H   -1.374963   -2.041057   -0.049816
 H   -1.833955    0.696863   -0.810781
 H   -3.700718   -1.379752    0.459750
 H   -3.362638   -1.260018   -1.276362
 H   -4.664087    0.925851    0.413052
 H   -4.342996    1.018240   -1.320010
 H   -5.826974   -0.943838   -1.697168
 H   -6.142817   -1.035685    0.041115
 H   -7.142570    1.256445   -0.022580
 H   -6.837191    1.337324   -1.765180
 H   -9.110772    0.682582   -1.293037
 H   -8.600651   -0.641787   -0.418658
 H   -8.314159   -0.565344   -2.058906
 H   -2.685250    0.443594    3.114563
