62 
1b46_ligand_ani.xyz
 N    5.063376    0.509230   -2.007975
 C    4.480260    0.081485   -0.686528
 C    3.280745   -0.807205   -1.086068
 O    2.808809   -0.660734   -2.211140
 C    4.039663    1.299974    0.151525
 C    3.137059    2.320615   -0.555502
 C    2.628604    3.423852    0.386271
 C    1.529885    3.007789    1.371520
 N    0.241699    2.710426    0.679941
 N    2.760557   -1.691239   -0.200429
 C    1.395025   -2.164157   -0.396855
 C    0.409394   -1.000883   -0.231751
 O    0.745963    0.072315    0.259739
 C    1.220899   -3.185703    0.738271
 C    2.071490   -2.593546    1.864825
 C    3.278274   -1.989411    1.139467
 N   -0.878541   -1.228716   -0.605544
 C   -1.906419   -0.260459   -0.267196
 C   -1.830647    0.116670    1.211792
 O   -1.921469    1.241672    1.649724
 C   -3.296599   -0.790860   -0.624980
 C   -4.414211    0.207841   -0.329480
 C   -5.783112   -0.282216   -0.794759
 C   -6.876881    0.747955   -0.513606
 N   -8.235063    0.285700   -0.964137
 O   -1.694664   -0.960228    2.003265
 H    4.264049    0.347132   -2.668901
 H    5.352124    1.496284   -1.992502
 H    5.867472   -0.084069   -2.278611
 H    5.222486   -0.495827   -0.135538
 H    3.524960    0.934526    1.046299
 H    4.944002    1.807658    0.513157
 H    3.689360    2.808570   -1.368517
 H    2.291371    1.809886   -1.028573
 H    2.248636    4.263657   -0.210573
 H    3.473733    3.824917    0.960814
 H    1.368391    3.799685    2.106829
 H    1.821926    2.106624    1.918934
 H    0.347426    1.798590    0.203782
 H   -0.013617    3.446340    0.000607
 H   -0.528102    2.587684    1.351725
 H    1.271508   -2.603155   -1.392206
 H    1.615954   -4.154797    0.417360
 H    0.172018   -3.325017    1.026175
 H    1.512814   -1.799307    2.370568
 H    2.361295   -3.336684    2.611843
 H    3.632171   -1.080538    1.637489
 H    4.120865   -2.691618    1.080539
 H   -1.173024   -2.180819   -0.770920
 H   -1.724961    0.669236   -0.814681
 H   -3.477943   -1.726701   -0.079798
 H   -3.291751   -1.036712   -1.694799
 H   -4.442404    0.413980    0.749013
 H   -4.180098    1.166024   -0.816785
 H   -5.743184   -0.499241   -1.872108
 H   -6.018907   -1.228220   -0.286764
 H   -6.925087    0.957036    0.554475
 H   -6.648216    1.681745   -1.026337
 H   -8.951120    0.991833   -0.752416
 H   -8.467308   -0.595445   -0.477201
 H   -8.210390    0.116896   -1.983184
 H   -1.660313   -0.622622    2.913428
