64 
1b4h_ligand_ani.xyz
 N   -5.191727   -1.518680    1.642835
 C   -4.221715   -0.994887    0.613121
 C   -2.857089   -1.547809    1.070294
 O   -2.786689   -2.193586    2.111858
 C   -4.235502    0.536584    0.519833
 C   -5.548751    1.129706    0.009520
 C   -5.429411    2.627669   -0.268337
 C   -6.750208    3.228496   -0.748486
 N   -6.637993    4.697455   -1.050345
 N   -1.774565   -1.283449    0.307004
 C   -0.435798   -1.622525    0.739758
 C    0.523524   -0.697377   -0.002059
 O    0.284755   -0.321176   -1.147828
 C   -0.080518   -3.104320    0.475292
 C   -0.345444   -3.625193   -0.941260
 N    0.528472   -2.991756   -1.976254
 N    1.672231   -0.341822    0.628235
 C    2.744428    0.250162   -0.147506
 C    3.102200   -0.688663   -1.296805
 O    3.581646   -0.032565   -2.361232
 C    3.948189    0.528947    0.760368
 C    5.116328    1.225462    0.065353
 C    6.205230    1.660065    1.043716
 C    7.342191    2.390457    0.329084
 N    8.430517    2.829354    1.269458
 O    2.990170   -1.894044   -1.261830
 H   -4.564517   -2.041751    2.300580
 H   -5.652301   -0.744587    2.143633
 H   -5.902615   -2.146654    1.235169
 H   -4.474449   -1.421414   -0.360733
 H   -3.429178    0.845733   -0.156302
 H   -3.983783    0.966316    1.499816
 H   -5.850467    0.609362   -0.910903
 H   -6.358717    0.965584    0.733755
 H   -4.649878    2.791391   -1.025851
 H   -5.095433    3.138327    0.646214
 H   -7.083853    2.719451   -1.652065
 H   -7.518267    3.095417    0.012491
 H   -5.945593    4.832035   -1.805428
 H   -7.544237    5.081478   -1.345983
 H   -6.317095    5.190090   -0.200694
 H   -1.835284   -0.746314   -0.548310
 H   -0.364372   -1.452107    1.818879
 H    0.977377   -3.269288    0.726413
 H   -0.671419   -3.704691    1.171722
 H   -1.384663   -3.447959   -1.219115
 H   -0.174921   -4.702602   -0.947762
 H    1.515351   -3.000695   -1.659482
 H    0.247253   -2.000331   -2.089601
 H    0.451098   -3.473392   -2.889731
 H    1.931042   -0.837291    1.470514
 H    2.387682    1.181547   -0.595965
 H    3.795930   -0.705279   -3.029923
 H    4.288307   -0.415644    1.209204
 H    3.583267    1.158832    1.582310
 H    4.739920    2.104586   -0.477375
 H    5.543702    0.557246   -0.692397
 H    5.764481    2.316019    1.808732
 H    6.596194    0.775734    1.567212
 H    7.784888    1.740724   -0.425068
 H    6.954519    3.273727   -0.177766
 H    9.182256    3.310150    0.759652
 H    8.816343    1.998034    1.746383
 H    8.027895    3.470820    1.972194
