61 
1b4z_ligand_dft.xyz
 N    4.680284   -2.680184   -1.348772
 C    4.390307   -1.905846   -0.089080
 C    2.866625   -2.097592    0.110035
 O    2.301178   -2.994466   -0.498956
 C    4.885729   -0.458259   -0.142227
 C    4.091612    0.465508   -1.084554
 C    4.173300    1.936062   -0.643727
 C    3.119361    2.838651   -1.277515
 N    1.750308    2.547757   -0.727100
 N    2.267652   -1.280207    0.993927
 C    0.829588   -1.286207    1.159230
 C    0.144886   -0.595984   -0.044362
 O    0.794951   -0.091099   -0.957523
 C    0.455601   -0.621963    2.494086
 C    0.814151    0.847294    2.552654
 O    0.126220    1.491606    3.469060
 O    1.670701    1.362613    1.847230
 N   -1.202469   -0.583768   -0.030321
 C   -1.969795    0.081961   -1.069547
 C   -1.938883    1.599977   -0.847410
 O   -2.932961    2.211745   -1.482612
 C   -3.364162   -0.528759   -1.280039
 C   -4.400259   -0.320166   -0.164876
 C   -5.767549   -0.876949   -0.600128
 C   -6.838449   -0.650431    0.462212
 N   -8.183028   -1.174951   -0.001484
 O   -1.073912    2.177695   -0.225751
 H    5.583418   -3.162620   -1.326758
 H    4.657514   -2.087556   -2.184379
 H    3.902652   -3.370361   -1.435480
 H    4.899011   -2.444127    0.717029
 H    5.955729   -0.448105   -0.379003
 H    4.832688   -0.081613    0.886620
 H    3.044331    0.146581   -1.104765
 H    4.464561    0.384162   -2.113226
 H    4.080739    2.009671    0.447649
 H    5.154172    2.353449   -0.891583
 H    3.061497    2.715028   -2.361384
 H    3.329509    3.887415   -1.060391
 H    1.742418    2.538833    0.303471
 H    1.052869    3.230839   -1.032013
 H    1.386471    1.611002   -0.986742
 H    2.728571   -0.427070    1.284328
 H    0.501252   -2.330477    1.182069
 H    0.987512   -1.127310    3.309470
 H   -0.607142   -0.735952    2.719694
 H    0.437508    2.411128    3.541661
 H   -1.701016   -1.036068    0.722250
 H   -1.413863   -0.063607   -2.004775
 H   -2.836020    3.174315   -1.377107
 H   -3.755544   -0.097760   -2.206333
 H   -3.224591   -1.599300   -1.468756
 H   -4.089776   -0.815331    0.764993
 H   -4.498913    0.749267    0.053611
 H   -6.067548   -0.385547   -1.534388
 H   -5.674223   -1.949892   -0.811426
 H   -6.616264   -1.171118    1.396265
 H   -6.986873    0.410144    0.677102
 H   -8.153048   -2.182304   -0.196635
 H   -8.496318   -0.709330   -0.861102
 H   -8.912309   -1.025446    0.706196
