61 
1b4z_ligand_ani.xyz
 N    4.855129   -2.179365   -1.545068
 C    4.503600   -1.772782   -0.134723
 C    2.994379   -2.083990   -0.046875
 O    2.540305   -2.926050   -0.812079
 C    4.909927   -0.336835    0.212258
 C    4.188297    0.776512   -0.564844
 C    4.042723    2.062107    0.258683
 C    3.066224    3.068987   -0.355300
 N    1.661668    2.603339   -0.202316
 N    2.238298   -1.448705    0.888491
 C    0.794580   -1.546028    0.844001
 C    0.211148   -0.673281   -0.298207
 O    0.898862   -0.010273   -1.070494
 C    0.223111   -1.120671    2.219419
 C    0.217022    0.390710    2.287806
 O   -1.008172    0.899270    2.370929
 O    1.223143    1.073586    2.169123
 N   -1.143882   -0.669882   -0.377593
 C   -1.844744    0.169532   -1.326578
 C   -1.799984    1.641488   -0.916241
 O   -2.582930    2.398233   -1.697537
 C   -3.273836   -0.331068   -1.564324
 C   -4.204839   -0.196693   -0.358835
 C   -5.586437   -0.794582   -0.617991
 C   -6.488231   -0.676013    0.609682
 N   -7.860189   -1.245731    0.375972
 O   -1.131610    2.117239   -0.024358
 H    5.757448   -2.672771   -1.607327
 H    4.860209   -1.345913   -2.157818
 H    4.053954   -2.801590   -1.806642
 H    5.005988   -2.457386    0.551583
 H    5.995125   -0.237464    0.094405
 H    4.724845   -0.206990    1.286228
 H    3.190191    0.436562   -0.863979
 H    4.719398    1.007365   -1.498638
 H    3.667658    1.818476    1.263592
 H    5.021372    2.538233    0.391706
 H    3.277963    3.209650   -1.419120
 H    3.170076    4.039331    0.137309
 H    1.478219    2.329465    0.775088
 H    0.986624    3.338649   -0.450540
 H    1.459933    1.781163   -0.794696
 H    2.583720   -0.577653    1.272772
 H    0.533307   -2.588759    0.643459
 H    0.870279   -1.529487    2.999696
 H   -0.789230   -1.498117    2.373802
 H   -0.967456    1.829015    2.076737
 H   -1.677777   -1.061075    0.385103
 H   -1.288961    0.120155   -2.269704
 H   -2.486747    3.313740   -1.385220
 H   -3.694365    0.222032   -2.409555
 H   -3.200731   -1.381713   -1.869009
 H   -3.760036   -0.685298    0.521614
 H   -4.305015    0.865693   -0.097054
 H   -6.046195   -0.281502   -1.474419
 H   -5.476510   -1.851726   -0.899479
 H   -6.040117   -1.203568    1.450862
 H   -6.596806    0.370506    0.891643
 H   -7.770632   -2.246179    0.133751
 H   -8.302331   -0.741989   -0.410293
 H   -8.444975   -1.148859    1.215495
