50 
1b56_ligand_xtb.xyz
 C    5.326602    1.394186   -0.283112
 O    5.802930    1.335663    0.975838
 O    5.079537    2.448172   -0.791248
 C    5.111080    0.058410   -0.967409
 C    3.644594   -0.378653   -0.830773
 C    3.245764   -0.666365    0.616112
 C    1.784155   -1.097685    0.751813
 C    1.501876   -2.474731    0.151956
 C    0.112230   -3.006564    0.504941
 C   -1.020594   -2.197704   -0.123083
 C   -2.385381   -2.814255    0.177219
 C   -3.542525   -2.091716   -0.513685
 C   -3.766752   -0.673502    0.007383
 C   -4.987546   -0.022929   -0.637445
 C   -5.303217    1.372877   -0.095832
 C   -4.218075    2.418715   -0.390034
 C   -3.293304    2.687945    0.796709
 C   -2.188473    3.673421    0.434738
 H    5.936647    0.428310    1.279269
 H    5.771323   -0.706727   -0.550886
 H    5.342657    0.186298   -2.025618
 H    3.498250   -1.273475   -1.436982
 H    3.007491    0.411426   -1.231942
 H    3.390640    0.236841    1.213970
 H    3.888065   -1.452686    1.024802
 H    1.151985   -0.347535    0.275093
 H    1.528543   -1.122067    1.813890
 H    2.248698   -3.180087    0.526280
 H    1.596922   -2.434430   -0.934570
 H   -0.007806   -3.012246    1.591034
 H    0.037777   -4.041548    0.161285
 H   -0.875671   -2.154845   -1.205331
 H   -0.991096   -1.178544    0.261322
 H   -2.552407   -2.811256    1.257092
 H   -2.379328   -3.856969   -0.151076
 H   -4.456559   -2.671427   -0.360736
 H   -3.353653   -2.055148   -1.589416
 H   -2.885404   -0.069290   -0.204767
 H   -3.905608   -0.706268    1.090846
 H   -5.857704   -0.663801   -0.470746
 H   -4.831364    0.040083   -1.717408
 H   -5.465350    1.311769    0.982548
 H   -6.244139    1.696515   -0.546522
 H   -4.690637    3.363254   -0.669381
 H   -3.622693    2.093271   -1.245770
 H   -2.845496    1.754586    1.140503
 H   -3.882641    3.093400    1.622710
 H   -1.569866    3.276547   -0.367681
 H   -2.613319    4.617684    0.100859
 H   -1.550594    3.868977    1.293625
