50 
1b56_ligand_ani.xyz
 C  -45.530057   67.099191   -6.062876
 O  -45.629936   65.913342   -5.417119
 O  -45.170972   67.132767   -7.208985
 C  -45.894344   68.321115   -5.238596
 C  -45.784125   69.611011   -6.041055
 C  -46.117950   70.852459   -5.217384
 C  -45.930471   72.168904   -5.980404
 C  -46.681585   72.244701   -7.314684
 C  -48.182817   71.984300   -7.198926
 C  -48.927224   72.161146   -8.520418
 C  -50.431672   71.924972   -8.390907
 C  -51.223887   72.212670   -9.670204
 C  -50.820486   71.346748  -10.863093
 C  -51.692304   71.586028  -12.094663
 C  -51.287987   70.719662  -13.287252
 C  -52.094065   70.984808  -14.562119
 C  -53.584952   70.666232  -14.443087
 C  -54.333395   70.862534  -15.759295
 H  -45.928884   66.050731   -4.507591
 H  -46.915941   68.188351   -4.852858
 H  -45.234035   68.352997   -4.359274
 H  -44.769297   69.688587   -6.448952
 H  -46.449765   69.538411   -6.909462
 H  -47.152885   70.780271   -4.854032
 H  -45.483108   70.870758   -4.321214
 H  -46.252340   72.999891   -5.337279
 H  -44.859337   72.324574   -6.170434
 H  -46.523347   73.239235   -7.754001
 H  -46.241454   71.529175   -8.024145
 H  -48.355711   70.965721   -6.823576
 H  -48.609113   72.662632   -6.444351
 H  -48.750811   73.177118   -8.905000
 H  -48.503688   71.473742   -9.266000
 H  -50.605580   70.882840   -8.083819
 H  -50.823820   72.554652   -7.580307
 H  -52.293255   72.065324   -9.465919
 H  -51.105283   73.272456   -9.941643
 H  -49.770320   71.537495  -11.124630
 H  -50.877341   70.285432  -10.577975
 H  -52.742447   71.395960  -11.832602
 H  -51.635184   72.647408  -12.379507
 H  -50.222988   70.883844  -13.501392
 H  -51.385677   69.659397  -13.008759
 H  -51.974665   72.038735  -14.855250
 H  -51.669539   70.389049  -15.381979
 H  -53.704212   69.628759  -14.101517
 H  -54.041194   71.298109  -13.670917
 H  -55.398242   70.631183  -15.652872
 H  -54.249162   71.898848  -16.107380
 H  -53.926144   70.215725  -16.545295
