62 
1b5i_ligand_ani.xyz
 N   -5.499966   -2.467332   -0.274726
 C   -4.646156   -1.275573    0.095968
 C   -3.329477   -1.557052   -0.656939
 O   -2.990471   -2.724885   -0.813907
 C   -4.467972   -1.241151    1.624477
 C   -3.399086   -0.294813    2.177977
 C   -3.631445    1.203404    1.961977
 C   -2.480874    2.053522    2.520720
 N   -1.267720    1.963890    1.658422
 N   -2.649763   -0.499977   -1.152836
 C   -1.314061   -0.612109   -1.687642
 C   -0.258620   -0.627061   -0.558167
 O   -0.540045   -0.597489    0.635556
 C   -1.075107    0.559920   -2.663140
 C   -1.076850    1.907288   -1.948586
 O   -1.934737    2.185460   -1.107566
 N   -0.117746    2.786468   -2.308060
 N    1.039476   -0.643984   -0.960170
 C    2.100959   -0.337042   -0.007518
 C    2.064017    1.160428    0.316667
 O    1.668185    1.646005    1.349497
 C    3.457751   -0.803808   -0.525926
 C    4.594103   -0.526521    0.457840
 C    5.929744   -1.112853    0.006316
 C    7.032658   -0.852765    1.032396
 N    8.354542   -1.440977    0.623024
 O    2.514965    1.913308   -0.707822
 H   -6.069143   -2.786562    0.522177
 H   -4.778396   -3.185457   -0.531906
 H   -6.109002   -2.269888   -1.089204
 H   -5.122035   -0.362110   -0.267312
 H   -5.442810   -0.999804    2.071327
 H   -4.207721   -2.255834    1.955335
 H   -3.332802   -0.467801    3.261483
 H   -2.426357   -0.581862    1.768732
 H   -4.562115    1.508706    2.457140
 H   -3.752264    1.443500    0.895816
 H   -2.222455    1.712192    3.527567
 H   -2.787730    3.100398    2.595388
 H   -0.946065    0.989192    1.553236
 H   -1.490484    2.324619    0.715847
 H   -0.478183    2.503649    2.038925
 H   -2.920875    0.436660   -0.879922
 H   -1.237447   -1.559730   -2.231004
 H   -1.896820    0.565546   -3.385982
 H   -0.152656    0.421853   -3.235369
 H    0.709277    2.493664   -2.806430
 H   -0.067472    3.652422   -1.790992
 H    1.256116   -0.541791   -1.941065
 H    1.853233   -0.849363    0.922973
 H    3.669733   -0.320649   -1.487985
 H    3.379096   -1.882140   -0.712152
 H    4.696057    0.558779    0.597606
 H    4.326422   -0.937961    1.442540
 H    5.815274   -2.195230   -0.151626
 H    6.206139   -0.675812   -0.963876
 H    6.752949   -1.282888    1.993604
 H    7.164585    0.219445    1.172695
 H    9.077027   -1.242042    1.326331
 H    8.248369   -2.463602    0.520519
 H    8.636367   -1.033825   -0.283687
 H    2.459741    2.835040   -0.404873
