65 
1b5j_ligand_ani.xyz
 N    4.576345    1.847588    0.389546
 C    3.872673    0.881264   -0.509145
 C    2.758007    0.356362    0.405849
 O    3.011553    0.158891    1.590824
 C    4.769635   -0.235601   -1.056724
 C    5.459726   -1.126821   -0.023709
 C    6.262574   -2.249635   -0.678133
 C    6.946667   -3.133720    0.364160
 N    7.740053   -4.251588   -0.254738
 N    1.524171    0.205009   -0.124679
 C    0.345497    0.171195    0.718833
 C   -0.872433    0.103335   -0.199099
 O   -0.884176    0.624197   -1.308830
 C    0.212804    1.398353    1.657574
 C    0.043904    2.751788    0.950958
 C    1.186266    3.096835    0.009395
 O    2.309761    3.360589    0.431530
 N    0.865542    3.128972   -1.307747
 N   -1.966477   -0.544596    0.289543
 C   -3.236540   -0.354436   -0.382827
 C   -3.568507    1.133653   -0.383502
 O   -3.286565    1.891517    0.514891
 C   -4.324385   -1.166773    0.329654
 C   -5.709443   -1.062802   -0.305993
 C   -6.733088   -1.966626    0.377515
 C   -8.107800   -1.862224   -0.282547
 N   -9.142954   -2.712432    0.400962
 O   -4.243565    1.512605   -1.480321
 H    3.953164    2.688099    0.453837
 H    5.517448    2.105486    0.056904
 H    4.592451    1.376781    1.319172
 H    3.445835    1.433687   -1.348601
 H    4.149553   -0.861142   -1.710471
 H    5.527117    0.228069   -1.702942
 H    4.706659   -1.549697    0.652908
 H    6.130873   -0.527158    0.608468
 H    5.590622   -2.857468   -1.300930
 H    7.015037   -1.813547   -1.351378
 H    6.199918   -3.571433    1.025785
 H    7.622560   -2.535386    0.974116
 H    8.463013   -3.847060   -0.872123
 H    7.105078   -4.844159   -0.814306
 H    8.191377   -4.824314    0.469492
 H    1.359348    0.461893   -1.090058
 H    0.388588   -0.723939    1.348625
 H   -0.664024    1.237415    2.299353
 H    1.090141    1.417984    2.308359
 H   -0.912537    2.786796    0.419700
 H    0.023185    3.534402    1.717881
 H    0.060488    2.605059   -1.629840
 H    1.607178    3.293112   -1.974243
 H   -2.009607   -0.673221    1.291849
 H   -3.139675   -0.676000   -1.422640
 H   -4.373634   -0.844017    1.380024
 H   -3.994270   -2.213577    0.331716
 H   -6.054591   -0.021944   -0.263128
 H   -5.640094   -1.319234   -1.373181
 H   -6.379957   -3.007738    0.344556
 H   -6.805707   -1.687153    1.438385
 H   -8.044504   -2.173460   -1.324786
 H   -8.450992   -0.828388   -0.263507
 H   -9.222222   -2.414118    1.387007
 H   -8.842481   -3.700330    0.365829
 H  -10.057110   -2.616740   -0.058750
 H   -4.414390    2.464497   -1.381597
