65 
1b5j_ligand_dft.xyz
 N    4.131565    1.985564    0.083036
 C    3.676399    0.775654   -0.681782
 C    2.730588    0.086653    0.322212
 O    3.166347   -0.150337    1.443665
 C    4.846834   -0.093576   -1.160337
 C    5.798980   -0.627885   -0.079194
 C    6.879695   -1.529852   -0.696413
 C    7.836476   -2.043040    0.374911
 N    8.907958   -2.930625   -0.225762
 N    1.476667   -0.114042   -0.094559
 C    0.362661   -0.439270    0.786132
 C   -0.864705   -0.462878   -0.143590
 O   -0.746311   -0.272318   -1.346863
 C    0.219415    0.571878    1.946350
 C   -0.299620    1.961642    1.553957
 C    0.560916    2.670374    0.526472
 O    1.763953    2.889392    0.738751
 N   -0.054359    3.037660   -0.602833
 N   -2.073530   -0.675665    0.425609
 C   -3.270775   -0.578554   -0.387083
 C   -3.342663    0.803900   -1.046621
 O   -2.849845    1.814859   -0.599675
 C   -4.511849   -0.863858    0.480724
 C   -5.817255   -0.974107   -0.316436
 C   -7.002888   -1.368192    0.577412
 C   -8.283058   -1.453855   -0.246134
 N   -9.468818   -1.837932    0.616958
 O   -4.056680    0.763518   -2.168580
 H    3.276720    2.589350    0.257425
 H    4.864162    2.518081   -0.390927
 H    4.456744    1.682357    1.009532
 H    3.133842    1.155874   -1.550802
 H    4.400149   -0.933600   -1.705266
 H    5.414515    0.480681   -1.904397
 H    5.231484   -1.177760    0.677110
 H    6.290705    0.205788    0.440382
 H    6.399634   -2.377814   -1.201606
 H    7.439719   -0.970742   -1.457490
 H    7.324967   -2.648476    1.126347
 H    8.364659   -1.230634    0.879185
 H    9.468552   -2.429429   -0.924423
 H    8.504311   -3.750961   -0.692037
 H    9.556746   -3.277432    0.490769
 H    1.186159    0.094440   -1.047057
 H    0.510681   -1.439576    1.210257
 H   -0.459734    0.150141    2.695616
 H    1.190506    0.652035    2.438369
 H   -1.332192    1.904404    1.200851
 H   -0.291321    2.592890    2.449026
 H   -1.041425    2.853244   -0.747396
 H    0.435040    3.612622   -1.274420
 H   -2.162613   -0.716713    1.430225
 H   -3.210799   -1.314170   -1.195626
 H   -4.602439   -0.081327    1.245507
 H   -4.327765   -1.811283    1.001966
 H   -6.036897   -0.022792   -0.811617
 H   -5.694278   -1.719206   -1.111707
 H   -6.801960   -2.335825    1.055077
 H   -7.123862   -0.625172    1.376575
 H   -8.218703   -2.213837   -1.027937
 H   -8.540238   -0.497447   -0.706569
 H   -9.628058   -1.154487    1.365612
 H   -9.330904   -2.751570    1.063247
 H  -10.334492   -1.895168    0.067933
 H   -4.082607    1.657664   -2.550742
