103 
1b6j_ligand_ani.xyz
 C   -7.178662    1.480961    0.214758
 C   -4.816073    2.263027    0.733049
 O   -5.223062    2.879389    1.699767
 C   -5.738225    1.602203   -0.278490
 N   -3.464619    2.085029    0.524971
 C   -2.825782    1.647897   -0.699853
 C   -2.200878    0.243651   -0.625903
 O   -1.493774   -0.140700   -1.565260
 C   -1.795902    2.664182   -1.214584
 C   -0.594256    2.865733   -0.304391
 O   -0.269831    2.075307    0.579050
 N    0.122887    3.989785   -0.553169
 N   -2.468506   -0.489727    0.465160
 C   -2.118969   -1.903390    0.656731
 C   -2.837955   -2.805384   -0.365815
 C   -4.306530   -2.451783   -0.469756
 C   -4.850908   -1.959147   -1.658413
 C   -6.143098   -1.442882   -1.704719
 C   -5.132124   -2.507696    0.657466
 C   -6.414863   -1.982871    0.629761
 C   -6.897105   -1.386052   -0.532929
 O   -8.100732   -0.736504   -0.470546
 C   -8.076810    0.668404   -0.727262
 C   -0.598163   -2.157027    0.730167
 O    0.049399   -2.062063   -0.519583
 C    0.041349   -1.193158    1.729006
 N    1.498454   -1.419414    1.905774
 C    2.230585   -0.218689    2.508645
 C    3.173298    0.439199    1.482943
 O    4.392840    0.282968    1.543310
 C    2.988398   -0.755498    3.731240
 C    3.156999   -2.244009    3.430654
 C    1.833213   -2.611133    2.773556
 N    2.557002    1.181544    0.534777
 C    3.200604    1.805877   -0.632953
 C    3.654853    0.696316   -1.603620
 O    3.095531    0.526542   -2.681387
 C    4.307205    2.829588   -0.286279
 C    3.766733    3.947828    0.619931
 C    4.906022    3.387166   -1.581706
 C    4.856506    4.867865    1.169506
 N    4.679626   -0.091753   -1.172306
 C    4.732968   -1.483715   -1.615673
 C    3.412242   -2.141881   -1.152684
 O    3.252030   -2.478097    0.021581
 C    5.957082   -2.191815   -1.025549
 C    7.248722   -1.489171   -1.444490
 C    5.987513   -3.663886   -1.439888
 N    2.446204   -2.249496   -2.089450
 H   -7.589738    2.491341    0.322887
 H   -7.203729    1.028523    1.212441
 H   -5.717238    2.191962   -1.207126
 H   -5.318755    0.622151   -0.520812
 H   -2.882909    2.559212    1.203909
 H   -3.595340    1.574299   -1.476308
 H   -1.429223    2.329037   -2.190688
 H   -2.297931    3.626868   -1.362099
 H   -0.179574    4.683719   -1.217693
 H    0.868250    4.231394    0.083855
 H   -3.054698   -0.050684    1.160913
 H   -2.510890   -2.139007    1.651834
 H   -2.361123   -2.699322   -1.343792
 H   -2.710911   -3.850176   -0.052099
 H   -4.239943   -1.943812   -2.558148
 H   -6.551796   -1.051734   -2.634374
 H   -4.763148   -2.947772    1.582260
 H   -7.041882   -1.975953    1.517986
 H   -9.121109    0.970055   -0.618543
 H   -7.785696    0.851116   -1.773246
 H   -0.469120   -3.191287    1.090841
 H   -0.421023   -1.357390   -1.032240
 H   -0.458138   -1.283403    2.705314
 H   -0.081426   -0.163747    1.387522
 H    1.904265   -1.637835    0.971724
 H    1.460836    0.514372    2.783030
 H    3.937265   -0.234862    3.869322
 H    2.380291   -0.610368    4.631868
 H    3.976828   -2.398498    2.721367
 H    3.353640   -2.841268    4.325886
 H    1.884261   -3.512083    2.157207
 H    1.041849   -2.739447    3.520786
 H    1.547636    1.286004    0.593863
 H    2.395175    2.319149   -1.166209
 H    5.089676    2.300912    0.271358
 H    3.038273    4.552341    0.056206
 H    3.222029    3.498131    1.459953
 H    5.306319    2.586114   -2.211212
 H    5.720305    4.090063   -1.381014
 H    4.137166    3.914021   -2.162278
 H    5.612908    4.293807    1.716919
 H    5.366727    5.421181    0.373860
 H    4.434177    5.604872    1.860250
 H    4.934865    0.054537   -0.197337
 H    4.776098   -1.489859   -2.711400
 H    5.848570   -2.137345    0.068410
 H    7.285557   -0.452563   -1.097254
 H    7.345679   -1.485535   -2.537691
 H    8.119685   -2.014215   -1.037320
 H    6.877816   -4.155689   -1.033758
 H    5.111078   -4.209204   -1.078305
 H    6.023132   -3.759028   -2.532729
 H    1.519701   -2.431684   -1.702865
 H    2.480803   -1.572183   -2.845722
