103 
1b6k_ligand_dft.xyz
 C   -0.645179   -1.231434    4.056804
 C    0.830874   -0.807356    4.089501
 C    0.061914   -0.450318    1.907057
 O    0.097665   -0.148899    0.711143
 C   -1.174323   -0.604081    2.761834
 N    1.155487   -0.657603    2.671097
 C    2.509576   -0.431836    2.198466
 C    3.142144   -1.689927    1.556579
 C    2.417670   -2.201794    0.306463
 C    3.240919   -2.810513    2.596582
 C    2.564821    0.890602    1.407274
 O    1.972118    1.881857    1.840470
 N    3.322521    0.900430    0.296612
 C    3.746401    2.070767   -0.466320
 C    4.562544    1.574169   -1.683200
 C    5.585136    0.526265   -1.314553
 C    6.756707    0.871227   -0.637423
 C    5.340841   -0.829602   -1.559402
 C    7.654966   -0.099125   -0.213711
 C    6.225328   -1.813331   -1.136333
 C    7.389827   -1.449788   -0.458133
 C    2.589752    2.981260   -0.925238
 C    1.397149    2.172249   -1.491025
 O    2.134025    3.857560    0.078252
 O    8.214798   -2.446819   -0.066568
 N    0.176629    3.036720   -1.382993
 C   -0.970984    2.380802   -0.687773
 C   -2.027639    3.429870   -0.301557
 C   -3.267758    2.742096    0.216816
 C   -3.363719    2.332321    1.546122
 C   -4.440184    1.567166    1.980362
 C   -4.294542    2.398000   -0.663940
 C   -5.377155    1.639743   -0.241183
 C   -5.446461    1.205949    1.084864
 O   -6.496864    0.482868    1.565496
 C   -6.845080   -0.694674    0.843838
 C   -1.553017    1.402304   -1.711944
 O   -1.711105    1.802449   -2.866266
 N   -1.902729    0.219194   -1.216441
 C   -2.680051   -0.766524   -1.938277
 C   -3.417122   -1.554363   -0.853016
 O   -2.837146   -1.895392    0.173309
 C   -1.789429   -1.641678   -2.861078
 C   -2.607310   -2.672105   -3.667818
 C   -0.608140   -2.266293   -2.114989
 C   -2.873096   -4.017221   -2.985821
 N   -4.713759   -1.847894   -1.088879
 C   -5.492204   -2.637907   -0.142343
 C   -5.861076   -1.841699    1.111891
 H   -1.183585   -0.906683    4.948498
 H   -0.714122   -2.321614    3.997669
 H    1.478364   -1.553087    4.556870
 H    0.977414    0.152578    4.601491
 H   -1.590476    0.397772    2.923827
 H   -1.927075   -1.191305    2.231142
 H    3.101292   -0.202153    3.094734
 H    4.175438   -1.424991    1.286811
 H    2.985875   -3.028359   -0.131833
 H    1.421255   -2.576458    0.558565
 H    2.286127   -1.431953   -0.458262
 H    2.243674   -3.156469    2.890586
 H    3.775946   -2.486883    3.496268
 H    3.777149   -3.667412    2.178949
 H    3.830327    0.054690    0.076243
 H    4.391008    2.696060    0.164639
 H    5.044501    2.446046   -2.137609
 H    3.877233    1.160773   -2.433794
 H    6.976008    1.917264   -0.437136
 H    4.442652   -1.125857   -2.097589
 H    8.564672    0.193234    0.305090
 H    6.038486   -2.863174   -1.334755
 H    2.989120    3.628009   -1.714238
 H    1.533492    1.888119   -2.534941
 H    1.213675    1.271919   -0.899794
 H    2.043919    3.313104    0.898401
 H    9.005909   -2.080490    0.347669
 H   -0.178302    3.305169   -2.310104
 H    0.483309    3.862770   -0.837742
 H   -0.572030    1.876155    0.193128
 H   -2.273936    4.029116   -1.186096
 H   -1.602848    4.101511    0.453982
 H   -2.585010    2.609384    2.253778
 H   -4.522146    1.242301    3.012315
 H   -4.238143    2.714658   -1.702442
 H   -6.176633    1.408350   -0.936990
 H   -6.903772   -0.479136   -0.230502
 H   -7.853460   -0.942355    1.180128
 H   -1.517285   -0.065693   -0.313812
 H   -3.392417   -0.223751   -2.569661
 H   -1.388164   -0.917838   -3.581709
 H   -3.559640   -2.214444   -3.971355
 H   -2.069404   -2.866545   -4.602904
 H    0.012831   -1.496353   -1.647155
 H    0.017278   -2.834345   -2.811995
 H   -0.938862   -2.941679   -1.321179
 H   -1.942145   -4.569509   -2.827417
 H   -3.518508   -4.636459   -3.616254
 H   -3.362498   -3.909734   -2.013571
 H   -5.133140   -1.551049   -1.955635
 H   -4.901027   -3.513983    0.140845
 H   -6.384445   -2.994396   -0.665340
 H   -4.937420   -1.431135    1.529836
 H   -6.268026   -2.527938    1.861630
