83 
1b6l_ligand_ani.xyz
 C    6.324102    1.583347   -0.396839
 C    4.073682    1.991714    0.707112
 O    3.989394    1.001072    1.420937
 C    5.412620    2.602392    0.306509
 N    2.963322    2.631100    0.224996
 C    1.635400    2.081573    0.439222
 C    1.306272    1.020782   -0.625313
 O    0.839524    1.343402   -1.721588
 C    0.559835    3.164168    0.391804
 C   -0.814616    2.534048    0.586073
 O   -0.912767    1.360496    0.949121
 N   -1.893045    3.307131    0.354051
 N    1.515977   -0.261423   -0.267335
 C    1.112274   -1.392974   -1.101030
 C    1.868668   -2.664715   -0.691340
 C    3.344613   -2.413255   -0.514747
 C    3.882318   -2.247974    0.763610
 C    5.152937   -1.721394    0.945590
 C    4.173547   -2.191416   -1.615665
 C    5.458524   -1.688764   -1.448869
 C    5.912477   -1.378379   -0.170600
 O    7.110334   -0.721573   -0.028312
 C    6.954483    0.567415    0.567358
 C   -0.429217   -1.612879   -1.107598
 O   -1.091220   -0.596115   -1.825709
 C   -1.000026   -1.797661    0.319996
 N   -2.218264   -0.996164    0.607977
 C   -3.402740   -1.293836   -0.272908
 C   -4.063976   -2.622089    0.109578
 C   -4.477685   -2.645064    1.579478
 C   -3.258198   -2.371462    2.455475
 C   -2.590055   -1.057187    2.061321
 C   -4.328395   -0.061047   -0.246612
 O   -3.880032    1.049251    0.021471
 C   -6.662097    0.791735   -0.597145
 C   -6.777976    1.467227    0.774463
 C   -7.983213    0.105920   -0.946291
 C   -6.322378    1.843517   -1.660378
 N   -5.630051   -0.263836   -0.565421
 H    5.741834    1.046394   -1.156053
 H    7.114645    2.114360   -0.938864
 H    5.247445    3.474421   -0.335717
 H    5.896130    2.967946    1.221539
 H    3.077005    3.318319   -0.506693
 H    1.636612    1.611775    1.423882
 H    0.588261    3.672949   -0.578276
 H    0.741924    3.904422    1.177168
 H   -1.807387    4.232738   -0.035214
 H   -2.791314    2.834377    0.317277
 H    2.062019   -0.426060    0.571636
 H    1.377019   -1.122597   -2.130796
 H    1.701254   -3.424449   -1.463865
 H    1.449650   -3.059199    0.244031
 H    3.270980   -2.469386    1.636120
 H    5.531568   -1.530102    1.945096
 H    3.801833   -2.376697   -2.621978
 H    6.098233   -1.476165   -2.302003
 H    6.334365    0.482216    1.466251
 H    7.959755    0.877133    0.869935
 H   -0.607485   -2.547501   -1.657717
 H   -0.509830    0.185233   -1.903615
 H   -1.188174   -2.865169    0.490435
 H   -0.247684   -1.505183    1.060695
 H   -1.956468   -0.009616    0.432538
 H   -3.004791   -1.352292   -1.289222
 H   -3.337936   -3.423218   -0.074408
 H   -4.909036   -2.841200   -0.553614
 H   -4.928603   -3.610470    1.833235
 H   -5.239116   -1.874835    1.761809
 H   -2.537111   -3.193498    2.356463
 H   -3.535902   -2.324541    3.514838
 H   -1.683493   -0.880332    2.653639
 H   -3.267341   -0.220376    2.252830
 H   -5.848328    1.981180    1.027953
 H   -6.992548    0.724882    1.551478
 H   -7.592773    2.200589    0.760254
 H   -8.240798   -0.650798   -0.195672
 H   -8.800409    0.834697   -0.980525
 H   -7.927695   -0.378747   -1.928331
 H   -5.382813    2.344741   -1.415570
 H   -6.224517    1.378266   -2.647314
 H   -7.118110    2.596112   -1.707937
 H   -5.925411   -1.192672   -0.826477
