92 
1b6m_ligand_ani.xyz
 O    3.998600    2.809343    0.694435
 O    2.666916    2.199124   -1.058972
 C    3.316532    4.977762   -0.218761
 C    1.827085    3.711128    1.389321
 C    4.022706    4.638865    2.160564
 C    3.262906    4.040321    0.982185
 C    3.587464    1.983075   -0.276123
 N    4.318424    0.838056   -0.263330
 C    3.989539   -0.275339   -1.132713
 C    5.279533   -0.963734   -1.628142
 C    6.135169   -1.569091   -0.538201
 C    5.972512   -2.902114   -0.150514
 C    7.108597   -0.803450    0.109998
 C    6.753541   -3.453134    0.861877
 C    7.892595   -1.351583    1.122182
 C    7.714035   -2.677736    1.504218
 C    2.972135   -1.256148   -0.495306
 O    2.368557   -2.055615   -1.517276
 C    1.784833   -0.580334    0.191047
 N    0.951559    0.065850   -0.841235
 C   -0.411944    0.439890   -0.437878
 C   -0.932576    1.562484   -1.358671
 C   -2.386874    1.886937   -1.134945
 C   -2.796971    2.660569   -0.047647
 C   -4.146137    2.874912    0.208247
 C   -3.365040    1.345323   -1.970693
 C   -4.716959    1.536943   -1.716282
 C   -5.109621    2.294289   -0.613452
 O   -6.436590    2.522344   -0.331247
 C   -7.219222    1.345247   -0.161682
 C   -1.286198   -0.813250   -0.589512
 O   -1.114505   -1.537201   -1.564729
 N   -2.204114   -1.029570    0.379064
 C   -3.267656   -2.021030    0.316180
 C   -4.466345   -1.364087    1.015956
 O   -4.326741   -0.874172    2.129280
 C   -2.912174   -3.329748    1.070677
 C   -1.707456   -4.066039    0.464140
 C   -4.131957   -4.248996    1.180570
 C   -1.932880   -4.631829   -0.937342
 N   -5.661872   -1.370885    0.371396
 C   -6.865609   -0.898240    1.051671
 C   -6.927133    0.628854    1.164905
 H    4.355208    5.138993   -0.525082
 H    2.879651    5.943580    0.056348
 H    2.759654    4.564689   -1.062209
 H    1.323292    4.626107    1.717591
 H    1.271715    3.290864    0.547163
 H    1.819301    2.992658    2.215338
 H    4.015758    3.950229    3.011501
 H    5.062316    4.841895    1.884643
 H    3.558434    5.579227    2.474514
 H    4.963854    0.711376    0.504042
 H    3.505589    0.161549   -2.010755
 H    5.856994   -0.199854   -2.162444
 H    5.015188   -1.730599   -2.369320
 H    5.223461   -3.520763   -0.646157
 H    7.259563    0.233850   -0.187918
 H    6.608842   -4.490755    1.149651
 H    8.642392   -0.738076    1.614576
 H    8.323337   -3.106167    2.295323
 H    3.487498   -1.889104    0.241571
 H    2.996794   -2.719606   -1.823119
 H    2.108268    0.146313    0.940678
 H    1.200503   -1.345945    0.709064
 H    1.449923    0.901189   -1.204440
 H    0.849530   -0.651796   -1.594697
 H   -0.409924    0.785812    0.602505
 H   -0.781940    1.233997   -2.393816
 H   -0.286208    2.435929   -1.190933
 H   -2.050404    3.097418    0.615022
 H   -4.476301    3.472665    1.054839
 H   -3.063821    0.731347   -2.817462
 H   -5.467045    1.117244   -2.382513
 H   -8.259368    1.681127   -0.208478
 H   -7.061365    0.671643   -1.014242
 H   -2.313762   -0.344634    1.116242
 H   -3.486800   -2.237762   -0.737290
 H   -2.629125   -3.018621    2.085230
 H   -0.836061   -3.399556    0.451807
 H   -1.450022   -4.890301    1.142624
 H   -3.852691   -5.203723    1.640271
 H   -4.916367   -3.799687    1.797081
 H   -4.565260   -4.466778    0.196064
 H   -1.040580   -5.171382   -1.273000
 H   -2.770476   -5.337652   -0.963956
 H   -2.121509   -3.833756   -1.660277
 H   -5.731157   -1.826820   -0.524490
 H   -6.877746   -1.329099    2.058000
 H   -7.732088   -1.287324    0.507280
 H   -5.966400    0.969707    1.567177
 H   -7.687097    0.901319    1.908018
