67 
1b9j_ligand_dft.xyz
 N    1.787266   -1.820960    1.507052
 C    2.945859   -0.882065    1.255090
 C    2.233979    0.291413    0.548899
 O    1.964249    0.181971   -0.632271
 C    4.011538   -1.552810    0.395747
 C    5.200012   -0.617013    0.135171
 C    6.317353   -1.319297   -0.652406
 C    7.466598   -0.356061   -0.933401
 N    8.589236   -1.042738   -1.684938
 N    1.776489    1.279370    1.360875
 C    0.450877    1.849855    1.072087
 C   -0.508669    0.637109    1.161936
 O   -0.345569   -0.193451    2.065203
 C    0.433020    2.736492   -0.185701
 C   -0.434371    4.002710   -0.072796
 C   -1.926186    3.720249    0.128804
 C   -0.219599    4.881776   -1.307077
 N   -1.485050    0.501525    0.255768
 C   -2.386897   -0.634717    0.259630
 C   -1.665548   -1.867250   -0.311477
 O   -0.468476   -2.046563   -0.273323
 C   -3.710803   -0.265397   -0.439944
 C   -4.919591   -1.086989    0.026782
 C   -6.208310   -0.651174   -0.687761
 C   -7.400682   -1.461188   -0.191185
 N   -8.679576   -1.042054   -0.889011
 O   -2.514653   -2.755267   -0.822321
 H    1.014132   -1.317512    2.008211
 H    1.334060   -2.100502    0.620534
 H    2.060340   -2.657825    2.028418
 H    3.339261   -0.607377    2.238333
 H    3.555627   -1.839709   -0.558257
 H    4.358052   -2.464825    0.897724
 H    4.850087    0.256541   -0.427193
 H    5.603893   -0.251740    1.088035
 H    6.684895   -2.179743   -0.078724
 H    5.912408   -1.702372   -1.597785
 H    7.911867    0.033333   -0.015070
 H    7.154541    0.485154   -1.556314
 H    8.271028   -1.413697   -2.587396
 H    8.977478   -1.829556   -1.152372
 H    9.363690   -0.396601   -1.878567
 H    1.990734    1.197612    2.345437
 H    0.207742    2.474374    1.939441
 H    0.168638    2.153646   -1.077282
 H    1.466723    3.050601   -0.356251
 H   -0.080527    4.560025    0.805866
 H   -2.351786    3.213123   -0.749947
 H   -2.474653    4.659077    0.246028
 H   -2.130206    3.113420    1.019223
 H   -0.561946    4.372688   -2.216278
 H    0.837160    5.133576   -1.440381
 H   -0.776501    5.818991   -1.219697
 H   -1.559205    1.174619   -0.493455
 H   -2.580829   -0.881520    1.312002
 H   -3.901383    0.791563   -0.219259
 H   -3.592985   -0.352752   -1.526392
 H   -5.043857   -0.958870    1.109509
 H   -4.740883   -2.150398   -0.157369
 H   -6.385769    0.417537   -0.510141
 H   -6.089652   -0.789477   -1.770163
 H   -7.578707   -1.318194    0.876913
 H   -7.283062   -2.529021   -0.387946
 H   -8.618398   -1.176123   -1.904524
 H   -9.486797   -1.583851   -0.558682
 H   -8.891761   -0.051346   -0.725786
 H   -2.007918   -3.526243   -1.131360
