41 
1b9t_ligand_ani.xyz
 C   33.818038   -9.830844   64.508977
 C   32.518853   -9.486070   64.132103
 C   31.438744  -10.289318   64.561808
 C   31.695036  -11.414495   65.348525
 C   33.001382  -11.747048   65.714687
 C   34.063326  -10.948693   65.292735
 C   33.303960  -12.931247   66.548117
 O   32.201061  -13.614097   66.926989
 N   30.096300   -9.961941   64.241887
 C   29.282586  -10.632135   63.339768
 N   29.841934  -11.770436   62.770247
 N   32.319196   -8.345193   63.283603
 C   32.576162   -8.389927   61.837582
 C   32.269203   -6.939247   61.411376
 C   31.293061   -6.404440   62.460084
 C   31.458376   -7.338413   63.646379
 C   31.634031   -9.403228   61.176102
 O   31.910262   -9.418294   59.776698
 C   34.044274   -8.735827   61.556839
 O   34.433708   -8.408722   60.245840
 O   34.414903  -13.280486   66.878317
 N   28.118591  -10.252353   62.968867
 O   30.905631   -7.249529   64.727010
 H   34.641640   -9.199794   64.191183
 H   30.865368  -12.017738   65.702256
 H   35.071445  -11.216875   65.585628
 H   32.529313  -14.356123   67.460245
 H   29.796661   -9.041374   64.531846
 H   29.139863  -12.308704   62.280660
 H   30.448675  -12.324540   63.360024
 H   33.203702   -6.370455   61.433037
 H   31.877664   -6.894589   60.391686
 H   31.497814   -5.374872   62.761635
 H   30.250029   -6.447192   62.133768
 H   31.802793  -10.392949   61.621530
 H   30.586620   -9.119818   61.355502
 H   31.468199  -10.179962   59.385914
 H   34.657000   -8.132636   62.233749
 H   34.235180   -9.799488   61.781980
 H   33.760869   -8.795932   59.664980
 H   27.856548   -9.392978   63.450838
