64 
1ba8_ligand_ani.xyz
 N    0.005757    2.024565   -1.111248
 C   -0.143869    2.896620    0.053243
 C   -1.413279    3.741786   -0.010518
 C   -2.675888    2.870248    0.017412
 C   -0.136136    2.097371    1.364033
 C   -2.489200    1.567845    0.821821
 O    0.885243    1.933994    2.018048
 N   -1.359638    1.615593    1.750354
 C   -1.455366    0.828956    2.966026
 C   -1.626290   -0.680996    2.769961
 O   -2.321510   -1.339654    3.528860
 N   -0.931349   -1.217556    1.728591
 C   -1.000375   -2.640979    1.419148
 C    0.405938   -3.250531    1.336111
 O    1.152359   -2.933117    0.187881
 C   -1.899685   -2.921731    0.204239
 C   -1.381666   -2.435165   -1.152384
 C   -2.418035   -2.504200   -2.279783
 N   -3.591678   -1.662519   -2.095250
 C   -3.471653   -0.282460   -2.013389
 N   -4.576295    0.311033   -1.426400
 N   -2.465627    0.436077   -2.370124
 C    2.671283    1.695590   -0.703481
 C    3.773260    0.701080   -0.441303
 C    4.432613    0.074424   -1.499925
 C    5.440107   -0.852263   -1.248113
 C    5.791135   -1.161562    0.063383
 C    5.132321   -0.546096    1.123609
 C    4.125084    0.382146    0.871117
 S    1.173742    0.834684   -1.163772
 O    1.257927    0.410105   -2.548733
 O    0.934403   -0.178632   -0.133130
 H   -0.864085    1.637389   -1.489793
 H    0.723945    3.559228    0.087943
 H   -1.400723    4.412118    0.856351
 H   -1.395027    4.375240   -0.903183
 H   -2.938747    2.586401   -1.006499
 H   -3.516336    3.449808    0.414794
 H   -2.363254    0.724852    0.129731
 H   -3.389894    1.349506    1.406045
 H   -0.524750    1.006290    3.514784
 H   -2.295460    1.167452    3.580366
 H   -0.358705   -0.619856    1.141777
 H   -1.489283   -3.089500    2.290424
 H    0.307850   -4.344593    1.334275
 H    0.949168   -2.973788    2.254316
 H    1.258637   -1.967892    0.124607
 H   -2.864312   -2.446867    0.427509
 H   -2.090076   -4.004158    0.156106
 H   -1.040428   -1.395335   -1.061513
 H   -0.504516   -3.022216   -1.447961
 H   -1.940572   -2.235272   -3.230026
 H   -2.780506   -3.530792   -2.406069
 H   -4.243500   -2.032024   -1.414689
 H   -4.605584    1.312213   -1.557420
 H   -5.463258   -0.122342   -1.642312
 H   -1.762366   -0.110853   -2.860723
 H    2.901478    2.387942   -1.521479
 H    2.443778    2.243632    0.216952
 H    4.138553    0.302901   -2.522448
 H    5.951738   -1.332448   -2.078112
 H    6.578845   -1.885993    0.259474
 H    5.403271   -0.788674    2.148178
 H    3.596905    0.860261    1.696854
