64 
1ba8_ligand_dft.xyz
 N   -0.060298    2.068509   -0.885245
 C   -0.312680    2.855028    0.331668
 C   -1.673862    3.564301    0.179310
 C   -2.848692    2.770656    0.786657
 C   -0.210101    2.030441    1.628690
 C   -2.474664    1.318062    1.056586
 O    0.802185    2.087069    2.316997
 N   -1.291636    1.263026    1.913733
 C   -1.302202    0.393975    3.073213
 C   -1.562605   -1.081771    2.752078
 O   -2.128551   -1.796327    3.566083
 N   -1.117833   -1.491666    1.540186
 C   -1.201717   -2.877500    1.105480
 C    0.181784   -3.544944    1.113455
 O    1.090422   -3.086838    0.140781
 C   -1.968034   -2.988741   -0.223524
 C   -1.307330   -2.314729   -1.429710
 C   -2.237378   -2.179134   -2.637456
 N   -3.348233   -1.249809   -2.453095
 C   -3.136790    0.100803   -2.305247
 N   -4.251656    0.787761   -1.826814
 N   -2.058247    0.761588   -2.547800
 C    2.603679    1.786615   -0.561558
 C    3.744209    0.821805   -0.400871
 C    4.527377    0.456471   -1.495483
 C    5.553619   -0.470133   -1.340681
 C    5.794732   -1.040286   -0.094119
 C    5.009479   -0.682468    0.999406
 C    3.985650    0.245132    0.847703
 S    1.094315    0.893925   -0.974013
 O    1.098843    0.433622   -2.355420
 O    0.925283   -0.125313    0.075486
 H   -0.876362    1.803900   -1.465868
 H    0.476761    3.606638    0.415367
 H   -1.602067    4.543367    0.660247
 H   -1.832762    3.754279   -0.887046
 H   -3.721099    2.797552    0.128444
 H   -3.148212    3.224898    1.737133
 H   -2.297157    0.776049    0.122356
 H   -3.288683    0.804890    1.573803
 H   -0.330616    0.490648    3.564178
 H   -2.077141    0.702582    3.782286
 H   -0.556984   -0.845970    0.993921
 H   -1.790734   -3.381369    1.878809
 H    0.051411   -4.615175    0.918496
 H    0.595186   -3.441189    2.128922
 H    1.233406   -2.133532    0.246596
 H   -2.958412   -2.545598   -0.049150
 H   -2.130159   -4.052886   -0.442719
 H   -0.955212   -1.317422   -1.151786
 H   -0.413585   -2.869840   -1.722841
 H   -1.669440   -1.856003   -3.516431
 H   -2.679006   -3.146968   -2.897407
 H   -4.115484   -1.610433   -1.903416
 H   -4.159191    1.779447   -2.004264
 H   -5.138155    0.435503   -2.165549
 H   -1.290974    0.162104   -2.843826
 H    2.753055    2.510308   -1.366438
 H    2.386890    2.303967    0.378400
 H    4.327325    0.892466   -2.470381
 H    6.160621   -0.751110   -2.195922
 H    6.591998   -1.767888    0.024712
 H    5.191249   -1.131087    1.971099
 H    3.357499    0.520004    1.690722
