20 
1bap_ligand_ani.xyz
 C    1.392741   -0.393990   -0.477035
 C    0.441561    0.796309   -0.525793
 C   -0.612304    0.666757    0.569255
 C   -1.330338   -0.669222    0.444110
 C   -0.306762   -1.792467    0.424559
 O    2.122185   -0.279833    0.728399
 O    1.118507    2.032053   -0.411880
 O   -1.575059    1.694092    0.420777
 O   -2.065803   -0.708696   -0.757489
 O    0.693723   -1.602902   -0.572202
 H    2.072936   -0.376810   -1.335848
 H   -0.064886    0.800939   -1.493878
 H   -0.125497    0.731366    1.556779
 H   -1.992275   -0.804824    1.316698
 H    0.159370   -1.880896    1.416137
 H   -0.795433   -2.736702    0.177050
 H    2.733837   -1.027272    0.774606
 H    1.749448    1.932905    0.316485
 H   -1.072071    2.494414    0.204820
 H   -2.523232    0.144849   -0.804267
