71 
1bb0_ligand_ani.xyz
 C   -2.475431    0.383120   -1.021010
 C   -3.884271    0.058464   -1.441976
 C   -4.362930   -1.249157   -1.358442
 C   -5.667616   -1.549275   -1.737420
 C   -6.508491   -0.540570   -2.197241
 C   -6.042730    0.768832   -2.270814
 C   -4.737128    1.066636   -1.893448
 S   -2.431093    0.826346    0.716557
 O   -3.085921    2.110573    0.880983
 O   -2.852030   -0.337842    1.488842
 N   -0.823571    1.019374    1.051353
 C   -0.089611    2.217877    0.688100
 C    0.716100    2.713218    1.888696
 C    1.592240    3.881874    1.466349
 C    0.792401    1.953631   -0.543807
 C    2.591920    3.409900    0.424420
 O    0.456937    1.127310   -1.396533
 N    1.939326    2.685068   -0.669210
 C    2.833290    2.338875   -1.771441
 C    3.692970    1.130831   -1.385854
 O    4.816807    1.250365   -0.919922
 C   -0.010252   -3.946134    1.119081
 C   -0.601036   -2.767048    1.869619
 N    3.083123   -0.076825   -1.559582
 C    3.685849   -1.280151   -0.992318
 C    4.918310   -1.665504   -1.821437
 O    4.583784   -1.936481   -3.164357
 C    2.686549   -2.435374   -0.955146
 C    0.376674   -0.951402    3.208509
 N    0.395786   -1.695288    2.031160
 C    0.517583   -3.504350   -0.245260
 C    1.386244   -2.226554   -0.165280
 C    1.650940   -1.820975    1.288230
 N   -0.877759   -0.879034    3.805193
 N    1.361402   -0.354716    3.778020
 H   -1.806014   -0.477737   -1.130334
 H   -2.048058    1.228804   -1.569633
 H   -3.712252   -2.034854   -0.977855
 H   -6.027923   -2.573062   -1.674558
 H   -7.528559   -0.774045   -2.494491
 H   -6.696816    1.562040   -2.623937
 H   -4.383083    2.095487   -1.934201
 H   -0.305816    0.147480    0.954336
 H   -0.814990    2.988356    0.408065
 H    0.014320    3.012876    2.674681
 H    1.326123    1.893450    2.295453
 H    2.131242    4.300538    2.323459
 H    0.969022    4.683855    1.050750
 H    3.120597    4.261164   -0.021109
 H    3.358924    2.767157    0.882368
 H    3.492152    3.187815   -1.969734
 H    2.232695    2.127285   -2.659869
 H   -0.775249   -4.722723    1.006824
 H    0.796716   -4.386045    1.718945
 H   -1.473206   -2.364416    1.335784
 H   -0.948458   -3.082429    2.859586
 H    2.082143   -0.059251   -1.731986
 H    4.042063   -1.041473    0.018549
 H    5.662174   -0.863250   -1.740613
 H    5.361749   -2.584060   -1.419100
 H    4.125859   -1.145628   -3.482318
 H    3.201308   -3.307910   -0.525146
 H    2.442931   -2.707484   -1.990768
 H   -0.326203   -3.314734   -0.921487
 H    1.090649   -4.326289   -0.691071
 H    0.815471   -1.402783   -0.617315
 H    2.337749   -2.541476    1.766758
 H    2.144942   -0.841996    1.294468
 H   -0.861816   -0.220471    4.573020
 H   -1.659787   -0.727518    3.171393
 H    2.242677   -0.500266    3.292890
