65 
1bgo_ligand_dft.xyz
 C   -1.968642    2.646086    2.682251
 C   -1.115423    1.925035    1.852471
 C   -0.926530    2.318100    0.522423
 C   -0.057657    1.520811   -0.379329
 C    1.153397    0.990259    0.071898
 C    1.943056    0.178474   -0.748990
 C    1.513631   -0.089947   -2.046719
 C    0.318918    0.448494   -2.517679
 C   -0.461034    1.246352   -1.692964
 C    3.233072   -0.420851   -0.208275
 C    2.893066   -1.193368    1.069373
 C    4.311393    0.636659    0.058759
 C    5.681980    2.575750   -0.740463
 C    5.276303    0.642554   -2.298781
 N    2.119480   -2.291823    0.883598
 C    1.494130   -2.965705    2.007263
 C    0.263158   -2.233678    2.575029
 C   -0.983832   -2.335812    1.704480
 C   -1.608109    3.442711    0.046392
 C   -2.463486    4.159374    0.876325
 C   -2.647458    3.762356    2.198605
 O    3.254261   -0.820979    2.184954
 C    4.693496    1.485137   -1.160889
 O    0.521718   -0.859651    2.786971
 N   -0.678486   -1.997108    0.309042
 S   -1.765639   -2.394794   -0.876963
 O   -2.493934   -3.566097   -0.418063
 O   -1.058446   -2.418917   -2.146964
 C   -2.885642   -0.981115   -0.963044
 N   -3.087405   -0.347613    0.182293
 C   -3.872915    0.730112    0.151136
 C   -4.485224    1.185594   -1.012966
 C   -4.271441    0.490675   -2.199005
 C   -3.440525   -0.624658   -2.185279
 H   -2.109902    2.326326    3.710581
 H   -0.620127    1.032896    2.228434
 H    1.477101    1.195449    1.088304
 H    2.103504   -0.738228   -2.688806
 H   -0.021504    0.209056   -3.519525
 H   -1.415299    1.624209   -2.048743
 H    3.603105   -1.146400   -0.942700
 H    3.959914    1.291779    0.863480
 H    5.205210    0.133779    0.449778
 H    5.944699    3.218842   -1.587658
 H    5.262211    3.210053    0.047942
 H    6.609408    2.133233   -0.355808
 H    5.594873    1.279670   -3.130959
 H    6.152473    0.078021   -1.954853
 H    4.549124   -0.073439   -2.696593
 H    1.662444   -2.403447   -0.011950
 H    1.209310   -3.973876    1.693522
 H    2.249701   -3.058253    2.792204
 H    0.015210   -2.721674    3.531989
 H   -1.357532   -3.361345    1.714100
 H   -1.756556   -1.675791    2.113470
 H   -1.454947    3.767074   -0.979366
 H   -2.977731    5.035895    0.492700
 H   -3.311142    4.323984    2.849534
 H    3.784648    1.976945   -1.533385
 H    1.471439   -0.746327    2.963968
 H   -0.332277   -1.045163    0.189793
 H   -3.994835    1.259010    1.092170
 H   -5.106906    2.073723   -0.984909
 H   -4.731824    0.820476   -3.125168
 H   -3.203549   -1.185201   -3.081995
