98 
1bil_ligand_xtb.xyz
 C   -4.994593   -3.682517    3.117163
 C   -4.692655   -1.255036    2.881880
 C   -3.770367   -2.830062    1.221849
 O   -3.579301   -3.954026    0.803198
 N   -4.507927   -2.574213    2.325582
 N   -2.265444   -1.985623   -0.515883
 C   -1.037123   -2.324319   -0.067857
 O   -0.772436   -2.227396    1.123930
 C   -3.207614   -1.594123    0.512750
 C   -2.754464   -1.993969   -1.890925
 C   -3.944452   -2.937446   -2.055365
 C   -3.013451   -0.557496   -2.313118
 C   -1.922460    0.238554   -2.651348
 C   -4.281973    0.007499   -2.345165
 C   -2.097460    1.557149   -3.029383
 C   -4.456247    1.333539   -2.707156
 C   -3.366741    2.111272   -3.054886
 C    1.322625   -0.743318   -0.672915
 O    1.474055   -0.130511   -1.713991
 C    1.403319   -2.266372   -0.595018
 C    0.030231   -2.790996   -1.045072
 C    2.521308   -2.764678   -1.508018
 C    3.870542   -2.584157   -0.887068
 C    4.948396   -3.356600   -1.165309
 S    6.340507   -2.823675   -0.281992
 C    5.322960   -1.566408    0.421013
 N    4.095736   -1.582409    0.017474
 N    5.847221   -0.648315    1.259171
 C    1.488044    1.948901    1.714023
 C    0.676492    1.252154    0.599669
 C   -0.836568    1.326631    0.846686
 C   -1.442625    2.722738    1.007192
 C   -1.151848    3.630460   -0.187375
 C   -1.822409    4.991322   -0.019811
 C   -3.329199    4.832006    0.147507
 C   -3.628377    3.940687    1.347462
 C   -2.958942    2.581232    1.175554
 N    1.048523   -0.147729    0.504283
 O    1.099572    1.495540    2.989019
 C    3.018941    1.752713    1.571507
 C    3.586385    2.040165    0.181553
 C    3.357668    3.462072   -0.341470
 C    4.102898    4.501162    0.493027
 C    3.807107    3.534124   -1.799892
 O    3.356682    0.441441    1.993366
 H   -6.079677   -3.624406    3.224462
 H   -4.730251   -4.603421    2.601509
 H   -4.533211   -3.678819    4.106915
 H   -4.987851   -0.540076    2.113767
 H   -5.485054   -1.301875    3.626689
 H   -3.782203   -0.892332    3.368746
 H   -4.007783   -1.004766    0.063714
 H   -2.676194   -0.980858    1.245244
 H   -1.957500   -2.381132   -2.528219
 H   -4.244329   -2.964397   -3.100303
 H   -3.653977   -3.935218   -1.737750
 H   -4.796697   -2.640084   -1.452051
 H   -0.922760   -0.169356   -2.624227
 H   -5.152009   -0.584224   -2.103176
 H   -1.237382    2.146838   -3.309404
 H   -5.450612    1.755925   -2.722666
 H   -3.505369    3.141798   -3.347290
 H    1.585959   -2.580061    0.434761
 H   -0.145072   -2.452660   -2.063996
 H    0.028485   -3.884141   -1.033434
 H    2.480170   -2.186664   -2.437661
 H    2.382487   -3.819250   -1.753700
 H    5.021781   -4.192196   -1.829775
 H    6.716736   -0.873358    1.710660
 H    5.166840   -0.103503    1.782150
 H    1.261686    3.018958    1.686100
 H    0.920227    1.703180   -0.364945
 H   -1.325829    0.825390    0.006460
 H   -1.046303    0.758203    1.756638
 H   -1.036215    3.180636    1.914078
 H   -0.076020    3.773482   -0.300088
 H   -1.525306    3.150309   -1.093206
 H   -1.607514    5.616992   -0.888842
 H   -1.412675    5.491439    0.861102
 H   -3.747847    4.376544   -0.752954
 H   -3.797197    5.809742    0.280456
 H   -4.707528    3.811459    1.458386
 H   -3.253253    4.417220    2.255878
 H   -3.174020    1.952671    2.043194
 H   -3.369507    2.087122    0.290099
 H    0.730290   -0.741259    1.261224
 H    1.649211    0.720131    3.180513
 H    3.491918    2.404980    2.316454
 H    3.160490    1.326217   -0.525542
 H    4.662411    1.850036    0.219240
 H    2.287656    3.690187   -0.303203
 H    5.166790    4.275445    0.516460
 H    3.731066    4.525665    1.513979
 H    3.973368    5.491774    0.062822
 H    4.870358    3.318821   -1.879061
 H    3.264603    2.807746   -2.399868
 H    3.625544    4.525586   -2.208720
 H    3.161536   -0.175319    1.261581
