92 
1bim_ligand_ani.xyz
 N   -3.561793   -1.966438   -1.484338
 C   -2.635944   -2.969886   -1.670685
 O   -2.943682   -4.141947   -1.503956
 C   -4.932821   -2.405619   -1.253678
 C   -3.352295   -0.577306   -1.920478
 C   -3.718289   -0.386987   -3.393211
 C   -4.050868    0.408301   -0.980849
 C   -3.687679    0.421462    0.369810
 C   -5.049346    1.290392   -1.398914
 C   -4.294822    1.284506    1.276588
 C   -5.663087    2.156725   -0.496099
 C   -5.288935    2.158473    0.842513
 C    0.839257   -1.394025   -1.146762
 O    1.173406   -1.273674   -2.329584
 C   -0.471423   -2.092895   -0.757105
 C   -1.206658   -2.582594   -2.012451
 C   -0.310530   -3.204241    0.314282
 C   -0.699704   -2.704282    1.677827
 C   -1.614590   -3.239155    2.522553
 S   -1.764973   -2.254322    3.951240
 C   -0.562224   -1.170939    3.285054
 N   -0.103650   -1.537763    2.126256
 N   -0.129406   -0.070905    3.956205
 C    2.394142    1.329883   -0.972421
 C    2.701651    0.006529   -0.235348
 C    3.900094   -0.741759   -0.836988
 C    5.174979    0.097764   -1.023551
 C    5.747144    0.667145    0.287017
 C    6.371968   -0.409507    1.183691
 C    7.454894   -1.190268    0.434990
 C    6.904909   -1.789212   -0.861784
 C    6.268593   -0.710027   -1.746538
 N    1.543056   -0.881511   -0.119959
 O    2.488102    1.197526   -2.375069
 N    0.219884    3.458899    1.000548
 C    0.858897    2.264592    0.903171
 O    1.196717    1.569497    1.855581
 C    1.049518    1.948864   -0.578342
 C    0.754068    3.293753   -1.248052
 C   -0.227578    3.992349   -0.292137
 C   -0.299214    3.959465    2.254523
 C   -0.080239    5.511914   -0.356764
 C   -1.682715    3.598019   -0.591172
 H   -5.459796   -2.638469   -2.190903
 H   -4.897891   -3.311755   -0.648798
 H   -5.483304   -1.628725   -0.718370
 H   -2.278226   -0.386942   -1.809691
 H   -3.113346   -1.036913   -4.033761
 H   -4.773597   -0.624657   -3.571076
 H   -3.537135    0.649477   -3.696130
 H   -2.917899   -0.260791    0.730160
 H   -5.360247    1.313220   -2.439778
 H   -3.995492    1.269566    2.322675
 H   -6.438869    2.832452   -0.849111
 H   -5.768963    2.834151    1.545614
 H   -1.086648   -1.309234   -0.289299
 H   -1.166421   -1.821879   -2.795543
 H   -0.716791   -3.474262   -2.407761
 H    0.718677   -3.578997    0.335383
 H   -0.950419   -4.052721    0.051639
 H   -2.210520   -4.131634    2.392770
 H    0.381660    0.594715    3.385433
 H   -0.705163    0.305024    4.691310
 H    3.176522    2.046860   -0.685003
 H    2.921560    0.272930    0.800806
 H    3.599152   -1.147948   -1.808970
 H    4.106212   -1.606444   -0.192454
 H    4.897865    0.936020   -1.679677
 H    6.527186    1.398718    0.028947
 H    4.976571    1.225701    0.834643
 H    5.592654   -1.104877    1.527044
 H    6.789720    0.051404    2.086978
 H    8.282811   -0.508458    0.191308
 H    7.875323   -1.976561    1.074071
 H    6.157541   -2.558623   -0.622060
 H    7.702657   -2.301103   -1.413819
 H    5.852940   -1.157277   -2.658954
 H    7.056417   -0.014222   -2.070212
 H    1.123706   -0.940458    0.807970
 H    2.024538    0.371279   -2.616652
 H    0.250790    1.251171   -0.855324
 H    0.347007    3.183074   -2.256204
 H    1.671580    3.889478   -1.325207
 H   -0.053667    5.018557    2.379697
 H   -1.389033    3.835365    2.328954
 H    0.170192    3.392823    3.061166
 H   -0.800926    6.013243    0.298103
 H    0.930169    5.815541   -0.063349
 H   -0.264540    5.862162   -1.379093
 H   -1.951975    3.919054   -1.603431
 H   -1.846985    2.515847   -0.522915
 H   -2.365943    4.088457    0.110140
