92 
1bim_ligand_xtb.xyz
 N   -4.226369   -1.911497   -1.442035
 C   -3.378508   -2.932476   -1.159193
 O   -3.778929   -3.950740   -0.618621
 C   -5.623882   -2.083291   -1.091136
 C   -3.856394   -0.629596   -2.011653
 C   -4.812713   -0.262058   -3.155565
 C   -3.788977    0.465334   -0.956430
 C   -3.882656    0.180453    0.401546
 C   -3.586819    1.785966   -1.342519
 C   -3.790216    1.189052    1.345528
 C   -3.505571    2.795431   -0.400494
 C   -3.605322    2.500983    0.948675
 C    0.140330   -1.408832   -0.999998
 O    0.329330   -1.357980   -2.212123
 C   -1.195309   -1.918580   -0.437465
 C   -1.909529   -2.771210   -1.496511
 C   -1.087202   -2.703630    0.886786
 C   -1.243032   -1.813782    2.076767
 C   -2.239713   -1.847133    2.990805
 S   -2.039278   -0.582840    4.168619
 C   -0.583913   -0.085463    3.299226
 N   -0.325872   -0.818709    2.270351
 N    0.192494    0.926097    3.712910
 C    2.378457    0.769550   -1.218952
 C    2.346667   -0.474177   -0.301260
 C    3.229648   -1.616457   -0.823982
 C    4.706193   -1.261168   -1.024523
 C    5.410663   -0.792576    0.253188
 C    5.581001   -1.920393    1.267170
 C    6.362445   -3.076156    0.650832
 C    5.660536   -3.584735   -0.604134
 C    5.473451   -2.453202   -1.611648
 N    0.999187   -0.983631   -0.075428
 O    2.293472    0.462358   -2.577705
 N    1.581978    3.782850    0.365540
 C    1.596426    2.451001    0.519971
 O    1.831258    1.885572    1.579059
 C    1.286867    1.794251   -0.808408
 C    1.215850    2.961060   -1.797802
 C    1.148121    4.243763   -0.948142
 C    1.852231    4.682587    1.455162
 C    2.077375    5.328466   -1.489833
 C   -0.289859    4.766441   -0.859660
 H   -6.218797   -2.343644   -1.968819
 H   -5.692382   -2.901382   -0.375598
 H   -6.016327   -1.169964   -0.645728
 H   -2.855943   -0.723560   -2.445021
 H   -4.956062   -1.125676   -3.800408
 H   -5.777912    0.062710   -2.776392
 H   -4.392609    0.538615   -3.756548
 H   -4.021308   -0.836734    0.736080
 H   -3.487352    2.033209   -2.388360
 H   -3.866636    0.944954    2.394564
 H   -3.369251    3.817308   -0.723793
 H   -3.540325    3.288901    1.684559
 H   -1.785920   -1.012938   -0.250327
 H   -1.751532   -2.340802   -2.485627
 H   -1.470505   -3.770866   -1.497983
 H   -0.123502   -3.216294    0.936010
 H   -1.875737   -3.457204    0.913009
 H   -3.065539   -2.523566    3.063912
 H    0.885477    1.262744    3.048722
 H   -0.166972    1.565558    4.398686
 H    3.353245    1.258090   -1.086209
 H    2.693986   -0.154225    0.683629
 H    2.827303   -1.945091   -1.784004
 H    3.130561   -2.444562   -0.121472
 H    4.747520   -0.450567   -1.759270
 H    6.401030   -0.418982   -0.021044
 H    4.864019    0.035489    0.707379
 H    4.603497   -2.273278    1.599288
 H    6.109710   -1.542898    2.145527
 H    7.365984   -2.732183    0.387896
 H    6.466819   -3.886915    1.375436
 H    4.692228   -4.008941   -0.334176
 H    6.251000   -4.382283   -1.061113
 H    4.949547   -2.826036   -2.493938
 H    6.458940   -2.107055   -1.933447
 H    0.658067   -0.921265    0.892845
 H    1.575178   -0.199801   -2.682645
 H    0.326423    1.276362   -0.728618
 H    0.357549    2.877287   -2.460421
 H    2.113179    2.956931   -2.416837
 H    2.693559    5.335224    1.218291
 H    0.978248    5.293418    1.689432
 H    2.106912    4.074799    2.322582
 H    1.976902    6.251456   -0.923745
 H    3.112050    4.996955   -1.445374
 H    1.824672    5.534644   -2.526369
 H   -0.646876    5.034395   -1.850376
 H   -0.938627    3.997118   -0.446614
 H   -0.345894    5.649995   -0.227820
