66 
1biw_ligand_dft.xyz
 C    2.786780    0.834813    0.189990
 O    2.609192    1.761525   -0.598734
 N    3.944458    0.674574    0.877031
 C    4.219694   -0.469724    1.749652
 C    4.296971   -1.818603    1.029228
 C    2.936929   -2.430392    0.692781
 C    2.049364   -1.574131   -0.208872
 C    1.682835   -0.205751    0.404812
 N    0.492867    0.344164   -0.201162
 C   -0.740031   -0.074237    0.143485
 C   -1.884473    0.670129   -0.544831
 C   -3.181342   -0.171320   -0.668255
 C   -2.873559   -1.412073   -1.496719
 O   -2.945482   -1.432505   -2.724099
 N   -2.497548   -2.529501   -0.816285
 O   -1.971811   -3.548815   -1.609508
 C   -3.920501   -0.440934    0.649843
 C   -5.282196   -1.102199    0.436470
 C   -6.041417   -1.289922    1.738693
 O   -6.283266   -0.011727    2.301978
 C   -2.091182    2.019102    0.176442
 C   -3.192352    2.920279   -0.400395
 C   -3.270730    4.212537    0.417027
 C   -2.966005    3.229959   -1.882534
 O   -0.901493   -0.979319    0.967283
 C    5.002075    1.650204    0.641106
 C    5.981263    1.222328   -0.437623
 O    6.712059    0.112549    0.026831
 C    7.588829   -0.403547   -0.941300
 H    3.470472   -0.509856    2.551788
 H    5.181855   -0.264377    2.219959
 H    4.904384   -1.684511    0.127642
 H    4.844706   -2.512547    1.678030
 H    2.392050   -2.628303    1.626511
 H    3.089531   -3.403803    0.213405
 H    2.521170   -1.414310   -1.186919
 H    1.109957   -2.105752   -0.385008
 H    1.487036   -0.344685    1.475148
 H    0.649994    1.131016   -0.820401
 H   -1.555558    0.880852   -1.570267
 H   -3.850159    0.404318   -1.317957
 H   -1.946441   -2.397482    0.029344
 H   -2.124977   -3.185601   -2.507229
 H   -3.302896   -1.047054    1.318616
 H   -4.083783    0.511687    1.162393
 H   -5.893811   -0.489182   -0.238265
 H   -5.157311   -2.083236   -0.036962
 H   -5.445251   -1.915988    2.422110
 H   -6.987461   -1.817562    1.542652
 H   -6.704854   -0.137024    3.158866
 H   -1.141876    2.571833    0.141812
 H   -2.293372    1.830477    1.237825
 H   -4.156993    2.405164   -0.298222
 H   -4.077582    4.858855    0.055442
 H   -3.455368    4.002686    1.476311
 H   -2.331615    4.775117    0.343006
 H   -1.983425    3.695308   -2.034101
 H   -3.013781    2.332297   -2.508376
 H   -3.724845    3.927889   -2.251905
 H    4.529845    2.586556    0.340105
 H    5.540511    1.813092    1.579855
 H    6.660409    2.059056   -0.671857
 H    5.427308    0.971543   -1.355958
 H    7.046847   -0.743159   -1.837255
 H    8.102743   -1.255452   -0.491449
 H    8.334808    0.344688   -1.249779
