56 
1bji_ligand_ani.xyz
 C    0.300233   -0.305554    2.823268
 O    0.838190   -1.253906    3.354350
 O    0.278897    0.918408    3.374600
 C   -0.393022   -0.376654    1.511163
 C   -0.556519   -1.542451    0.867664
 C   -1.448434   -1.698321   -0.322755
 C   -2.093316   -0.328926   -0.699279
 N   -3.339465   -0.144589    0.024402
 C   -4.516527   -0.628072   -0.471724
 O   -4.567159   -1.212362   -1.543797
 C   -5.727827   -0.375447    0.401048
 C   -1.168406    0.838442   -0.336673
 O   -0.888090    0.807739    1.069459
 C    0.130824    0.863661   -1.169270
 O    0.268826    0.078885   -2.107954
 N    1.095412    1.750979   -0.827640
 C    2.397003    1.630791   -1.488358
 C    3.414730    0.826707   -0.667030
 C    3.072511   -0.637186   -0.470494
 C    2.918059   -1.488413   -1.566741
 C    2.939280   -1.172543    0.811793
 C    2.659741   -2.844192   -1.387301
 C    2.672711   -2.526105    0.997593
 C    2.539162   -3.367990   -0.103760
 C    0.889601    2.927637    0.014939
 C    0.393116    4.145872   -0.764623
 C    0.244653    5.377531    0.125057
 N   -0.692835   -2.305905   -1.478113
 H    0.750809    0.820480    4.219102
 H   -0.063277   -2.423146    1.245472
 H   -2.258008   -2.392306   -0.084365
 H   -2.330670   -0.309103   -1.760335
 H   -3.292199    0.231110    0.961428
 H   -5.905135    0.699455    0.515531
 H   -6.598139   -0.832606   -0.070499
 H   -5.592557   -0.804187    1.400146
 H   -1.707768    1.774809   -0.512637
 H    2.238550    1.170737   -2.467625
 H    2.790054    2.642543   -1.647247
 H    3.531679    1.307913    0.313205
 H    4.388517    0.912944   -1.170086
 H    3.001773   -1.098121   -2.577594
 H    3.045809   -0.519763    1.675784
 H    2.531178   -3.488226   -2.254981
 H    2.544449   -2.920906    2.002623
 H    2.346985   -4.429881    0.033891
 H    0.199270    2.685073    0.823994
 H    1.858258    3.152740    0.483186
 H    1.089872    4.363172   -1.585267
 H   -0.572623    3.904886   -1.229431
 H    1.203895    5.661927    0.573464
 H   -0.464493    5.193050    0.940767
 H   -0.121957    6.235319   -0.447754
 H   -1.326282   -2.822428   -2.112423
 H   -0.230660   -1.509110   -1.984343
 H    0.050158   -2.932594   -1.114911
