97 
1bl4_ligand_dft.xyz
 C   -2.755417   -1.052780   -2.581288
 C   -3.399478   -2.360439   -2.110255
 C   -4.885215   -2.429677   -2.468847
 C   -5.728385   -1.488616   -1.604900
 C   -5.441405   -1.717839   -0.119749
 C   -3.943148   -1.604279    0.158074
 C   -2.229939   -3.418792   -0.269188
 C   -1.932446   -3.533703    1.229550
 C   -0.923065   -2.466419    1.625432
 C    0.305523   -2.405069    0.954573
 C    1.271773   -1.495649    1.368124
 C    1.014706   -0.616817    2.439642
 C   -0.232947   -0.640540    3.062291
 O   -0.600787    0.167976    4.089739
 C   -1.166680   -5.149358    3.046021
 O    2.503868   -1.377695    0.820089
 C   -0.053253    1.475262    4.202651
 C    2.873143   -0.386285    3.813232
 C    2.864023   -2.279361   -0.210074
 C    7.060449   -1.625899   -0.879768
 C   -1.451539    0.946769    0.112022
 C   -1.884092    1.858946    1.060729
 C   -2.158802    3.182355    0.712820
 C   -1.321488    1.344469   -1.222565
 C   -0.855543    0.339426   -2.251872
 C    0.626969    0.008994   -2.128978
 C    1.545464    1.173521   -2.513351
 C    2.992205    0.783305   -2.329717
 C    3.609428    0.988158   -1.092320
 C    4.914660    0.560975   -0.863362
 C    5.618113   -0.090083   -1.895586
 C    5.003959   -0.289345   -3.122309
 C    3.698773    0.146322   -3.344759
 C   -2.004330    3.578603   -0.613473
 O   -2.249081    4.835869   -1.087590
 C   -2.746813    5.801136   -0.213332
 C   -1.684679    6.350846    0.727519
 O   -0.516019    6.071114    0.719222
 O   -2.239671    7.229752    1.584693
 C   -1.598174    2.654869   -1.580064
 C    4.883341    1.326129    1.374286
 N   -3.196251   -2.540007   -0.677399
 O   -1.544522   -0.905470   -2.030119
 O   -3.253131   -0.274111   -3.359117
 O   -1.596803   -4.093867   -1.072323
 C   -1.424081   -4.948925    1.555000
 C   -1.190962   -1.580066    2.656632
 O    2.010708    0.227539    2.865758
 O    5.581354    0.717032    0.306156
 O    6.915330   -0.491021   -1.715174
 H   -2.849474   -3.170514   -2.597857
 H   -5.007540   -2.191097   -3.528506
 H   -5.212604   -3.465047   -2.317152
 H   -5.492189   -0.450326   -1.867438
 H   -6.792206   -1.639623   -1.816330
 H   -5.784697   -2.716414    0.180602
 H   -5.976801   -0.985853    0.495190
 H   -3.727851   -1.785359    1.208867
 H   -3.601470   -0.581662   -0.055867
 H   -2.845619   -3.377584    1.811765
 H    0.483884   -3.074581    0.121173
 H   -0.390630   -4.468822    3.411150
 H   -0.840223   -6.174575    3.246599
 H   -2.073495   -4.965741    3.634899
 H    0.900806    1.469834    4.736122
 H    0.088537    1.937227    3.221630
 H   -0.785908    2.046424    4.777728
 H    2.310310   -0.716498    4.695737
 H    3.601997    0.371339    4.108975
 H    3.394887   -1.241410    3.368779
 H    2.839822   -3.315322    0.149865
 H    3.877892   -2.006008   -0.502383
 H    2.207091   -2.178201   -1.080251
 H    6.565002   -2.501484   -1.322568
 H    8.132056   -1.820587   -0.803827
 H    6.653413   -1.441414    0.120333
 H   -1.231997   -0.077395    0.393540
 H   -2.011332    1.538913    2.091047
 H   -2.476726    3.877046    1.482024
 H   -1.092571    0.694532   -3.259349
 H    0.839560   -0.852960   -2.772382
 H    0.835622   -0.293993   -1.096886
 H    1.360391    1.457152   -3.557026
 H    1.309151    2.048793   -1.897319
 H    3.044110    1.467461   -0.300578
 H    5.573418   -0.784579   -3.902720
 H    3.230542   -0.017154   -4.311843
 H   -3.102426    6.626893   -0.836398
 H   -3.603277    5.440281    0.371387
 H   -1.518363    7.571952    2.136912
 H   -1.515630    2.985779   -2.610898
 H    3.957086    0.789559    1.605367
 H    5.561561    1.289839    2.228699
 H    4.649685    2.374376    1.147278
 H   -2.168936   -5.671596    1.202589
 H   -0.515290   -5.143476    0.978875
 H   -2.139651   -1.595863    3.184503
