97 
1bl4_ligand_ani.xyz
 C   -2.499321   -0.714562   -2.669339
 C   -2.997962   -2.154367   -2.531520
 C   -4.511910   -2.227848   -2.709175
 C   -5.239740   -1.670755   -1.485811
 C   -4.754394   -2.358171   -0.211655
 C   -3.243535   -2.215544   -0.081070
 C   -1.543324   -3.638477   -1.294644
 C   -1.114665   -4.287379    0.025223
 C   -0.257046   -3.315377    0.837135
 C    0.746133   -2.576845    0.213332
 C    1.555555   -1.719167    0.955740
 C    1.347668   -1.551825    2.329081
 C    0.388315   -2.340307    2.962395
 O    0.248662   -2.304024    4.327994
 C   -0.065341   -6.412824    0.973132
 O    2.538590   -0.953522    0.399267
 C   -0.303556   -1.090052    4.814461
 C    3.131660   -1.207489    3.779790
 C    3.223128   -1.485834   -0.719713
 C    7.691342    0.952457   -0.985259
 C   -1.226890    0.981752    0.444365
 C   -1.819894    1.636488    1.517017
 C   -2.643242    2.745762    1.335903
 C   -1.459595    1.445336   -0.855437
 C   -0.797825    0.806193   -2.064489
 C    0.721311    0.769777   -1.950421
 C    1.328120    2.177831   -1.866762
 C    2.836261    2.179895   -1.778018
 C    3.470689    1.946088   -0.553329
 C    4.861106    1.867269   -0.464655
 C    5.648974    2.032850   -1.620080
 C    5.012143    2.291149   -2.826043
 C    3.625809    2.356465   -2.910442
 C   -2.881174    3.196418    0.041321
 O   -3.659188    4.276825   -0.274597
 C   -4.596634    4.753738    0.656430
 C   -4.013366    5.743151    1.655116
 O   -2.848302    5.950352    1.873025
 O   -5.017014    6.357397    2.311116
 C   -2.283773    2.548857   -1.042027
 C    4.754998    1.341369    1.842701
 N   -2.600322   -2.768200   -1.271469
 O   -1.239493   -0.564035   -2.231979
 O   -3.159434    0.177305   -3.151328
 O   -0.950174   -3.894022   -2.333972
 C   -0.377631   -5.599839   -0.277801
 C   -0.409195   -3.208873    2.223894
 O    2.085545   -0.622615    3.018985
 O    5.532517    1.642444    0.699432
 O    7.014149    2.032918   -1.616035
 H   -2.489611   -2.723082   -3.318481
 H   -4.791518   -1.680598   -3.614154
 H   -4.782138   -3.280757   -2.851437
 H   -5.057751   -0.589472   -1.421058
 H   -6.320198   -1.805064   -1.605914
 H   -5.011207   -3.424990   -0.242134
 H   -5.244028   -1.931180    0.671888
 H   -2.876057   -2.720633    0.812081
 H   -2.974376   -1.153046    0.022280
 H   -2.011335   -4.531401    0.611350
 H    0.900257   -2.667296   -0.860766
 H    0.588432   -5.863139    1.660468
 H    0.439321   -7.348936    0.712381
 H   -0.985292   -6.669029    1.512816
 H    0.351401   -0.242280    4.589975
 H   -1.294674   -0.909736    4.375123
 H   -0.406282   -1.205890    5.895871
 H    2.727299   -1.921367    4.506943
 H    3.645547   -0.395247    4.300967
 H    3.843006   -1.718973    3.116053
 H    3.433764   -2.553996   -0.578590
 H    4.161725   -0.933083   -0.804739
 H    2.640967   -1.347443   -1.640682
 H    7.168108    0.003494   -1.160649
 H    8.680197    0.909187   -1.448986
 H    7.790066    1.118168    0.091107
 H   -0.590172    0.111469    0.630070
 H   -1.633694    1.287969    2.529900
 H   -3.068335    3.248455    2.198905
 H   -1.092509    1.363401   -2.958836
 H    1.104243    0.243013   -2.831898
 H    1.013721    0.181549   -1.070649
 H    1.017498    2.752981   -2.749267
 H    0.897150    2.685192   -0.991161
 H    2.867362    1.804140    0.339629
 H    5.638010    2.434849   -3.702279
 H    3.158936    2.552405   -3.873438
 H   -5.374387    5.267258    0.086194
 H   -5.077385    3.934107    1.210279
 H   -4.601676    6.969328    2.941216
 H   -2.490542    2.914827   -2.044949
 H    4.062349    0.515609    1.641845
 H    5.458304    1.046719    2.624540
 H    4.192347    2.223352    2.179642
 H   -0.994227   -6.186909   -0.967087
 H    0.540629   -5.357865   -0.824256
 H   -1.137040   -3.804722    2.768805
