97 
1bl4_ligand_xtb.xyz
 C   -3.123162    1.892904   -1.894656
 C   -4.447695    1.334607   -1.375202
 C   -5.470713    2.446728   -1.137855
 C   -5.076386    3.288850    0.072338
 C   -4.870977    2.386155    1.284709
 C   -3.817107    1.325299    0.962970
 C   -4.415155   -0.796972   -0.255154
 C   -4.153309   -1.618278    1.007213
 C   -2.660437   -1.792856    1.141871
 C   -1.940584   -2.334316    0.083275
 C   -0.570039   -2.515348    0.175992
 C    0.117386   -2.162483    1.356763
 C   -0.613603   -1.625096    2.421956
 O   -0.109127   -1.201014    3.618350
 C   -4.661071   -3.822120    2.141592
 O    0.196488   -3.007085   -0.840488
 C    1.135073   -1.672473    4.089020
 C    2.078292   -3.515859    1.149143
 C   -0.439307   -3.501888   -1.994542
 C    6.000031   -3.154105   -0.267741
 C   -0.131897    1.276216    0.377685
 C    0.578296    1.738945    1.466935
 C    1.373721    2.870503    1.369057
 C   -0.062060    1.957767   -0.833266
 C   -0.800110    1.414351   -2.031187
 C   -0.118937    0.146828   -2.553234
 C    1.288240    0.418204   -3.116154
 C    2.271244   -0.591828   -2.592485
 C    2.862989   -0.385959   -1.352937
 C    3.756198   -1.294567   -0.803743
 C    4.083390   -2.448712   -1.540481
 C    3.470343   -2.655517   -2.769528
 C    2.568855   -1.747825   -3.292242
 C    1.441681    3.557342    0.164014
 O    2.163370    4.699701   -0.056780
 C    3.017183    5.168101    0.945286
 C    4.187792    4.234565    1.215430
 O    4.432950    3.227436    0.614828
 O    4.935428    4.689390    2.225929
 C    0.711125    3.099485   -0.932032
 C    3.917974   -0.037406    1.214633
 N   -4.242452    0.542903   -0.176282
 O   -2.132738    1.045560   -1.639233
 O   -3.006563    2.938109   -2.479073
 O   -4.751118   -1.328650   -1.298837
 C   -4.864659   -2.974915    0.893623
 C   -1.992149   -1.442562    2.296744
 O    1.486285   -2.269438    1.465514
 O    4.335671   -1.125709    0.424634
 O    4.938783   -3.446618   -1.147926
 H   -4.815828    0.639475   -2.143153
 H   -5.518994    3.069909   -2.030673
 H   -6.449563    1.993366   -0.971546
 H   -4.149697    3.822272   -0.147690
 H   -5.851476    4.028950    0.277350
 H   -5.812298    1.894506    1.540812
 H   -4.543415    2.970697    2.145449
 H   -3.639333    0.684896    1.822260
 H   -2.869087    1.820230    0.719600
 H   -4.550550   -1.104479    1.885870
 H   -2.464891   -2.585015   -0.823253
 H   -3.603546   -4.023034    2.297582
 H   -5.183725   -4.770371    2.042909
 H   -5.044994   -3.309679    3.021512
 H    1.183279   -2.764264    4.070103
 H    1.969768   -1.264891    3.515620
 H    1.194762   -1.328709    5.122251
 H    1.521845   -4.342441    1.602636
 H    3.080719   -3.475828    1.573234
 H    2.146535   -3.670500    0.071875
 H   -1.105882   -4.336547   -1.755174
 H    0.368571   -3.848463   -2.636891
 H   -1.004277   -2.723632   -2.514051
 H    5.658023   -3.039066    0.762903
 H    6.674014   -4.008942   -0.333950
 H    6.532160   -2.248513   -0.569367
 H   -0.738396    0.388268    0.459564
 H    0.517834    1.211334    2.406772
 H    1.931508    3.196033    2.233618
 H   -0.869928    2.175857   -2.817458
 H   -0.759314   -0.298514   -3.316151
 H   -0.046489   -0.551845   -1.719939
 H    1.266222    0.387007   -4.205999
 H    1.612995    1.414407   -2.813163
 H    2.608518    0.509768   -0.809288
 H    3.725136   -3.556781   -3.305465
 H    2.111360   -1.936454   -4.252008
 H    3.421542    6.114829    0.572959
 H    2.492278    5.368931    1.889410
 H    5.697161    4.106184    2.377697
 H    0.767900    3.658806   -1.852803
 H    2.840171   -0.076456    1.396605
 H    4.452725   -0.147560    2.158359
 H    4.178974    0.922305    0.759612
 H   -5.929826   -2.794851    0.735703
 H   -4.490757   -3.503552    0.017493
 H   -2.512759   -1.036001    3.150025
