73 
1bma_ligand_ani.xyz
 C    1.040722    0.776252    1.853789
 C    1.876540   -0.290379    2.589928
 O    0.055378    1.229194    2.421338
 F    2.137741    0.106702    3.835766
 F    1.192364   -1.444337    2.656876
 F    3.046049   -0.532716    1.974962
 N    1.456670    1.121702    0.629006
 C    0.832087    2.206421   -0.128773
 C   -0.418358    1.722029   -0.899139
 O   -0.462035    1.669685   -2.124342
 C    1.828390    2.851274   -1.090190
 C    3.132317    3.356845   -0.457384
 C    2.880051    4.249437    0.759280
 C    3.959154    4.097571   -1.508959
 N   -2.784003    0.974298   -0.464676
 N   -1.445886    1.388612   -0.063982
 C   -3.650541    0.356380    0.850117
 C   -4.997742   -0.220337    0.532956
 C   -6.139222    0.583346    0.531543
 C   -7.396966    0.030195    0.308859
 C   -7.525292   -1.336869    0.079751
 C   -6.393459   -2.147351    0.072035
 C   -5.136475   -1.589558    0.293273
 C   -3.554925    2.158651   -0.998376
 C   -2.696508   -0.177512   -1.566057
 C   -1.654319   -1.203090   -1.153093
 O   -1.862214   -1.973676   -0.227079
 C    0.767344   -1.562524   -1.470419
 N   -0.508368   -1.159175   -1.897867
 C    0.952242   -2.427703   -0.392628
 C    2.239158   -2.773652   -0.006818
 C    3.367405   -2.271617   -0.656152
 C    3.168537   -1.402517   -1.730435
 C    1.888780   -1.052073   -2.135397
 C    4.755240   -2.696725   -0.225734
 C    5.646737   -1.493615    0.095681
 C    5.413919   -3.593067   -1.282441
 H    2.256597    0.653424    0.228861
 H    0.483968    2.935483    0.613838
 H    2.059019    2.134954   -1.890912
 H    1.315366    3.688618   -1.577921
 H    3.717391    2.487685   -0.123644
 H    2.249344    5.106837    0.490484
 H    2.383826    3.701880    1.569546
 H    3.824460    4.640228    1.153379
 H    3.424570    4.989462   -1.859146
 H    4.161155    3.463942   -2.380121
 H    4.920808    4.424179   -1.098219
 H   -1.275427    1.392494    0.941273
 H   -3.744637    1.203233    1.534225
 H   -2.992384   -0.413314    1.249263
 H   -6.026085    1.653563    0.700810
 H   -8.276278    0.668223    0.312425
 H   -8.506539   -1.770861   -0.094534
 H   -6.488271   -3.213509   -0.114109
 H   -4.233375   -2.196522    0.265458
 H   -4.544993    1.817225   -1.291512
 H   -3.047520    2.582944   -1.864665
 H   -3.648276    2.907463   -0.213962
 H   -3.680953   -0.626531   -1.582737
 H   -2.480869    0.294782   -2.520052
 H   -0.474871   -0.389248   -2.553778
 H    0.089993   -2.803418    0.141831
 H    2.373038   -3.427327    0.853332
 H    4.021886   -0.990175   -2.266712
 H    1.750077   -0.355895   -2.961280
 H    4.639951   -3.286993    0.694550
 H    6.625909   -1.825588    0.458869
 H    5.184322   -0.866641    0.862911
 H    5.814810   -0.874727   -0.792998
 H    4.825922   -4.499383   -1.460534
 H    5.506557   -3.060133   -2.236458
 H    6.419269   -3.891756   -0.964197
