39 
1bmk_ligand_ani.xyz
 F    7.828043   10.966317   30.145045
 C    6.244732   12.648664   30.582152
 C    6.617314   11.496989   29.906258
 C    5.783629   10.881212   28.986965
 C    4.532666   11.434845   28.751038
 C    4.113856   12.583026   29.431037
 C    4.994989   13.192037   30.329460
 C    1.296607    8.982955   29.740935
 N    0.371710    8.545776   28.896889
 C   -0.135305    9.478310   28.074112
 N    0.184033   10.769609   28.045507
 C    1.144944   11.196011   28.890916
 C    1.731323   10.302659   29.787217
 N   -1.067473    9.041880   27.162163
 N    0.718878   13.665765   28.620529
 C    1.574727   12.599052   28.854122
 C    2.792052   13.185046   29.201614
 N    2.653387   14.539902   29.264321
 C    1.425978   14.787315   28.900999
 C   -0.667594   13.690549   28.157900
 C   -0.784640   14.060148   26.693695
 C   -1.785411   13.360540   25.822502
 C   -0.317751   13.088991   25.649352
 H    6.933667   13.105174   31.285777
 H    6.116180    9.986999   28.472110
 H    3.866754   10.959763   28.037689
 H    4.684154   14.106220   30.826192
 H    1.717791    8.240424   30.418147
 H    2.495451   10.618543   30.486284
 H   -1.702209    9.752369   26.827880
 H   -1.493919    8.160795   27.405154
 H    0.974466   15.769202   28.822365
 H   -1.097086   12.705777   28.339585
 H   -1.206507   14.413463   28.779104
 H   -0.618122   15.113734   26.475229
 H   -2.386502   12.572004   26.274718
 H   -2.307488   13.940143   25.066527
 H    0.189447   13.479165   24.769836
 H    0.048230   12.128626   26.010677
