67 
1bmm_ligand_ani.xyz
 C   -2.594249   -1.124471   -0.284110
 C   -3.687109   -0.425549    0.155657
 C   -5.310037    1.419693   -0.188589
 C   -5.776946    2.464229   -0.941758
 C   -5.138001    2.804019   -2.160135
 C   -4.051231    2.091757   -2.592687
 C   -2.422826    0.237668   -2.257767
 C   -1.956782   -0.809571   -1.508079
 C   -4.185830    0.662988   -0.611809
 C   -3.544589    1.002094   -1.832251
 S   -1.935810   -2.433886    0.705669
 O   -2.705874   -2.486417    1.946427
 O   -1.778050   -3.621517   -0.115808
 N   -0.416408   -1.927023    1.110035
 C   -0.198286   -0.729281    1.906379
 C   -0.007699   -1.072624    3.400255
 O   -1.230978   -1.220421    4.064615
 C    1.019665    0.022231    1.355509
 O    2.026924   -0.601236    1.010627
 N    0.929351    1.371299    1.303431
 C   -0.209652    2.143105    1.820237
 C    0.268900    3.589934    1.737361
 C    1.177414    3.575134    0.507842
 C    1.903455    2.224681    0.590150
 C    3.268140    2.336861    1.303545
 N    4.141467    1.199650    1.069194
 C    4.785527    1.118247   -0.137473
 O    4.919989    2.077860   -0.882789
 C    5.331898   -0.253879   -0.506198
 C    5.091793   -0.568467   -1.985930
 C    3.618585   -0.600936   -2.392428
 N    2.892696   -1.620779   -1.654971
 C    1.646870   -2.057466   -2.090980
 N    1.153189   -3.060900   -1.253279
 N    0.936553   -1.659385   -3.078274
 H   -4.176031   -0.695687    1.085541
 H   -5.793464    1.149196    0.748585
 H   -6.638999    3.037981   -0.611521
 H   -5.519215    3.634805   -2.748679
 H   -3.557668    2.347512   -3.528063
 H   -1.939246    0.496415   -3.195858
 H   -1.097876   -1.386639   -1.855059
 H    0.280780   -2.173617    0.406297
 H   -1.092857   -0.105461    1.844348
 H    0.526798   -0.257808    3.902838
 H    0.623650   -1.972166    3.470472
 H   -1.767201   -1.870761    3.581978
 H   -0.463453    1.830666    2.839782
 H   -1.098116    1.985211    1.186844
 H    0.840273    3.851565    2.635261
 H   -0.560766    4.296127    1.646256
 H    1.876731    4.416514    0.476876
 H    0.578935    3.609657   -0.408759
 H    2.079414    1.813155   -0.411386
 H    3.799611    3.214458    0.922599
 H    3.123935    2.461644    2.383497
 H    3.793464    0.324128    1.439294
 H    4.900848   -1.023363    0.149008
 H    6.412699   -0.248237   -0.309854
 H    5.547170   -1.534869   -2.226528
 H    5.594678    0.196209   -2.586694
 H    3.563682   -0.844631   -3.460221
 H    3.175449    0.401093   -2.263775
 H    2.874672   -1.479984   -0.647599
 H    1.857378   -3.701759   -0.904140
 H    0.355057   -3.544330   -1.653977
 H    1.384544   -0.893422   -3.576038
