71 
1bmn_ligand_ani.xyz
 C   -3.686035   -1.112614    0.199914
 C   -3.770938   -0.686372   -1.099053
 C   -4.935148    0.677446   -2.813934
 C   -5.949496    1.529083   -3.163489
 C   -6.900797    1.938842   -2.195793
 C   -6.812786    1.487595   -0.905677
 C   -5.651213    0.124525    0.819421
 C   -4.632710   -0.717639    1.174800
 C   -4.817796    0.193966   -1.484626
 C   -5.769241    0.605560   -0.514997
 S   -2.372617   -2.199951    0.667137
 O   -2.393450   -2.322094    2.125706
 O   -2.401928   -3.388944   -0.165379
 N   -1.020303   -1.334330    0.209889
 C   -0.428795   -0.406123    1.160524
 C    0.439802   -1.100599    2.249745
 O   -0.215890   -1.131071    3.487644
 C    0.368987    0.681297    0.420496
 O    0.719740    0.577292   -0.751124
 N    0.703934    1.753681    1.178886
 C    0.060133    2.108923    2.452317
 C    0.742969    3.420569    2.845942
 C    1.135956    4.034771    1.497859
 C    1.563537    2.826084    0.655279
 C    3.056255    2.503427    0.829634
 N    3.523173    1.450331   -0.044566
 C    4.257775    1.721195   -1.152433
 O    4.641772    2.847374   -1.439760
 C    4.660394    0.539623   -2.036936
 C    3.714508   -0.660382   -2.016700
 N    3.836794   -1.484725   -0.804220
 C    5.214761   -1.880790   -0.482595
 C    6.134826   -0.673246   -0.400502
 C    6.095738    0.114587   -1.703806
 C    2.823795   -2.438564   -0.611795
 N    1.574586   -2.261478   -0.839950
 N    3.232562   -3.652010   -0.048731
 H   -3.041909   -1.011443   -1.837525
 H   -4.200067    0.357217   -3.549837
 H   -6.032048    1.896248   -4.183045
 H   -7.700515    2.614824   -2.487344
 H   -7.540023    1.798107   -0.158491
 H   -6.385142    0.438299    1.557329
 H   -4.535585   -1.093042    2.189068
 H   -0.340577   -1.938181   -0.265105
 H   -1.253937    0.078829    1.689898
 H    0.727041   -2.109743    1.908739
 H    1.368065   -0.538815    2.411672
 H   -1.043040   -1.623363    3.356925
 H   -1.021327    2.257101    2.310750
 H    0.185483    1.315382    3.197136
 H    1.634466    3.212071    3.448418
 H    0.086239    4.068614    3.432657
 H    0.270605    4.517102    1.029970
 H    1.931299    4.782428    1.578869
 H    1.351607    2.950792   -0.412667
 H    3.651900    3.390040    0.590748
 H    3.251508    2.220214    1.872907
 H    3.221319    0.502385    0.129365
 H    4.645895    0.962605   -3.047560
 H    3.914838   -1.270971   -2.913150
 H    2.690315   -0.291066   -2.097618
 H    5.209624   -2.402007    0.477223
 H    5.609784   -2.575555   -1.246656
 H    7.154066   -1.020555   -0.195390
 H    5.840575   -0.038930    0.443315
 H    6.478034   -0.515150   -2.519308
 H    6.730707    1.004775   -1.653165
 H    1.371251   -1.316847   -1.164352
 H    4.036085   -4.073607   -0.498189
 H    2.451286   -4.296285   -0.027198
