71 
1bmn_ligand_dft.xyz
 C   -3.521949   -1.267946   -0.249938
 C   -3.207122   -0.159876   -0.993288
 C   -3.884188    2.028663   -1.931777
 C   -4.836029    2.999882   -2.101998
 C   -6.122712    2.844995   -1.533067
 C   -6.431461    1.724484   -0.805783
 C   -5.750759   -0.467417    0.146401
 C   -4.800727   -1.434298    0.333569
 C   -4.176349    0.856822   -1.185913
 C   -5.468354    0.700865   -0.611531
 S   -2.313728   -2.558873   -0.014370
 O   -2.506205   -3.033391    1.362192
 O   -2.350214   -3.519595   -1.102234
 N   -0.907606   -1.728795   -0.160911
 C   -0.464194   -0.904165    0.947802
 C    0.426383   -1.679725    1.959411
 O   -0.312556   -2.171604    3.045155
 C    0.220029    0.366458    0.427325
 O    0.591568    0.496981   -0.735317
 N    0.426234    1.319539    1.372750
 C   -0.310906    1.402852    2.645915
 C    0.192835    2.705081    3.269116
 C    0.538035    3.566327    2.049026
 C    1.149664    2.563556    1.062792
 C    2.661417    2.402012    1.285042
 N    3.311239    1.530340    0.333957
 C    3.929996    2.040369   -0.767305
 O    4.080186    3.241050   -0.944750
 C    4.514131    1.035199   -1.762108
 C    3.700082   -0.245660   -1.967512
 N    3.819028   -1.196035   -0.854357
 C    5.200066   -1.508015   -0.472973
 C    6.018033   -0.246227   -0.205584
 C    5.970428    0.704554   -1.397311
 C    2.865384   -2.223391   -0.811717
 N    1.671275   -2.171626   -1.278490
 N    3.243923   -3.367063   -0.115824
 H   -2.211457   -0.049328   -1.414561
 H   -2.894267    2.139316   -2.366154
 H   -4.606873    3.893519   -2.674434
 H   -6.868024    3.621682   -1.675929
 H   -7.418640    1.605550   -0.367236
 H   -6.736082   -0.580116    0.590205
 H   -5.005159   -2.315279    0.932059
 H   -0.165702   -2.237494   -0.662639
 H   -1.354408   -0.591740    1.504695
 H    0.947768   -2.476000    1.410477
 H    1.192802   -1.020172    2.378495
 H   -1.046513   -2.696181    2.680813
 H   -1.389097    1.465146    2.446350
 H   -0.138777    0.529853    3.280346
 H    1.086898    2.516629    3.872721
 H   -0.557127    3.159667    3.920443
 H   -0.373496    3.997457    1.621507
 H    1.221001    4.387392    2.282147
 H    0.974666    2.830954    0.018151
 H    3.139293    3.379299    1.184720
 H    2.846064    2.025397    2.297983
 H    3.133720    0.533909    0.359181
 H    4.506883    1.573330   -2.714151
 H    4.033488   -0.726452   -2.901270
 H    2.654206    0.033144   -2.090612
 H    5.173999   -2.110098    0.437031
 H    5.695009   -2.096361   -1.267169
 H    7.050028   -0.542666    0.010083
 H    5.628905    0.252978    0.688238
 H    6.447422    0.227995   -2.264409
 H    6.518511    1.628621   -1.190337
 H    1.419477   -1.247020   -1.615909
 H    4.155183   -3.747157   -0.332880
 H    2.518647   -4.068236   -0.199848
