72 
1bmq_ligand_ani.xyz
 C    3.447532    1.516515    0.450783
 C    2.423874    0.705992    0.877178
 C    2.665034   -0.680010    1.059999
 C    3.874052   -1.235453    0.746016
 C    4.946649   -0.415506    0.293067
 C    4.731838    0.980960    0.160221
 C    5.801823    1.805560   -0.280264
 C    7.026161    1.265954   -0.570448
 C    7.241010   -0.128882   -0.438830
 C    6.225383   -0.946877   -0.018285
 C    1.033718    1.222195    1.106660
 O    0.296224    0.761339    1.976871
 N    0.625508    2.192418    0.241870
 C   -0.776014    2.542033    0.107027
 C   -1.349193    1.805722   -1.118566
 O   -0.643927    1.568930   -2.091939
 C   -0.972391    4.071523   -0.022730
 C   -0.187687    4.673293   -1.191355
 C   -0.603524    4.761138    1.289533
 N   -2.663576    1.439854   -1.108097
 C   -3.646405    1.642898   -0.054463
 C   -3.657596    0.564273    1.038527
 O   -4.148348    0.795279    2.136148
 C   -4.973842    1.603688   -0.829837
 C   -4.707383    0.568585   -1.928534
 C   -3.222839    0.752098   -2.277835
 N   -3.161806   -0.646948    0.684199
 C   -3.074671   -3.080412    0.804601
 C   -2.052506   -3.007620   -0.312829
 N   -0.808855   -3.518504    0.015708
 O   -2.306392   -2.490947   -1.387304
 C   -3.164938   -1.768764    1.606026
 S    0.536354   -3.214328   -0.950355
 O    1.669842   -3.556191   -0.108796
 O    0.340144   -3.835046   -2.242533
 C    0.504686   -1.455372   -1.183429
 O   -0.775577   -1.783635    2.226947
 C   -2.099187   -1.631690    2.698087
 H    3.294042    2.587434    0.340175
 H    1.850126   -1.311837    1.409327
 H    4.020106   -2.307289    0.824831
 H    5.626758    2.875034   -0.380161
 H    7.841814    1.902164   -0.904593
 H    8.218086   -0.543051   -0.673777
 H    6.383710   -2.018646    0.087373
 H    1.154064    2.262942   -0.619029
 H   -1.260741    2.202462    1.026922
 H   -2.042476    4.238250   -0.217584
 H   -0.383081    4.146260   -2.130632
 H   -0.459095    5.726449   -1.323802
 H    0.891035    4.634648   -0.999169
 H   -1.215663    4.397649    2.123102
 H   -0.751245    5.843611    1.210878
 H    0.448357    4.576067    1.532808
 H   -3.506103    2.599982    0.455278
 H   -5.814954    1.353625   -0.177970
 H   -5.161957    2.588584   -1.268398
 H   -4.875113   -0.445313   -1.549549
 H   -5.357256    0.706594   -2.796505
 H   -3.063658    1.369746   -3.167929
 H   -2.705537   -0.203062   -2.436381
 H   -2.768520   -0.779427   -0.240745
 H   -2.869285   -3.925084    1.470743
 H   -4.040476   -3.256491    0.324409
 H   -0.562313   -3.481115    1.004951
 H   -4.125737   -1.748670    2.131940
 H    0.198798   -0.965679   -0.258290
 H   -0.192154   -1.215090   -1.987245
 H    1.521710   -1.149351   -1.439789
 H   -0.360227   -0.903924    2.225635
 H   -2.276513   -2.408319    3.454058
 H   -2.234291   -0.656517    3.181961
