42 
1bnq_ligand_ani.xyz
 C   -2.702051    0.008711   -0.253200
 C    1.637209   -0.355407   -1.821401
 C    0.855533    0.818771   -1.216212
 C    3.393760   -1.761309   -0.699432
 C    4.283830   -0.823129    0.104623
 C    5.175994    1.336311    0.232113
 C    1.215291    2.824396    0.204553
 O   -4.713859    1.416124   -1.073365
 O   -5.096150   -0.957572   -0.225581
 N   -4.603253    0.904305    1.389929
 S   -4.420810    0.325058   -0.160815
 C   -1.772427    0.817917   -0.838182
 C   -0.459957    0.297957   -0.688580
 C   -0.465169   -0.885527    0.009793
 S   -2.029182   -1.401882    0.464273
 S    1.052195   -1.548667    0.546535
 O    1.563521   -0.644970    1.592422
 O    0.908479   -2.956055    0.854267
 N    1.989632   -1.378830   -0.829069
 N    1.685385    1.472868   -0.165442
 O    4.305678    0.474771   -0.474107
 C    2.107822    3.435444    1.276136
 H    2.568872    0.005314   -2.258207
 H    1.041566   -0.817271   -2.617453
 H    0.656520    1.557972   -1.999186
 H    3.784417   -1.851680   -1.718479
 H    3.427354   -2.760185   -0.249904
 H    3.910267   -0.756031    1.134461
 H    5.303597   -1.236296    0.127451
 H    6.205171    0.949798    0.224838
 H    5.163722    2.312471   -0.261097
 H    4.847974    1.455901    1.277567
 H    1.204501    3.459211   -0.689441
 H    0.180450    2.752877    0.557184
 H   -5.142896    0.256582    1.953830
 H   -4.983646    1.844364    1.387870
 H   -2.022283    1.742525   -1.345525
 H    2.665968    1.506598   -0.484856
 H    1.678775    0.880666    0.690346
 H    1.764160    4.438717    1.544587
 H    2.103924    2.818603    2.182836
 H    3.143613    3.516128    0.925008
