38 
1bnt_ligand_ani.xyz
 C    3.514609    0.076458   -0.037791
 O    0.101221    2.529542   -1.269740
 C   -0.852107    1.730196    0.794738
 C    0.409776    2.165577    0.059339
 C   -2.791859    0.305777    0.117327
 C   -3.635730    0.846456    1.090986
 C   -5.008724    0.683199    0.998596
 C   -5.559249   -0.020909   -0.073971
 C   -4.718647   -0.576627   -1.035557
 C   -3.338448   -0.424228   -0.931592
 O    5.745236   -0.766226    1.005451
 O    5.768539    1.213241   -0.588799
 N    5.409056   -1.137339   -1.451846
 S    5.254390   -0.081660   -0.176537
 C    2.832178    1.254746   -0.058930
 C    1.436836    1.070059    0.128170
 C    1.126632   -0.257591    0.273810
 S    2.491080   -1.290608    0.187946
 S   -0.485094   -0.882004    0.567622
 O   -0.732499   -1.937740   -0.398032
 O   -0.641652   -1.145827    1.989884
 N   -1.368550    0.508799    0.158440
 O   -6.916243   -0.115902   -0.089193
 C   -7.504092   -0.809389   -1.167336
 H   -0.405532    1.784286   -1.630679
 H   -1.603021    2.509529    0.657887
 H   -0.655561    1.586458    1.866698
 H    0.814157    3.064440    0.534240
 H   -3.218154    1.387834    1.936419
 H   -5.677119    1.105507    1.742034
 H   -5.118034   -1.141258   -1.870457
 H   -2.677205   -0.889855   -1.656906
 H    5.887872   -1.981357   -1.155660
 H    5.851468   -0.690652   -2.248096
 H    3.312661    2.215431   -0.203985
 H   -8.581593   -0.768915   -1.001756
 H   -7.264620   -0.334632   -2.128093
 H   -7.178745   -1.857736   -1.195600
