34 
1bnu_ligand_xtb.xyz
 C    3.013804   -0.313843   -0.159338
 O   -1.011472   -1.951234   -0.396292
 C   -1.516931    0.126975   -1.520285
 C   -0.494944   -0.995022   -1.289075
 C   -3.089150    1.226537    0.067088
 C   -3.935630    0.054132    0.430935
 C   -3.909104   -0.662816    1.588634
 C   -4.796341   -1.761572    1.579026
 C   -5.477712   -1.870333    0.410990
 O    4.990137   -1.890489   -0.767449
 O    5.513664    0.425214   -0.052581
 N    4.702942   -1.238498    1.657441
 S    4.716194   -0.754737    0.056610
 C    2.049332   -1.057755   -0.766903
 C    0.791123   -0.411356   -0.753849
 C    0.853837    0.796259   -0.113494
 S    2.429667    1.183010    0.447115
 S   -0.531062    1.899841    0.055143
 O   -0.654758    2.345019    1.405646
 O   -0.457224    2.882908   -0.983882
 N   -1.737103    0.776721   -0.241922
 S   -5.049669   -0.634908   -0.702567
 H   -1.389748   -1.475147    0.356245
 H   -1.145299    0.845999   -2.259809
 H   -2.455383   -0.305301   -1.873877
 H   -0.295825   -1.535224   -2.220334
 H   -3.526450    1.782472   -0.771533
 H   -2.980692    1.898772    0.921745
 H   -3.282936   -0.400698    2.422728
 H   -4.921600   -2.435631    2.406858
 H   -6.210742   -2.599636    0.130096
 H    5.302684   -0.672437    2.234718
 H    4.891539   -2.221398    1.763994
 H    2.239001   -2.019200   -1.206176
