34 
1bnu_ligand_ani.xyz
 C    3.115971   -0.328064   -0.085257
 O   -0.832326   -2.179988    0.105918
 C   -1.485071   -0.329537   -1.286643
 C   -0.390674   -1.328020   -0.931897
 C   -3.043243    1.165246   -0.059728
 C   -4.085517    0.143590    0.290956
 C   -4.203301   -0.505656    1.487897
 C   -5.276035   -1.448872    1.507681
 C   -5.959042   -1.485074    0.329713
 O    4.989724   -2.100655   -0.227574
 O    5.535660    0.314505   -0.799329
 N    5.175947   -0.349217    1.590853
 S    4.831712   -0.673864   -0.002931
 C    2.169352   -1.181703   -0.564963
 C    0.873753   -0.601050   -0.565012
 C    0.904372    0.677828   -0.070439
 S    2.468405    1.192096    0.403080
 S   -0.483202    1.736673   -0.008450
 O   -0.544222    2.353515    1.304967
 O   -0.489056    2.581438   -1.196681
 N   -1.699012    0.564820   -0.136076
 S   -5.311568   -0.370836   -0.811977
 H   -1.123384   -1.582778    0.813120
 H   -1.245463    0.227514   -2.203502
 H   -2.411892   -0.882853   -1.441158
 H   -0.194614   -1.975390   -1.791668
 H   -3.287127    1.699088   -0.989913
 H   -2.996062    1.910947    0.743030
 H   -3.538455   -0.308761    2.323734
 H   -5.526443   -2.069141    2.361360
 H   -6.810782   -2.100876    0.068441
 H    5.873836    0.384303    1.657657
 H    5.440360   -1.192104    2.089878
 H    2.394293   -2.186947   -0.902224
