42 
1bqn_ligand_xtb.xyz
 C    1.892592    0.224496   -0.097766
 C    2.539793   -0.921372   -0.829229
 C    0.496284   -2.145075   -0.460640
 C   -0.208446   -0.980170   -0.132934
 C   -1.494310   -1.074043    0.379049
 C   -2.102394   -2.317217    0.516440
 C   -1.404825   -3.473233    0.155526
 C   -0.115229   -3.385543   -0.317956
 C   -0.109622    1.418606   -0.726767
 C   -2.095300    2.505030   -1.387202
 C   -3.307082    2.077101   -2.201094
 C   -2.481452    3.305561   -0.147893
 C    2.215407    0.093566    1.401038
 C    2.166044    2.841106    1.878488
 C   -4.118021   -1.379309    1.360220
 N    0.457804    0.239471   -0.319308
 N    1.800646   -2.036429   -0.932849
 O    0.529120    2.436350   -0.860707
 O   -1.413660    1.302097   -0.990159
 O   -3.358621   -2.506671    0.991595
 S    4.077324   -0.843888   -1.388205
 S    1.338392    1.318610    2.415007
 H    2.293418    1.169749   -0.476012
 H   -2.003459   -0.170499    0.660723
 H   -1.894470   -4.426618    0.264504
 H    0.428934   -4.278747   -0.585405
 H   -1.406301    3.095899   -2.003648
 H   -3.979846    1.485148   -1.585674
 H   -3.835285    2.955197   -2.560311
 H   -2.996576    1.476845   -3.052038
 H   -2.994185    4.216568   -0.442112
 H   -1.589552    3.571517    0.414300
 H   -3.138736    2.718180    0.490005
 H    1.886164   -0.875553    1.777814
 H    3.288146    0.201215    1.560836
 H    1.850269    3.620916    2.563703
 H    1.855517    3.087092    0.866733
 H    3.241508    2.703117    1.940365
 H   -3.652382   -0.835190    2.187764
 H   -4.263996   -0.701977    0.513047
 H   -5.082824   -1.767912    1.681986
 H    2.237715   -2.853021   -1.341831
