119 
1bzh_ligand_ani.xyz
 N   -4.236980   -1.084537   -1.066971
 C   -5.566679   -1.647666   -1.230083
 C   -5.512470   -3.178246   -1.015160
 O   -5.570067   -3.951703   -1.955464
 C   -6.160076   -1.363640   -2.610159
 C   -7.632986   -1.683033   -2.640635
 O   -8.309323   -1.944243   -1.672867
 O   -8.141749   -1.624570   -3.884906
 N   -5.391540   -3.644845    0.266675
 C   -5.261980   -2.871506    1.486620
 C   -3.884021   -2.197841    1.645986
 O   -3.785752   -1.098832    2.181601
 C   -5.574438   -3.756791    2.692329
 N   -2.820508   -2.884550    1.173225
 C   -1.511283   -2.281635    1.057923
 C   -0.674418   -3.208013    0.164501
 O   -1.051558   -4.337041   -0.105968
 C   -0.840286   -2.028168    2.433922
 C   -0.927384   -0.565402    2.812586
 O   -0.545978    0.322378    2.062844
 O   -1.420019   -0.343558    4.012815
 N    0.514415   -2.729310   -0.309468
 C    0.909517   -1.343781   -0.477309
 C    1.265566   -1.169758   -1.963333
 O    1.631388   -2.126054   -2.628308
 C    2.086706   -0.938433    0.430368
 C    3.295708   -1.865486    0.362561
 C    3.182234   -3.086395    1.237815
 O    4.051622   -4.065268    0.871341
 O    2.463226   -3.222443    2.196553
 N    1.115988    0.059776   -2.528057
 C    1.060624    1.369086   -1.921592
 C    2.357082    2.166590   -2.218389
 C    3.623506    1.561275   -1.649630
 C    4.229855    2.074458   -0.497523
 C    5.418772    1.545115   -0.014337
 C    4.240441    0.471413   -2.272313
 C    5.422756   -0.080115   -1.797591
 C    6.035878    0.483788   -0.678374
 O    7.266936    0.109211   -0.185218
 C    7.692161   -1.202789   -0.288005
 C    6.693056   -2.176576    0.375777
 F    7.886397   -1.566222   -1.592921
 O    9.506154   -2.422720    0.680615
 O    9.624899   -0.173478    0.656499
 O    6.337877   -3.162106   -0.427203
 O    6.285369   -1.995597    1.499741
 C    9.045305   -1.342645    0.409514
 O   -0.497606    1.846675   -3.678418
 C   -0.148814    2.094701   -2.538489
 N   -0.831944    3.006902   -1.766914
 C   -0.291864    3.810548   -0.677649
 C   -1.358091    3.932907    0.431383
 O   -1.776571    5.024958    0.819861
 C    0.191419    5.189183   -1.145564
 C    1.001045    6.001038   -0.125671
 C    1.304004    7.384834   -0.704321
 C    2.298113    5.303213    0.286107
 N   -1.767355    2.753928    0.944048
 C   -2.799427    2.585470    1.955949
 C   -4.129963    3.237466    1.544989
 C   -2.313262    3.049663    3.346448
 N   -2.187469    4.377010    3.521348
 S   -4.719483    2.760740   -0.110766
 C   -4.977458    0.980383    0.060070
 O   -2.686260    0.429440   -0.479238
 C   -3.871934    0.110746   -0.529018
 O   -2.085462    2.246905    4.250964
 H   -3.440884   -1.638195   -1.365231
 H   -6.234130   -1.223101   -0.471414
 H   -5.648954   -1.953920   -3.374292
 H   -6.032720   -0.305735   -2.866731
 H   -9.084552   -1.844422   -3.799024
 H   -5.502258   -4.649023    0.335335
 H   -5.969096   -2.035217    1.475239
 H   -4.866325   -4.590569    2.758484
 H   -6.585574   -4.164293    2.598790
 H   -5.518609   -3.183143    3.622604
 H   -2.932367   -3.771542    0.692864
 H   -1.628803   -1.313633    0.554668
 H   -1.312657   -2.642621    3.204383
 H    0.228709   -2.280482    2.403326
 H   -1.579277    0.634238    4.114690
 H    0.975815   -3.358074   -0.960281
 H    0.065511   -0.689907   -0.236307
 H    2.405354    0.075744    0.169102
 H    1.724196   -0.894162    1.461296
 H    4.176596   -1.330905    0.733452
 H    3.517547   -2.168844   -0.669505
 H    3.936041   -4.783183    1.519348
 H    1.098409    0.060917   -3.541662
 H    0.920039    1.261779   -0.840310
 H    2.437168    2.230398   -3.311527
 H    2.247429    3.195534   -1.856426
 H    3.769665    2.902555    0.036656
 H    5.894753    1.954631    0.871735
 H    3.789294    0.041800   -3.163612
 H    5.858203   -0.926971   -2.314309
 H   10.475756   -0.372940    1.081883
 H    5.629738   -3.670777    0.030670
 H   -1.621558    3.400101   -2.267462
 H    0.538995    3.231773   -0.256647
 H    0.795054    5.052234   -2.054571
 H   -0.690962    5.769599   -1.440798
 H    0.378712    6.128799    0.767096
 H    1.848698    8.005092    0.016511
 H    0.383037    7.913133   -0.976199
 H    1.922817    7.301434   -1.607748
 H    2.949238    5.133762   -0.583564
 H    2.857739    5.919992    0.998336
 H    2.105196    4.339069    0.770208
 H   -1.596635    1.913584    0.401160
 H   -2.962353    1.507430    2.053191
 H   -4.899954    3.015223    2.292590
 H   -4.006636    4.319647    1.487745
 H   -2.121979    4.987710    2.711829
 H   -1.806135    4.684808    4.403837
 H   -5.056716    0.711091    1.120328
 H   -5.937173    0.763738   -0.418569
