57 
1c3e_ligand_ani.xyz
 N   -0.679138    4.169735    0.843983
 C    0.509177    4.050934    0.357714
 N    1.524578    4.882792    0.770137
 N    0.903980    3.086683   -0.561117
 C    0.022306    2.170164   -1.084610
 O    0.352630    1.358313   -1.946435
 C   -1.325319    2.241811   -0.522167
 C   -1.618388    3.232319    0.425712
 C   -2.913635    3.247116    0.975525
 C   -3.828926    2.271609    0.634471
 C   -4.442711    0.070819   -0.501129
 C   -4.124374   -1.125940    0.449267
 C   -5.145114   -2.216489    0.173121
 O   -6.261930   -2.030682    0.909424
 C   -3.511603    1.239312   -0.275919
 C   -2.265763    1.276748   -0.881286
 C   -0.427512   -1.569813    1.203800
 C    0.044443   -2.155556    0.026316
 C    1.490355   -2.483088   -0.198073
 O    1.837677   -3.379639   -0.959028
 C   -0.869520   -2.506507   -0.969312
 C   -2.220200   -2.222972   -0.820881
 C   -2.693693   -1.604804    0.336078
 C   -1.782607   -1.309677    1.356138
 N    2.383077   -1.733337    0.498951
 C    3.787337   -2.053146    0.530783
 C    4.384497   -1.328574    1.721973
 O    3.800173   -0.515858    2.398395
 C    4.562145   -1.713264   -0.758110
 C    4.794868   -0.224869   -1.021564
 C    3.571339    0.612837   -1.318361
 O    3.465545    1.774510   -0.967782
 O    2.671634   -0.027546   -2.050858
 O    5.668954   -1.660117    1.918379
 O   -5.053186   -3.112057   -0.631168
 H    2.242700    5.090601    0.091051
 H    1.187929    5.687333    1.280740
 H    1.895209    2.900917   -0.763086
 H   -3.162531    4.026637    1.690225
 H   -4.819262    2.302398    1.088150
 H   -5.484496    0.369068   -0.345771
 H   -4.355626   -0.285471   -1.535150
 H   -4.292756   -0.788076    1.474626
 H   -6.878116   -2.734338    0.645687
 H   -1.974057    0.528568   -1.613454
 H    0.251391   -1.343213    2.025810
 H   -0.500486   -3.007678   -1.859262
 H   -2.918826   -2.505058   -1.606262
 H   -2.132032   -0.838360    2.275503
 H    2.091484   -0.938437    1.050492
 H    3.897965   -3.131071    0.693105
 H    4.019413   -2.169333   -1.588248
 H    5.541242   -2.195582   -0.686108
 H    5.438119   -0.128310   -1.906024
 H    5.336780    0.252550   -0.199288
 H    1.879167    0.556171   -2.161161
 H    5.974718   -1.139628    2.680407
