64 
1c3i_ligand_dft.xyz
 N    1.630457    1.960387    0.691966
 C    1.178390    2.515060   -0.643248
 C    0.922061    1.318920   -1.578633
 O    1.840365    0.887071   -2.266522
 C   -4.297161   -0.163224    0.246689
 C   -4.193921   -1.406636   -0.390281
 C   -5.549681    0.451566    0.343415
 C   -5.323901   -2.015905   -0.924380
 C   -6.677886   -0.163746   -0.186737
 C   -6.566964   -1.397044   -0.823657
 C   -0.658761    1.662755    1.620138
 C   -0.879687    0.295284    1.791273
 C   -1.688605    2.453616    1.100484
 C   -2.073189   -0.282700    1.389030
 C   -2.879667    1.869273    0.679452
 C   -3.079388    0.485213    0.787630
 C    0.703137    2.236981    1.866745
 C    2.246919    3.423647   -1.243704
 S    2.703068    4.742487   -0.058708
 N   -0.305253    0.778937   -1.517013
 C   -0.603526   -0.520616   -2.110641
 C    0.009766   -1.623993   -1.236953
 O   -0.645302   -2.274928   -0.437890
 N    1.352262   -1.757301   -1.379286
 C    2.123719   -2.564753   -0.467488
 C    3.567319   -2.748312   -1.005057
 C    4.383901   -1.450531   -0.974231
 C    4.305491   -3.878698   -0.285729
 C    2.127526   -1.936318    0.922450
 O    2.061828   -0.736610    1.157730
 O    2.261133   -2.842751    1.867854
 C    2.352222   -2.382041    3.222818
 H    2.532430    2.400360    0.916475
 H    1.794781    0.930365    0.644323
 H    0.257217    3.070870   -0.459203
 H   -3.223346   -1.890104   -0.480270
 H   -5.650279    1.401877    0.860601
 H   -5.232016   -2.976786   -1.420874
 H   -7.646652    0.316791   -0.094390
 H   -7.448598   -1.875292   -1.238419
 H   -0.095131   -0.329582    2.204038
 H   -1.555867    3.528731    0.999967
 H   -2.216183   -1.348949    1.515977
 H   -3.650175    2.490505    0.233201
 H    0.689050    3.322184    1.993782
 H    1.195612    1.783294    2.729822
 H    1.846346    3.858587   -2.161511
 H    3.119988    2.825378   -1.511817
 H    3.986942    4.857505   -0.428219
 H   -0.991257    1.168831   -0.881456
 H   -1.685421   -0.648267   -2.132593
 H   -0.211632   -0.546925   -3.130683
 H    1.833390   -1.101852   -1.984128
 H    1.647518   -3.544381   -0.373584
 H    3.429504   -3.047435   -2.051584
 H    5.334462   -1.600146   -1.493736
 H    4.615737   -1.157671    0.056630
 H    3.872347   -0.610135   -1.456390
 H    4.490875   -3.637054    0.765713
 H    3.739903   -4.814744   -0.321593
 H    5.274109   -4.050993   -0.763848
 H    1.404107   -1.935482    3.530136
 H    3.157695   -1.652011    3.322354
 H    2.560304   -3.270444    3.815247
