75 
1c4v_ligand_ani.xyz
 N   -1.775431    2.753223   -0.040870
 C   -1.215284    3.808876    0.779000
 N    5.230448    3.188417    0.740815
 N    4.985354    1.429820   -0.714372
 C    4.443632    2.417275    0.094055
 C    0.315151    3.727096    0.831109
 C    0.798092    2.399165    1.431244
 C    2.324772    2.296580    1.471173
 C    2.927783    2.528487    0.078011
 C    2.481861    3.888121   -0.480687
 C    0.954805    3.967095   -0.544415
 C   -4.362369   -1.269102    0.063630
 N   -3.200707   -1.095108   -0.786617
 C   -2.232563   -2.039062   -1.010014
 O   -2.320754   -3.233206   -0.831355
 N   -1.132439   -1.324399   -1.495623
 C   -1.396026    0.032155   -1.443190
 O   -0.653141    0.925759   -1.810305
 N   -2.629885    0.169427   -0.862355
 C   -3.519461    1.328253   -0.964233
 C   -4.957091    0.974517   -0.717469
 C   -5.383021   -0.190865   -0.238582
 C   -3.085780    2.447292    0.016472
 C   -6.809715   -0.488438    0.110644
 O   -3.884278    2.997650    0.758718
 C    0.199496   -1.866391   -1.671802
 C    1.082724   -1.617203   -0.431535
 C    5.277829   -2.654964   -0.757304
 C    4.417913   -2.979701   -1.799624
 C    3.066088   -2.648630   -1.728840
 C    2.550878   -1.983731   -0.615902
 C    3.427380   -1.666957    0.427187
 C    4.776043   -1.995943    0.363790
 C   -0.608729   -3.556486    3.046964
 C    0.002871   -4.310302    2.048940
 C    0.548947   -3.678242    0.935454
 C    0.494387   -2.292408    0.805561
 C   -0.129374   -1.544195    1.806140
 C   -0.674975   -2.170905    2.924677
 H   -1.197437    2.307482   -0.746915
 H   -1.639599    3.717679    1.785579
 H   -1.527746    4.792524    0.399080
 H    4.688076    3.877223    1.261403
 H    4.498857    0.541873   -0.751007
 H    5.979764    1.327967   -0.555184
 H    0.652053    4.537153    1.496469
 H    0.382835    2.275100    2.440565
 H    0.408230    1.570799    0.820272
 H    2.624464    1.312013    1.853339
 H    2.735676    3.041328    2.168358
 H    2.537053    1.752087   -0.598069
 H    2.874431    4.690078    0.161464
 H    2.915337    4.043195   -1.475916
 H    0.602858    3.210228   -1.260634
 H    0.639965    4.943402   -0.935822
 H   -4.757131   -2.262106   -0.147224
 H   -4.082220   -1.240283    1.128149
 H   -3.417806    1.744374   -1.979639
 H   -5.636918    1.801695   -0.890542
 H   -7.160764   -1.385297   -0.412649
 H   -7.467218    0.343503   -0.162392
 H   -6.924905   -0.673712    1.185949
 H    0.080314   -2.934450   -1.869588
 H    0.635643   -1.373117   -2.542774
 H    1.041888   -0.533950   -0.250909
 H    6.331168   -2.914355   -0.810474
 H    4.796064   -3.495449   -2.678776
 H    2.418679   -2.918345   -2.560469
 H    3.043360   -1.162835    1.313283
 H    5.440024   -1.725270    1.182633
 H   -1.033637   -4.049185    3.918247
 H    0.056157   -5.392784    2.138090
 H    1.031807   -4.269744    0.157524
 H   -0.190681   -0.459940    1.710526
 H   -1.152221   -1.578488    3.702017
