71 
1ca8_ligand_ani.xyz
 C    4.371261    0.516477    0.653451
 C    5.682946    0.078944    0.056779
 C    6.266837   -1.128806    0.439654
 C    7.473975   -1.535706   -0.120142
 C    8.105576   -0.739020   -1.070441
 C    7.522811    0.461470   -1.465099
 C    6.314974    0.866731   -0.905388
 S    2.994539   -0.104725   -0.321233
 O    2.988665   -1.555497   -0.215309
 O    3.023183    0.565032   -1.611641
 N    1.687309    0.500886    0.525232
 C    0.867747   -0.405247    1.308039
 C    0.187724    0.351506    2.469099
 C   -1.005250   -0.430918    3.054373
 C   -0.170745   -1.175048    0.475484
 C   -0.937530   -1.910387    2.675603
 O   -0.334240   -1.054662   -0.739936
 N   -0.905363   -2.042329    1.223317
 C   -1.657213   -3.106638    0.574042
 C   -3.064475   -2.692812    0.144342
 O   -4.061503   -3.286568    0.559501
 C   -3.637797    2.580006    1.464992
 C   -3.146941    3.814878    0.703775
 N   -3.123196   -1.659931   -0.714333
 C   -4.388429   -1.083711   -1.161921
 C   -5.090870   -1.976719   -2.197211
 O   -5.795981   -3.037604   -1.613320
 C   -4.143035    0.326303   -1.692002
 C   -0.972157    3.199051   -0.269378
 N   -2.324622    3.450793   -0.456531
 C   -4.341068    1.593401    0.529758
 C   -3.470356    1.269970   -0.691266
 C   -3.058846    2.583382   -1.369591
 N   -0.266046    2.251282   -0.780645
 N   -0.341384    4.089268    0.592027
 H    4.227899    0.130535    1.668214
 H    4.265103    1.606768    0.664546
 H    5.763309   -1.763445    1.166751
 H    7.922129   -2.477115    0.187634
 H    9.050069   -1.056188   -1.507093
 H    8.009381    1.085375   -2.210621
 H    5.847362    1.794341   -1.231246
 H    1.135761    1.153774   -0.055169
 H    1.532797   -1.162642    1.736220
 H   -0.136736    1.337881    2.112475
 H    0.950471    0.523327    3.235239
 H   -1.950037   -0.023169    2.669873
 H   -1.038332   -0.330325    4.143683
 H   -0.057448   -2.390093    3.131441
 H   -1.821517   -2.446171    3.036436
 H   -1.756661   -3.957083    1.251801
 H   -1.090210   -3.425870   -0.308482
 H   -2.775469    2.089260    1.939059
 H   -4.306450    2.889467    2.276828
 H   -2.582676    4.479532    1.360312
 H   -4.007645    4.376798    0.320723
 H   -2.245915   -1.282471   -1.065039
 H   -5.060552   -1.056347   -0.294550
 H   -4.343078   -2.330184   -2.927685
 H   -5.823533   -1.373256   -2.748283
 H   -5.298787   -3.329756   -0.825882
 H   -3.521295    0.254642   -2.598935
 H   -5.102398    0.757651   -2.011586
 H   -4.585575    0.672688    1.074501
 H   -5.295443    2.023190    0.188633
 H   -2.554503    0.789942   -0.317598
 H   -3.958992    3.125310   -1.691190
 H   -2.457192    2.411079   -2.269237
 H   -0.789485    1.622980   -1.381081
 H    0.665174    3.983423    0.543801
 H   -0.624845    5.053733    0.475675
