50 
1cbr_ligand_ani.xyz
 C   21.791877   29.818814   16.985147
 C   20.661404   30.584654   16.268810
 C   20.184984   29.870910   15.008776
 C   19.637105   28.490450   15.373267
 C   20.543176   27.711439   16.293433
 C   21.497784   28.316891   17.032379
 C   22.380806   27.574587   17.952025
 C   21.967222   26.877655   19.024260
 C   22.841399   26.215812   19.998467
 C   22.275040   25.613878   21.067645
 C   22.958817   24.905553   22.133975
 C   22.301798   24.336333   23.161645
 C   22.905648   23.603716   24.278595
 C   22.064264   23.110384   25.209048
 C   22.435076   22.345065   26.413822
 C   21.900645   30.354838   18.419188
 C   23.130249   30.049712   16.264250
 C   20.266187   26.233149   16.360281
 C   24.318681   26.245089   19.740384
 C   24.405167   23.449756   24.317489
 O   23.540622   22.018661   26.792633
 O   21.330100   22.012364   27.118034
 H   19.814095   30.691127   16.962315
 H   21.013061   31.600132   16.044568
 H   19.414503   30.461500   14.500185
 H   21.017453   29.765050   14.299571
 H   18.658299   28.596744   15.866009
 H   19.447651   27.899375   14.467195
 H   23.453693   27.702623   17.785422
 H   20.899687   26.781466   19.224568
 H   21.188775   25.656860   21.156541
 H   24.045615   24.843023   22.082210
 H   21.215776   24.410889   23.192955
 H   20.998856   23.277485   25.086309
 H   22.735195   29.889580   18.951359
 H   22.053958   31.440323   18.416030
 H   20.984860   30.131360   18.977313
 H   23.939552   29.498712   16.751707
 H   23.094782   29.732127   15.215301
 H   23.393281   31.113993   16.287111
 H   21.144252   25.667186   16.681662
 H   19.446266   26.009572   17.056497
 H   19.959661   25.851699   15.379839
 H   24.889458   25.706623   20.500026
 H   24.550628   25.793209   18.770049
 H   24.688133   27.276253   19.718482
 H   24.714939   22.885698   25.195594
 H   24.756228   22.929700   23.419186
 H   24.886878   24.433710   24.339609
 H   21.647416   21.515276   27.889833
