58 
1ci7_ligand_ani.xyz
 N    4.476649   -3.013839    0.296019
 C    3.473351   -3.848565    0.711751
 N    3.880616   -5.020144    1.301358
 N    2.198431   -3.592350    0.625390
 C    1.791160   -2.395645    0.094789
 O    0.609717   -2.080083   -0.019883
 C    2.824995   -1.429539   -0.349555
 C    2.443559   -0.195636   -0.872931
 C    3.392775    0.744106   -1.246167
 C    4.750020    0.401304   -1.112586
 C    5.145040   -0.830415   -0.606490
 C    4.171921   -1.751301   -0.218229
 C    2.958769    2.118805   -1.744327
 N    2.386641    2.989150   -0.710470
 C   -1.464098    1.774594    0.524100
 C   -1.173548    1.984759   -0.825560
 C    0.075246    2.438018   -1.213887
 C    1.088486    2.680689   -0.266950
 C    0.759599    2.556122    1.093930
 C   -0.494586    2.102588    1.471441
 C   -2.769101    1.241634    1.016541
 O   -3.109852    1.353891    2.187387
 N   -3.555109    0.622902    0.087513
 C   -4.798072    0.017419    0.483035
 C   -4.682833   -1.468779    0.880033
 C   -4.174196   -2.413281   -0.223793
 C   -2.703256   -2.220744   -0.521877
 O   -1.930377   -2.830482    0.370905
 O   -2.288641   -1.567626   -1.457820
 C   -5.810196    0.176475   -0.632778
 O   -7.069565    0.077324   -0.174204
 O   -5.545523    0.324604   -1.801327
 C    3.360941    3.400774    0.287923
 C    2.995223    4.648932    0.975008
 C    2.669460    5.646187    1.564147
 H    5.434744   -3.216791    0.544809
 H    4.704627   -5.464640    0.920035
 H    3.106003   -5.656243    1.437281
 H    1.378020    0.001414   -0.964581
 H    5.518039    1.109567   -1.418580
 H    6.202136   -1.071981   -0.517992
 H    2.219078    2.004041   -2.542746
 H    3.815285    2.643230   -2.185063
 H   -1.922579    1.811445   -1.595883
 H    0.266661    2.609893   -2.270571
 H    1.476749    2.810421    1.868386
 H   -0.745575    1.987256    2.522561
 H   -3.163202    0.325037   -0.796707
 H   -5.153789    0.566073    1.358885
 H   -5.679174   -1.801646    1.188996
 H   -4.029071   -1.535467    1.755976
 H   -4.732231   -2.261033   -1.151628
 H   -4.319655   -3.446362    0.104745
 H   -0.978566   -2.651131    0.162913
 H   -7.651069    0.153422   -0.948888
 H    4.316092    3.547120   -0.225344
 H    3.533164    2.605053    1.032285
 H    2.383706    6.539269    2.076560
