58 
1ci7_ligand_dft.xyz
 N   -4.079225    3.131100    0.565601
 C   -3.011216    3.963789    0.745402
 N   -3.264417    5.125415    1.417407
 N   -1.792563    3.713475    0.357911
 C   -1.515494    2.515780   -0.261800
 O   -0.384939    2.226722   -0.639813
 C   -2.627406    1.561270   -0.480805
 C   -2.402317    0.327757   -1.088038
 C   -3.436907   -0.584700   -1.259252
 C   -4.719410   -0.226520   -0.820293
 C   -4.969933    0.998764   -0.220353
 C   -3.911352    1.890949   -0.044820
 C   -3.146528   -1.965291   -1.815003
 N   -2.631047   -2.903410   -0.805865
 C    1.199320   -1.749192    0.579423
 C    0.984461   -2.098422   -0.757452
 C   -0.268007   -2.510596   -1.182809
 C   -1.351283   -2.555889   -0.294636
 C   -1.126562   -2.232400    1.046920
 C    0.137666   -1.847379    1.474075
 C    2.522147   -1.297176    1.116648
 O    2.787491   -1.355820    2.312602
 N    3.407568   -0.824416    0.196308
 C    4.680472   -0.299384    0.616812
 C    4.652361    1.203224    0.972401
 C    4.366234    2.149784   -0.207853
 C    2.931148    2.070984   -0.693145
 O    2.138700    2.897825   -0.026009
 O    2.553073    1.317542   -1.569972
 C    5.716450   -0.593534   -0.453764
 O    6.948762   -0.216321   -0.056972
 O    5.502511   -1.080425   -1.535508
 C   -3.650323   -3.277752    0.167011
 C   -3.280923   -4.459430    0.949785
 C   -2.995471   -5.423919    1.610502
 H   -4.959851    3.340882    1.011855
 H   -4.174214    5.553977    1.336218
 H   -2.483274    5.765939    1.414031
 H   -1.388678    0.101839   -1.404849
 H   -5.542533   -0.924950   -0.952517
 H   -5.971891    1.258500    0.110429
 H   -2.413619   -1.892351   -2.621172
 H   -4.052501   -2.404967   -2.246792
 H    1.803522   -2.086858   -1.470199
 H   -0.412633   -2.812554   -2.215620
 H   -1.931964   -2.276085    1.770794
 H    0.316500   -1.601292    2.515521
 H    3.085857   -0.540211   -0.721444
 H    4.966474   -0.841606    1.523587
 H    5.622955    1.467579    1.402703
 H    3.899360    1.338736    1.754921
 H    5.022003    1.918590   -1.053364
 H    4.567311    3.175329    0.113286
 H    1.196341    2.749646   -0.303260
 H    7.544246   -0.424036   -0.794510
 H   -4.561956   -3.507480   -0.397495
 H   -3.914756   -2.453882    0.853270
 H   -2.726443   -6.280382    2.186721
