30 
1ctt_ligand_ani.xyz
 N   -1.109700   -0.031034   -0.321678
 C   -2.000112    0.979623    0.023155
 O   -1.656012    2.158142    0.105225
 N   -3.283399    0.597828    0.245753
 C   -3.804931   -0.756770    0.287765
 C   -2.820745   -1.699838   -0.335182
 C   -1.575962   -1.322591   -0.609172
 C    0.262232    0.347155   -0.632723
 C    1.048297    0.927207    0.554145
 O    0.960294    2.321628    0.651897
 C    2.489584    0.544009    0.204631
 O    3.025499    1.498598   -0.681528
 C    2.334532   -0.778464   -0.544934
 O    0.972818   -0.821096   -1.000396
 C    2.571323   -2.013756    0.313143
 O    1.671002   -2.064156    1.396864
 H   -3.884678    1.358436    0.519870
 H   -4.762525   -0.791886   -0.251440
 H   -4.025260   -1.056407    1.326145
 H   -3.133655   -2.718032   -0.536534
 H   -0.830988   -1.960296   -1.069336
 H    0.260300    1.069054   -1.462164
 H    0.728345    0.436195    1.485820
 H    0.021078    2.555045    0.503787
 H    3.114973    0.448605    1.105973
 H    2.588138    2.333246   -0.444108
 H    2.993862   -0.780702   -1.419807
 H    2.502346   -2.915951   -0.312993
 H    3.581310   -1.977051    0.736851
 H    0.784332   -2.072187    1.007948
