83 
1d4h_ligand_xtb.xyz
 C   -0.991196   -0.947716   -1.532062
 O   -0.945577   -2.355096   -1.595265
 C   -1.916628   -0.503902   -0.380879
 O   -3.091734   -1.269447   -0.541671
 C   -4.153294   -0.860971    0.302998
 C   -5.252200   -1.880643    0.193975
 C   -6.503742   -1.548479   -0.302064
 C   -7.493823   -2.511830   -0.398209
 C   -7.235463   -3.814517   -0.009134
 C   -5.984421   -4.152616    0.480738
 C   -4.997842   -3.189758    0.584832
 C   -1.252235   -0.788443    0.982063
 O   -1.366833   -1.859470    1.545086
 N   -0.555838    0.258630    1.442340
 C    0.314543    0.241474    2.596009
 C    1.670078   -0.363213    2.317741
 C    1.955188   -1.574499    1.716989
 C    3.284121   -1.925472    1.530189
 C    4.302090   -1.077684    1.934583
 C    4.012039    0.124956    2.561617
 C    2.689566    0.472251    2.758969
 C    2.132669    1.681412    3.445296
 C    0.647287    1.707180    3.030203
 O    0.416881    2.624898    1.999639
 C    0.480399   -0.498936   -1.412372
 O    1.243567   -1.184117   -2.378911
 C    0.713555    1.006283   -1.648706
 O   -0.313834    1.736848   -1.041799
 C   -0.427689    3.106281   -1.423613
 C   -1.828610    3.524026   -1.063107
 C   -2.784220    3.737919   -2.046319
 C   -4.087314    4.051463   -1.698700
 C   -4.446982    4.138705   -0.365041
 C   -3.497350    3.921642    0.620000
 C   -2.192031    3.619064    0.275430
 C    2.089953    1.349004   -1.059871
 O    2.212017    1.996045   -0.031967
 N    3.120312    0.874703   -1.765649
 C    4.482370    0.956251   -1.290934
 C    5.207087   -0.364669   -1.274804
 C    6.584511   -0.362003   -1.082548
 C    7.293274   -1.547901   -1.042534
 C    6.633395   -2.755525   -1.201529
 C    5.264247   -2.764861   -1.396267
 C    4.551263   -1.577413   -1.428681
 H   -1.409165   -0.559852   -2.475831
 H   -1.742239   -2.681471   -1.153264
 H   -2.144115    0.565181   -0.472916
 H   -4.502112    0.138737    0.000596
 H   -3.801553   -0.804676    1.343084
 H   -6.705859   -0.532736   -0.611051
 H   -8.467893   -2.244759   -0.781579
 H   -8.007819   -4.565631   -0.087488
 H   -5.780032   -5.168627    0.785217
 H   -4.020890   -3.440561    0.970139
 H   -0.499402    1.102460    0.879781
 H   -0.187341   -0.310746    3.399478
 H    1.159722   -2.240837    1.419144
 H    3.528968   -2.868550    1.065711
 H    5.330676   -1.361164    1.765253
 H    4.806773    0.777877    2.892127
 H    2.234697    1.579501    4.528048
 H    2.628843    2.603711    3.140921
 H   -0.003648    2.025356    3.849802
 H    1.078898    2.470654    1.294781
 H    0.843692   -0.770894   -0.410246
 H    0.858535   -2.072921   -2.434970
 H    0.722335    1.181237   -2.737207
 H    0.316294    3.707966   -0.886578
 H   -0.256468    3.205916   -2.503730
 H   -2.509894    3.661093   -3.089022
 H   -4.823290    4.220945   -2.471021
 H   -5.465521    4.375718   -0.094320
 H   -3.774796    3.988904    1.661556
 H   -1.447733    3.451745    1.039171
 H    2.929062    0.267652   -2.549700
 H    5.040986    1.667742   -1.912873
 H    4.433579    1.362547   -0.273988
 H    7.101313    0.579385   -0.960532
 H    8.362415   -1.530640   -0.890247
 H    7.185771   -3.682978   -1.173911
 H    4.742736   -3.702576   -1.520466
 H    3.481697   -1.606463   -1.567129
