87 
1d4i_ligand_dft.xyz
 C    5.119747   -1.919604   -0.249371
 C    5.536881   -0.988745   -1.203039
 C    6.171558    0.185690   -0.814522
 C    6.388919    0.444621    0.537424
 C    5.987105   -0.483435    1.492827
 C    5.362594   -1.663982    1.099314
 C   -4.904754   -2.159272    0.486341
 C   -5.345922   -1.886077   -0.807110
 C   -6.121325   -0.758253   -1.066618
 C   -6.474301    0.098864   -0.029501
 C   -6.054232   -0.178357    1.270440
 C   -5.270445   -1.298274    1.523782
 C   -4.016490   -3.347630    0.782621
 O   -2.668969   -2.994261    1.067419
 C    4.365826   -3.152562   -0.686007
 O    2.994647   -2.898053   -0.982806
 C   -1.818747   -2.912240   -0.059639
 C   -0.402566   -2.774316    0.511141
 C    0.711866   -3.000291   -0.496586
 O    0.605974   -2.059212   -1.558276
 C    2.117407   -2.888566    0.127084
 C    2.257117   -1.662188    1.045005
 O    2.312035   -1.807443    2.259196
 N    2.284876   -0.459828    0.433064
 C   -2.201096   -1.752346   -0.998960
 O   -2.448800   -1.934157   -2.183775
 N   -2.234073   -0.536087   -0.409047
 C   -2.439346    0.672949   -1.172173
 C   -2.573818    1.899989   -0.300667
 C   -1.894544    2.976698   -0.867095
 C   -3.247406    2.035494    0.905801
 C   -3.242153    3.274671    1.542489
 C   -2.579408    4.360814    0.969277
 C   -1.228843    1.033411   -2.096608
 O   -0.009327    0.621439   -1.504325
 C   -1.904062    4.217085   -0.241754
 C   -1.219169    2.568136   -2.152523
 C    2.266079    0.770015    1.191848
 C    2.384087    1.994661    0.314449
 C    1.567193    3.015670    0.799539
 C    3.144124    2.170834   -0.833446
 C    3.076929    3.391593   -1.502488
 C    2.268735    4.419260   -1.016272
 C    0.928577    1.022999    1.962879
 O   -0.163469    0.470389    1.271235
 C    1.513156    4.237349    0.141659
 C    0.828868    2.562188    2.034429
 H    5.357026   -1.185105   -2.257633
 H    6.492113    0.903847   -1.563602
 H    6.873555    1.366967    0.842693
 H    6.156301   -0.289921    2.547664
 H    5.027078   -2.372993    1.850909
 H   -5.050006   -2.537838   -1.623832
 H   -6.446234   -0.550364   -2.081820
 H   -7.075548    0.980568   -0.230380
 H   -6.333634    0.484919    2.084278
 H   -4.929195   -1.506509    2.535059
 H   -4.048207   -4.065271   -0.049563
 H   -4.370746   -3.859150    1.683104
 H    4.785367   -3.546689   -1.616134
 H    4.432537   -3.938223    0.078867
 H   -1.904253   -3.824361   -0.669693
 H   -0.300480   -3.522680    1.304148
 H   -0.285493   -1.792392    0.981769
 H    0.627817   -4.009471   -0.925080
 H    1.362982   -2.222097   -2.140148
 H    2.297964   -3.757554    0.773963
 H    2.109420   -0.414523   -0.559752
 H   -1.935282   -0.441161    0.554215
 H   -3.335474    0.536297   -1.791124
 H   -3.762531    1.186593    1.344410
 H   -3.756391    3.396285    2.491415
 H   -2.585628    5.323400    1.472885
 H   -1.336139    0.566410   -3.080024
 H    0.035262   -0.354095   -1.536516
 H   -1.381091    5.060162   -0.684757
 H   -1.783947    2.925127   -3.022965
 H   -0.193559    2.941695   -2.238331
 H    3.090383    0.730680    1.915865
 H    3.777313    1.369176   -1.202673
 H    3.655525    3.543634   -2.409117
 H    2.225525    5.367452   -1.544856
 H    0.942777    0.546794    2.943348
 H   -0.092679    0.726753    0.327303
 H    0.875303    5.033072    0.515478
 H    1.319591    2.941820    2.940659
 H   -0.218510    2.879423    2.058668
