51 
1d4p_ligand_xtb.xyz
 C    5.066194    1.180336   -0.054634
 C    3.686209    1.238359   -0.124984
 C    2.956083    0.056499   -0.022441
 C    3.637284   -1.177774    0.142556
 C    5.025908   -1.237046    0.197102
 C    5.722766   -0.055206    0.098095
 C    1.568381   -0.244845   -0.047181
 C    1.444683   -1.604026    0.111345
 N    2.699916   -2.153910    0.217030
 C    5.831526    2.438908   -0.161484
 N    7.077477    2.447888    0.421907
 N    5.322112    3.405165   -0.806022
 C    0.330897   -2.573042    0.044086
 O    0.565633   -3.704488   -0.369096
 N   -0.905207   -2.206851    0.446173
 C   -2.033121   -3.065155    0.154216
 C   -2.987254   -2.344950   -0.799073
 C   -3.439900   -1.009424   -0.203930
 C   -2.209243   -0.173390    0.154963
 C   -1.292104   -0.972468    1.081672
 C   -4.360708   -0.258717   -1.179424
 C   -4.970653    0.952565   -0.534341
 C   -4.455038    2.222851   -0.755435
 C   -5.004347    3.327507   -0.127949
 C   -6.078386    3.175764    0.731547
 C   -6.602247    1.913999    0.957190
 C   -6.050837    0.812395    0.328914
 H    3.204716    2.193072   -0.260234
 H    5.538449   -2.181599    0.303108
 H    6.802442   -0.083496    0.104510
 H    0.787924    0.470855   -0.209485
 H    7.552938    3.333964    0.487538
 H    7.287226    1.783006    1.146323
 H    5.901798    4.241001   -0.838332
 H   -2.549129   -3.312228    1.089259
 H   -1.648260   -3.982399   -0.294044
 H   -3.849900   -2.983304   -0.996473
 H   -2.473279   -2.165578   -1.745820
 H   -4.002580   -1.208590    0.715917
 H   -2.513299    0.752697    0.644967
 H   -1.665208    0.080147   -0.757429
 H   -0.408047   -0.404005    1.363357
 H   -1.842896   -1.224417    1.997985
 H   -5.154392   -0.937067   -1.501279
 H   -3.786543    0.034060   -2.060504
 H   -3.618986    2.349412   -1.428626
 H   -4.592968    4.309457   -0.311345
 H   -6.508111    4.037127    1.221164
 H   -7.444134    1.788987    1.622697
 H   -6.466575   -0.170104    0.504181
 H    2.847096   -3.149970    0.256871
