46 
1d5j_ligand_xtb.xyz
 C    1.428981   -1.112185   -0.216854
 C    2.312864   -1.809475    0.590097
 C    3.647812   -1.470357    0.584926
 C    4.109067   -0.427193   -0.228232
 C    3.208686    0.253837   -1.047639
 C    1.869781   -0.095512   -1.039645
 O    5.431938   -0.163584   -0.147004
 C    5.972406    0.872700   -0.936762
 S   -0.308211   -1.496558   -0.162273
 O   -0.885042   -1.421396   -1.468746
 O   -0.498914   -2.715975    0.583118
 N   -0.934162   -0.252031    0.753124
 C   -2.103491    0.515756    0.399738
 C   -1.802243    1.771793   -0.453504
 S   -0.121209    2.419345   -0.004616
 C   -0.042438    2.321321    1.815994
 C    0.534068    0.998615    2.303341
 C   -0.436307   -0.170002    2.105475
 C   -1.737357    1.496308   -1.951952
 C   -2.835706    2.854886   -0.167080
 C   -3.218928   -0.344547   -0.199257
 N   -3.268430   -1.612816    0.246897
 O   -4.284438   -2.406411   -0.290545
 O   -4.126327    0.102237   -0.882923
 H    1.938855   -2.615348    1.201357
 H    4.361949   -1.993539    1.200096
 H    3.535103    1.055326   -1.689579
 H    1.164860    0.423228   -1.667264
 H    5.527656    1.840148   -0.685929
 H    5.839281    0.673766   -2.004000
 H    7.035553    0.892672   -0.703707
 H   -2.538867    0.874048    1.346374
 H    0.612826    3.143599    2.103320
 H   -1.035758    2.508485    2.220754
 H    1.459667    0.801849    1.759310
 H    0.771359    1.076605    3.366912
 H    0.067919   -1.114249    2.319803
 H   -1.279196   -0.073071    2.800627
 H   -2.744695    1.383360   -2.343900
 H   -1.253051    2.330202   -2.456714
 H   -1.189128    0.581316   -2.154962
 H   -2.811849    3.168830    0.875707
 H   -2.638964    3.723370   -0.790658
 H   -3.828023    2.472404   -0.395425
 H   -2.477100   -2.171506    0.541734
 H   -4.770428   -1.786812   -0.876866
