14 
1d6n_ligand_ani.xyz
 O   -1.695390   -1.969561    0.000763
 C   -1.161906   -0.882150    0.000100
 C    0.233663   -0.519798   -0.000254
 N    1.346193   -1.374761   -0.000775
 N    2.404498   -0.711779   -0.000435
 C    2.105579    0.745215    0.000676
 C    0.628733    0.790748    0.000189
 N   -0.185854    1.877380    0.000102
 C   -1.445047    1.573149   -0.000290
 N   -1.938488    0.299482   -0.000395
 H    2.573492    1.192621   -0.883433
 H    2.572506    1.190658    0.886310
 H   -2.194588    2.361817   -0.000507
 H   -2.938862    0.136148   -0.000473
