40 
1d7x_ligand_ani.xyz
 C   -1.902282   -0.643759    0.049695
 C   -2.609028   -0.327603   -1.100462
 C   -3.869677    0.255088   -0.997392
 C   -4.408887    0.509819    0.264284
 C   -3.690372    0.177069    1.419354
 C   -2.438621   -0.403466    1.312152
 S   -0.302610   -1.373386   -0.072103
 O   -0.076045   -1.726237   -1.465441
 O   -0.180496   -2.383203    0.977254
 O   -5.626740    1.076642    0.474619
 C   -6.383781    1.430255   -0.661434
 N    0.709614   -0.119309    0.364508
 C    2.003438   -0.498447    0.965695
 C    2.763749    0.831943    1.054375
 C    2.115304    1.679321   -0.014532
 C    2.735954   -1.475158    0.044082
 O    3.354421   -1.106034   -0.952180
 N    2.704297   -2.778581    0.405111
 O    3.271468   -3.662816   -0.499600
 C    0.921455    0.966225   -0.599627
 N    2.446542    2.839741   -0.410110
 O    3.568710    3.288485    0.268629
 C    3.905286    4.581901   -0.201142
 H   -2.171570   -0.543809   -2.071236
 H   -4.417544    0.501176   -1.899966
 H   -4.141914    0.384893    2.384383
 H   -1.870059   -0.679635    2.196385
 H   -5.857429    2.168252   -1.281254
 H   -6.621143    0.551539   -1.275836
 H   -7.308836    1.868605   -0.284258
 H    1.818783   -0.955569    1.941599
 H    2.634469    1.296744    2.038985
 H    3.836071    0.705121    0.878989
 H    1.842746   -3.158493    0.793874
 H    3.527953   -3.070544   -1.235792
 H    0.043023    1.617820   -0.662110
 H    1.141904    0.571550   -1.599919
 H    3.092014    5.291027   -0.013394
 H    4.793111    4.874814    0.362822
 H    4.131240    4.563888   -1.272718
