50 
1d8m_ligand_ani.xyz
 C    1.131908   -1.420269   -0.804483
 C    1.876552   -0.792643   -1.800295
 C    3.156565   -0.348406   -1.520813
 C    3.704123   -0.536235   -0.245409
 C    2.953057   -1.169235    0.745880
 C    1.662406   -1.609515    0.460232
 O    4.968068   -0.066843   -0.071115
 C    5.609213   -0.361187    1.149133
 S   -0.506578   -1.994329   -1.172966
 O   -0.584717   -2.224976   -2.605958
 O   -0.828287   -3.050856   -0.220952
 N   -1.491306   -0.692142   -0.792996
 C   -2.746874   -0.934289   -0.049398
 C   -3.832795    0.078924   -0.438351
 C   -3.297782    1.500072   -0.518705
 N   -2.064244    1.583202   -1.115546
 C   -1.509944    0.415867   -1.750928
 O   -3.909939    2.471866   -0.116857
 C   -2.431085   -0.823213    1.447285
 N   -2.213279   -1.996165    2.082252
 O   -1.816290   -1.910851    3.410078
 O   -2.432174    0.240699    2.061228
 C   -1.262322    2.797392   -1.016659
 C    1.045566    2.020749    1.906316
 C   -0.103410    2.179067    1.138730
 C   -0.004170    2.594478   -0.191435
 C    1.258597    2.810060   -0.743453
 C    2.409466    2.644064    0.022677
 C    2.301293    2.254432    1.353252
 H    1.453704   -0.676258   -2.795372
 H    3.760583    0.155545   -2.268895
 H    3.363978   -1.331498    1.736694
 H    1.080433   -2.120819    1.223094
 H    6.612631    0.060270    1.074307
 H    5.678805   -1.444421    1.315660
 H    5.088058    0.093885    2.002459
 H   -3.099958   -1.946935   -0.274341
 H   -4.641737    0.067044    0.290553
 H   -4.267111   -0.196245   -1.409015
 H   -0.490635    0.650145   -2.051927
 H   -2.079004    0.126420   -2.648681
 H   -1.734123   -2.749417    1.595681
 H   -1.817695   -0.943606    3.554616
 H   -1.924516    3.544193   -0.567159
 H   -0.992958    3.147489   -2.022681
 H    0.951140    1.716169    2.946707
 H   -1.072667    1.963582    1.582263
 H    1.342882    3.113214   -1.786118
 H    3.387728    2.798763   -0.429399
 H    3.192032    2.144493    1.970205
