53 
1dbb_ligand_ani.xyz
 C    2.914823   -1.616010   -0.256842
 C    4.430794   -1.623225   -0.099886
 C    5.052827   -0.324099   -0.576063
 O    6.169947   -0.272816   -1.054461
 C    4.225826    0.888429   -0.385965
 C    2.973293    0.866588    0.091380
 C    2.260291    2.158345    0.423758
 C    0.853032    2.198788   -0.166090
 C    0.024408    0.988748    0.274008
 C    0.756023   -0.316866   -0.125279
 C    2.217334   -0.415399    0.428836
 C   -0.098356   -1.568212    0.169711
 C   -1.531347   -1.486743   -0.390401
 C   -2.243687   -0.210109    0.058231
 C   -1.363510    0.984854   -0.368001
 C   -2.280257    2.203608   -0.199683
 C   -3.700201    1.670211   -0.532788
 C   -3.550651    0.139749   -0.707681
 C   -2.506513   -0.231998    1.571144
 C    2.239124   -0.602614    1.957797
 C   -4.798581   -0.630134   -0.302755
 O   -5.705725   -0.090678    0.296680
 C   -4.875027   -2.100253   -0.657296
 H    2.668478   -1.593320   -1.327521
 H    2.507626   -2.551742    0.143223
 H    4.711147   -1.768216    0.954062
 H    4.888810   -2.442781   -0.660322
 H    4.704689    1.832144   -0.636654
 H    2.199120    2.250908    1.517874
 H    2.852033    3.011566    0.072520
 H    0.355391    3.134405    0.120179
 H    0.926965    2.201225   -1.263302
 H   -0.088953    1.034474    1.368554
 H    0.873616   -0.254174   -1.221159
 H    0.383157   -2.459121   -0.247171
 H   -0.152064   -1.732767    1.254368
 H   -2.093148   -2.376270   -0.081932
 H   -1.491049   -1.505103   -1.489517
 H   -1.197743    0.863605   -1.453856
 H   -1.985632    3.034308   -0.851197
 H   -2.242960    2.579127    0.831018
 H   -4.409041    1.879100    0.271669
 H   -4.108316    2.120030   -1.443002
 H   -3.361898   -0.090297   -1.767686
 H   -3.142136   -1.085957    1.829295
 H   -3.020219    0.669427    1.921807
 H   -1.580861   -0.327071    2.144226
 H    3.269700   -0.601701    2.328670
 H    1.777956   -1.551822    2.251937
 H    1.709143    0.207760    2.468613
 H   -5.905933   -2.446179   -0.560268
 H   -4.512940   -2.283576   -1.674980
 H   -4.246600   -2.681972    0.025991
