49 
1dbk_ligand_ani.xyz
 C    2.683919   -1.507996    0.563409
 C    3.148028   -1.536037   -0.895143
 C    3.796024   -0.221044   -1.274974
 O    4.864472   -0.155990   -1.844507
 C    2.993056    1.007713   -0.909213
 C    2.481807    0.990286    0.544179
 C    1.607763    2.222787    0.821599
 C    0.237600    2.136331    0.140065
 C   -0.509146    0.840248    0.478053
 C    0.374317   -0.407237    0.189526
 C    1.748884   -0.330534    0.924176
 C   -0.389558   -1.725275    0.449451
 C   -1.748764   -1.796679   -0.269856
 C   -2.594632   -0.571892    0.064012
 C   -1.801528    0.691020   -0.321884
 C   -2.856101    1.802523   -0.358134
 C   -4.072559    1.114996   -1.020239
 C   -3.844404   -0.386162   -0.798273
 O   -4.548571   -1.277479   -1.211057
 C   -3.067217   -0.593932    1.526824
 C    1.560440   -0.373904    2.450613
 H    2.207938   -2.457810    0.830069
 H    3.569659   -1.425428    1.207272
 H    3.864246   -2.341035   -1.081320
 H    2.289622   -1.694947   -1.562956
 H    2.145505    1.068270   -1.604159
 H    3.618637    1.887583   -1.088212
 H    3.372909    1.035766    1.187446
 H    1.471769    2.343383    1.904134
 H    2.137440    3.121140    0.480581
 H   -0.367275    3.005723    0.428754
 H    0.367027    2.207919   -0.949510
 H   -0.756884    0.869227    1.549454
 H    0.577613   -0.382111   -0.895463
 H   -0.551256   -1.855926    1.527073
 H    0.216901   -2.578008    0.128570
 H   -1.593572   -1.844016   -1.356723
 H   -2.291688   -2.707779    0.007625
 H   -1.496379    0.540266   -1.371953
 H   -3.099960    2.142120    0.656570
 H   -2.522330    2.682621   -0.918908
 H   -5.038628    1.425327   -0.604086
 H   -4.117570    1.295282   -2.100407
 H   -3.690947    0.274141    1.766344
 H   -3.674259   -1.489631    1.703280
 H   -2.229760   -0.608921    2.230591
 H    0.882076    0.399259    2.821149
 H    2.526374   -0.232056    2.949468
 H    1.168009   -1.343884    2.774686
