32 
1df8_ligand_dft.xyz
 C    2.672789    0.715834   -0.220746
 O    2.639567    1.035345    0.955693
 O    2.148390    1.446207   -1.195958
 C    3.241408   -0.596093   -0.713986
 C    2.924822   -1.770259    0.232675
 C    1.489662   -1.811331    0.786939
 C    0.393918   -1.588327   -0.261603
 C   -1.003020   -1.426109    0.342969
 S   -2.257157   -1.484700   -0.998575
 C   -3.407670   -0.437462   -0.067194
 C   -2.555000    0.588159    0.674932
 N   -2.039618    1.644004   -0.174561
 C   -0.715935    1.910016    0.073103
 O   -0.053309    2.830065   -0.399734
 N   -0.275149    0.952521    0.937439
 C   -1.237580   -0.099946    1.153968
 H    1.585039    2.170761   -0.817994
 H    4.328430   -0.487409   -0.806285
 H    2.855554   -0.778324   -1.719881
 H    3.613542   -1.743145    1.082861
 H    3.136351   -2.696388   -0.314846
 H    1.410013   -1.062370    1.580850
 H    1.331958   -2.782572    1.272356
 H    0.599829   -0.700163   -0.867322
 H    0.384387   -2.437160   -0.956893
 H   -1.202049   -2.263954    1.021133
 H   -3.983551   -1.031395    0.650482
 H   -4.108130    0.038629   -0.758098
 H   -3.116133    1.002105    1.524050
 H   -2.620558    2.362168   -0.575390
 H    0.698712    0.934871    1.217876
 H   -1.293070   -0.345963    2.217803
