55 
1dfo_ligand_ani.xyz
 N    7.177467    0.316856   -1.084562
 C    7.479955    1.540317   -0.540338
 N    8.628319    2.131259   -1.010036
 N    6.789833    2.120993    0.385644
 C    5.654958    1.504166    0.908469
 O    4.957334    2.074828    1.731714
 C    5.350592    0.139171    0.410101
 N    4.308173   -0.644249    0.939455
 C    3.729136   -1.715699    0.064747
 C    4.749745   -2.189194   -0.879025
 N    5.849455   -1.587011   -1.220562
 C    6.092103   -0.392171   -0.617180
 C    2.438031   -1.225166   -0.657352
 N    1.313811   -1.242748    0.234720
 C   -2.553217   -0.092405   -0.850020
 C   -1.551550   -0.179316   -1.813973
 C   -0.259945   -0.542760   -1.468548
 C    0.053721   -0.853089   -0.136430
 C   -0.961795   -0.781967    0.833912
 C   -2.248041   -0.408805    0.477243
 C   -3.919853    0.299273   -1.300898
 O   -4.273548    0.197116   -2.470433
 N   -4.743450    0.790675   -0.338891
 C   -6.093446    1.169773   -0.652671
 C   -7.067276   -0.023911   -0.630690
 C   -6.995708   -0.864498    0.648488
 C   -5.706795   -1.639108    0.817746
 O   -5.026988   -1.652544    1.818936
 O   -5.409909   -2.372664   -0.269276
 C   -6.524913    2.234311    0.335783
 O   -5.947848    2.489315    1.366567
 O   -7.653182    2.848063   -0.047594
 C    3.775277   -0.531102    2.203327
 O    2.861066   -1.232703    2.603643
 H    7.779288   -0.150438   -1.749113
 H    8.705348    3.088016   -0.691753
 H    8.832428    2.018214   -1.992802
 H    3.441877   -2.530613    0.741030
 H    4.512617   -3.123118   -1.381673
 H    2.259554   -1.889222   -1.512777
 H    2.629889   -0.219300   -1.058363
 H    1.509011   -1.317667    1.225216
 H   -1.803961    0.041488   -2.847192
 H    0.507702   -0.588621   -2.236510
 H   -0.733422   -1.016766    1.872324
 H   -3.019876   -0.402246    1.245923
 H   -4.394380    1.057827    0.572208
 H   -6.111367    1.595898   -1.660692
 H   -8.083164    0.364109   -0.753354
 H   -6.839018   -0.653386   -1.493960
 H   -7.807261   -1.601761    0.636315
 H   -7.129052   -0.257282    1.548410
 H   -4.586579   -2.846474   -0.064039
 H   -7.869914    3.488210    0.650844
 H    4.233741    0.244492    2.824982
