37 
1di8_ligand_xtb.xyz
 N    0.774219   -2.131836    0.040998
 C   -0.215408   -3.022592    0.026894
 N   -1.494298   -2.786809   -0.003967
 C   -1.866921   -1.486348   -0.003693
 C   -0.918690   -0.435684    0.027518
 C    0.454440   -0.848671    0.033752
 C   -3.242405   -1.185730   -0.034588
 C   -3.677778    0.112605   -0.024164
 C   -2.723170    1.177711    0.025990
 C   -1.381885    0.895802    0.047507
 N    1.438203    0.089496    0.026102
 C    2.821283   -0.043563    0.014281
 C    3.563741    1.134183   -0.043152
 C    4.949686    1.092915   -0.058051
 C    5.605684   -0.131524   -0.013798
 C    4.862722   -1.297420    0.044411
 C    3.481642   -1.269530    0.059035
 O    5.622205    2.276221   -0.116837
 O   -4.970817    0.511149   -0.055261
 C   -5.969044   -0.479342   -0.113656
 O   -3.267767    2.422744    0.047683
 C   -2.408850    3.533020    0.105499
 H    0.094882   -4.060268    0.037431
 H   -3.920114   -2.021909   -0.064318
 H   -0.675989    1.711265    0.086400
 H    1.122969    1.048236    0.001849
 H    3.079293    2.098841   -0.078699
 H    6.686590   -0.166540   -0.025226
 H    5.372583   -2.248382    0.079135
 H    2.904573   -2.175953    0.102379
 H    6.571881    2.107254   -0.122777
 H   -5.873007   -1.091217   -1.016019
 H   -5.941739   -1.127610    0.767697
 H   -6.915098    0.058754   -0.139104
 H   -1.797053    3.524015    1.014257
 H   -1.756687    3.585752   -0.773224
 H   -3.059209    4.405905    0.120883
