40 
1di9_ligand_ani.xyz
 N   -0.624041   -1.486444   -0.531528
 C    0.183002   -2.563132   -0.691225
 N    1.485526   -2.617297   -0.625655
 C    2.109037   -1.435745   -0.346369
 C    1.398544   -0.239521   -0.149589
 C   -0.030242   -0.332219   -0.310888
 C    3.521802   -1.425221   -0.251721
 C    4.202035   -0.279082    0.058776
 C    3.479153    0.938852    0.302294
 C    2.110109    0.946295    0.200801
 N   -0.767157    0.821767   -0.237848
 C   -2.160769    1.013239   -0.342169
 C   -3.078936    0.054014    0.086794
 C   -4.444617    0.319778    0.013276
 C   -4.898938    1.531347   -0.514731
 C   -3.978869    2.482380   -0.938253
 C   -2.615547    2.236418   -0.843694
 S   -5.682703   -0.837356    0.541063
 C   -4.713062   -2.070093    1.428517
 O    5.546861   -0.186061    0.168596
 C    6.286001   -1.365686   -0.059420
 O    4.245336    2.011402    0.619383
 C    3.575255    3.221467    0.894639
 H   -0.333755   -3.499197   -0.898764
 H    4.026824   -2.366848   -0.429488
 H    1.555731    1.853244    0.421761
 H   -0.226891    1.670380   -0.302114
 H   -2.700819   -0.885308    0.464304
 H   -5.965818    1.723303   -0.584504
 H   -4.326080    3.429674   -1.341379
 H   -1.902520    2.989532   -1.170781
 H   -4.054328   -2.626756    0.756721
 H   -4.125578   -1.609838    2.227433
 H   -5.431703   -2.762289    1.873747
 H    6.020579   -2.149427    0.661890
 H    6.132955   -1.742065   -1.079126
 H    7.333923   -1.093603    0.072237
 H    2.992701    3.562872    0.028992
 H    2.912610    3.123941    1.764514
 H    4.353804    3.952639    1.116725
