76 
1dmp_ligand_ani.xyz
 C    0.246072   -0.163701   -0.994957
 O    0.241921    0.012552   -2.208666
 N    1.431946   -0.129928   -0.270588
 C    2.643312    0.192770   -1.032429
 C    1.654516   -0.879405    0.971319
 C    0.931674   -0.255823    2.164416
 O    1.413915   -0.885351    3.336682
 C   -0.590774   -0.377636    2.126997
 O   -1.042418    0.184990    3.361937
 C   -1.266037    0.302048    0.935915
 N   -0.944104   -0.412379   -0.306473
 C   -2.074651   -0.708858   -1.197691
 C    3.429731    1.347183   -0.446783
 C    4.713716    1.171305    0.071406
 C    5.404882    2.256817    0.599905
 C    4.833499    3.520745    0.613339
 C    3.552169    3.715943    0.089069
 N    2.944729    4.974217    0.142030
 C    2.860903    2.619499   -0.436259
 C    1.409623   -2.397685    0.824047
 C    2.393166   -3.049803   -0.121578
 C    3.668191   -3.408368    0.326227
 C    4.595123   -3.979975   -0.540327
 C    4.264126   -4.190391   -1.876230
 C    3.002055   -3.824875   -2.337699
 C    2.073627   -3.260694   -1.466066
 C   -1.024656    1.830671    0.896292
 C   -1.986200    2.565713   -0.009171
 C   -3.181120    3.087220    0.495127
 C   -4.095775    3.718882   -0.343129
 C   -3.825749    3.846292   -1.701930
 C   -2.636000    3.339117   -2.216592
 C   -1.721881    2.706600   -1.376106
 C   -3.207244   -1.450536   -0.530897
 C   -4.512094   -0.976015   -0.644033
 C   -5.583542   -1.648326   -0.043712
 N   -6.878317   -1.130276   -0.116268
 C   -5.322628   -2.816005    0.681965
 C   -4.024046   -3.294407    0.786630
 C   -2.964973   -2.624438    0.183894
 H    3.278381   -0.699217   -1.102207
 H    2.309097    0.437816   -2.042833
 H    2.715094   -0.751386    1.198560
 H    1.199917    0.813662    2.182997
 H    0.792771   -0.625104    4.034056
 H   -0.856887   -1.445430    2.096992
 H   -1.948124   -0.112731    3.511041
 H   -2.340078    0.162561    1.088231
 H   -2.459255    0.212134   -1.655937
 H   -1.665220   -1.311066   -2.013782
 H    5.176807    0.186226    0.062723
 H    6.403980    2.116439    1.005719
 H    5.374993    4.366618    1.031675
 H    2.221924    5.113126   -0.550886
 H    3.591073    5.750827    0.159635
 H    1.867179    2.774890   -0.856548
 H    1.490901   -2.841015    1.823180
 H    0.387814   -2.569019    0.473703
 H    3.935799   -3.241178    1.369511
 H    5.578132   -4.261960   -0.170507
 H    4.986520   -4.637060   -2.554771
 H    2.737415   -3.985213   -3.379527
 H    1.091789   -2.966677   -1.834423
 H    0.007739    2.028102    0.587606
 H   -1.126680    2.191937    1.925114
 H   -3.399822    3.007374    1.559403
 H   -5.019785    4.117590    0.069459
 H   -4.537702    4.341237   -2.357808
 H   -2.415556    3.437746   -3.276320
 H   -0.810221    2.283461   -1.797058
 H   -4.708793   -0.056465   -1.193803
 H   -7.613403   -1.814078   -0.001033
 H   -7.048566   -0.535308   -0.915612
 H   -6.144822   -3.342468    1.161312
 H   -3.835580   -4.208015    1.344924
 H   -1.958053   -3.030509    0.250950
