20 
1drj_ligand_dft.xyz
 C   -1.485981   -0.489891    0.347060
 C   -0.132850   -1.166878    0.124983
 C    0.723057   -0.379213   -0.877718
 C    0.764557    1.109010   -0.488837
 C   -0.629716    1.643081   -0.205566
 O   -2.212147   -0.615186   -0.845284
 O    0.567425   -1.298153    1.348465
 O    2.042043   -0.894424   -0.881351
 O    1.549732    1.268090    0.685115
 O   -1.329604    0.849025    0.742180
 H   -1.996736   -0.967556    1.190893
 H   -0.300532   -2.181982   -0.244819
 H    0.298487   -0.482245   -1.881505
 H    1.202535    1.689925   -1.314032
 H   -1.191302    1.701810   -1.146357
 H   -0.562074    2.639842    0.233784
 H   -3.080852   -0.219828   -0.698228
 H    0.746580   -0.389414    1.650595
 H    2.116449   -1.402186   -0.056908
 H    2.393450    0.840176    0.474041
