39 
1dtt_ligand_dft.xyz
 C   -0.752189    2.356271   -0.184461
 N   -0.068435    1.324025    0.308533
 C    1.258120    1.417844    0.432399
 C    1.953772    2.555692    0.064960
 C    1.249805    3.646611   -0.447461
 C   -0.120001    3.551619   -0.575947
Cl    3.686342    2.626630    0.244900
 N   -2.127141    2.256085   -0.317584
 C   -2.999653    1.192889   -0.101079
 S   -4.607159    1.386699   -0.538447
 N   -2.483375    0.093728    0.447673
 C   -3.241016   -1.128602    0.649742
 C   -2.347080   -2.197458    1.283515
 C   -1.169911   -2.531925    0.401490
 N   -1.416085   -3.238609   -0.712744
 C   -0.398725   -3.486666   -1.528840
 C    0.911472   -3.060243   -1.314109
 C    1.181840   -2.327353   -0.161581
 C    0.104972   -2.082766    0.697542
 O    2.371047   -1.824365    0.208725
 C    3.482814   -2.014586   -0.663136
 C    4.681447   -1.350729   -0.020295
 F    0.331089   -1.358482    1.808437
 H    1.766986    0.546302    0.833684
 H    1.773111    4.550782   -0.739406
 H   -0.698062    4.379839   -0.972632
 H   -2.604252    3.051766   -0.716879
 H   -1.484056    0.110797    0.648495
 H   -3.624396   -1.483898   -0.312981
 H   -4.103972   -0.921523    1.290857
 H   -2.946617   -3.102400    1.415711
 H   -2.008507   -1.867668    2.269650
 H   -0.632186   -4.062240   -2.421530
 H    1.684334   -3.296334   -2.035216
 H    3.259172   -1.568453   -1.640922
 H    3.654695   -3.089557   -0.803746
 H    4.503612   -0.280204    0.113075
 H    4.887755   -1.796024    0.956690
 H    5.562187   -1.480018   -0.656329
