71 
1dwc_ligand_ani.xyz
 C    1.491449   -1.018450    1.866147
 C    1.953612   -0.181454    2.876119
 C    3.133505    0.535055    2.711611
 C    3.838841    0.426207    1.515236
 C    3.416840   -0.431456    0.501786
 C    4.140537   -0.490619   -0.826893
 C    3.986132   -1.846121   -1.516141
 C    2.495816   -2.197603   -1.530597
 N    1.964129   -2.217236   -0.190563
 C    2.273134   -1.236954    0.705512
 S   -0.144192   -1.686919    2.092676
 N   -1.094391   -0.300441    2.111270
 C   -2.104657   -0.106194    1.060705
 C   -2.290607    1.414886    0.892434
 O   -3.303208    1.966378    1.299249
 C   -3.421138   -0.797277    1.418374
 C   -4.412157   -0.889636    0.252808
 C   -4.234429   -2.111085   -0.659250
 N   -2.909309   -2.303306   -1.241314
 C   -2.392074   -1.512080   -2.204000
 N   -1.147454   -1.757691   -2.649918
 N   -3.117651   -0.537342   -2.788858
 C    4.568002   -1.844292   -2.926622
 O   -0.523407   -2.483849    0.919982
 O   -0.223124   -2.267028    3.422202
 N   -1.264057    2.121053    0.314145
 C   -0.172867    1.506436   -0.414534
 C    1.128999    2.277179   -0.232287
 C    0.966117    3.765314   -0.540011
 C   -0.188609    4.310718    0.303371
 C   -1.476874    3.543326    0.041931
 C   -0.500917    1.295121   -1.929217
 O   -1.548854    1.783796   -2.384598
 O    0.342341    0.591305   -2.533792
 C    2.258883    4.537051   -0.282572
 H    1.385493   -0.089441    3.797415
 H    3.487844    1.193300    3.500255
 H    4.738199    1.019642    1.366270
 H    5.202505   -0.252732   -0.688767
 H    3.735957    0.294457   -1.492357
 H    4.510234   -2.601474   -0.914824
 H    1.957537   -1.466502   -2.167389
 H    2.342879   -3.193227   -1.968095
 H    1.090391   -2.694072   -0.024678
 H   -1.486993   -0.193099    3.044125
 H   -1.705037   -0.534414    0.142322
 H   -3.877829   -0.234578    2.240015
 H   -3.187172   -1.801005    1.798292
 H   -5.433119   -0.932908    0.648705
 H   -4.361157    0.032186   -0.339429
 H   -4.981923   -2.079458   -1.460975
 H   -4.443097   -3.019667   -0.086083
 H   -2.231285   -2.744220   -0.622784
 H   -0.608583   -2.409193   -2.091780
 H   -0.601682   -0.937098   -2.943102
 H   -3.972477   -0.268625   -2.319695
 H    5.633434   -1.587370   -2.919373
 H    4.463098   -2.826731   -3.401534
 H    4.050467   -1.110827   -3.559110
 H   -0.001828    0.507468   -0.014875
 H    1.439270    2.150214    0.812857
 H    1.909261    1.821754   -0.852895
 H    0.696268    3.875129   -1.603375
 H    0.069610    4.215839    1.367495
 H   -0.340816    5.378493    0.099293
 H   -2.282312    3.875051    0.699352
 H   -1.804171    3.665935   -0.998053
 H   -2.571328    0.282924   -3.064603
 H    3.079105    4.157192   -0.901373
 H    2.558937    4.446578    0.768742
 H    2.133309    5.602677   -0.503923
