68 
1dwd_ligand_xtb.xyz
 N   -5.406839   -0.683512   -0.050562
 C   -6.367847   -0.575497    1.033077
 C   -7.154532    0.727578    0.918348
 C   -7.848006    0.795441   -0.439319
 C   -6.812338    0.639190   -1.548974
 C   -6.024006   -0.659873   -1.357604
 N   -1.888173   -1.418870   -0.365791
 C   -3.106302   -0.883364   -0.920085
 C   -4.097104   -0.773898    0.242841
 O   -3.683373   -0.764207    1.390118
 C   -2.859687    0.512964   -1.570215
 C   -1.678838    1.198067   -0.939493
 C   -0.467139    1.258687   -1.617346
 C   -1.754776    1.724049    0.346122
 C    0.645040    1.828880   -1.023016
 C   -0.643455    2.282959    0.948472
 C    0.570799    2.341695    0.270145
 N    0.564536   -1.047874    0.683567
 C    0.411617   -2.085964   -0.307379
 C   -0.865707   -1.849033   -1.117182
 O   -0.924667   -2.027037   -2.316097
 S    1.764456   -1.251902    1.819304
 O    1.615370   -2.557596    2.381022
 O    1.672641   -0.103542    2.680060
 C    3.901526   -2.338095    0.458166
 C    3.270995   -1.157800    0.866126
 C    3.723059    0.069608    0.483973
 C    4.858549    0.178516   -0.343907
 C    5.510632   -1.012231   -0.766723
 C    5.007648   -2.262902   -0.343006
 C    5.352693    1.431599   -0.764200
 C    6.453472    1.500056   -1.571938
 C    7.103153    0.326706   -1.989884
 C    6.644595   -0.900541   -1.598362
 C    1.770864    2.957636    0.899881
 N    1.894266    2.748125    2.239602
 N    2.630545    3.679577    0.292816
 H   -5.814262   -0.620054    1.971668
 H   -7.052823   -1.429597    0.980342
 H   -7.886092    0.780080    1.724928
 H   -6.469820    1.571198    1.024445
 H   -8.584299   -0.008237   -0.513030
 H   -8.374304    1.744669   -0.548748
 H   -7.297012    0.622849   -2.525822
 H   -6.125214    1.487694   -1.525832
 H   -5.278093   -0.759947   -2.142637
 H   -6.714817   -1.510167   -1.426094
 H   -1.762215   -1.256752    0.628192
 H   -3.461023   -1.585348   -1.680666
 H   -3.753892    1.128068   -1.457165
 H   -2.663127    0.370768   -2.633386
 H   -0.389703    0.845923   -2.612501
 H   -2.687225    1.679229    0.888166
 H    1.584390    1.860722   -1.559701
 H   -0.711718    2.687463    1.946207
 H    0.592681   -0.114256    0.297208
 H    0.344168   -3.031225    0.237114
 H    1.255871   -2.140970   -1.009057
 H    3.498630   -3.277309    0.802263
 H    3.221275    0.960818    0.822909
 H    5.512155   -3.161729   -0.666057
 H    4.841714    2.325072   -0.434103
 H    6.833033    2.457810   -1.894663
 H    7.972153    0.402811   -2.626697
 H    7.143624   -1.803178   -1.920096
 H    1.570269    1.865181    2.615240
 H    2.751449    3.100463    2.637965
 H    2.403368    3.868721   -0.678611
