31 
1dzj_ligand_ani.xyz
 C   -4.322031   -0.276778   -0.192538
 C   -3.497241   -1.425730    0.386571
 C   -2.018102   -1.088449    0.578945
 C   -1.257884   -0.833516   -0.728657
 C    0.136236    2.739032    1.406719
 C   -0.617738    2.526157    0.098171
 C    0.263804    1.936922   -1.017616
 N    0.972774   -1.629623   -0.023425
 C    2.205292   -1.262325    0.129985
 N    3.216489   -2.109770    0.528518
 S    2.538096    0.397209   -0.274521
 C    0.851034    0.607480   -0.664350
 C    0.198483   -0.577597   -0.489571
 H   -4.239955    0.619870    0.433340
 H   -3.994556   -0.008164   -1.202548
 H   -5.382741   -0.542726   -0.252182
 H   -3.586374   -2.306697   -0.264307
 H   -3.920919   -1.719041    1.355265
 H   -1.508754   -1.901563    1.108030
 H   -1.923571   -0.199459    1.221271
 H   -1.703754    0.004937   -1.279452
 H   -1.347767   -1.716414   -1.373620
 H    0.518179    1.788754    1.797247
 H    0.993163    3.408680    1.266404
 H   -0.513712    3.179957    2.170032
 H   -1.034797    3.476817   -0.254315
 H   -1.472923    1.861580    0.275080
 H    1.066343    2.641745   -1.262137
 H   -0.340380    1.826028   -1.929525
 H    2.857370   -2.971659    0.916821
 H    3.949647   -1.693421    1.085316
