31 
1dzj_ligand_dft.xyz
 C   -4.266794   -0.356475   -0.182948
 C   -3.438226   -1.504262    0.395959
 C   -1.956721   -1.166082    0.580627
 C   -1.208170   -0.911005   -0.735607
 C   -0.078951    2.749003    1.386195
 C   -0.748044    2.519825    0.033801
 C    0.199585    1.932441   -1.026385
 N    1.061404   -1.631601   -0.063417
 C    2.268502   -1.204265    0.132672
 N    3.319959   -2.018432    0.497157
 S    2.515098    0.495577   -0.202890
 C    0.820900    0.619722   -0.634148
 C    0.241639   -0.604258   -0.502803
 H   -4.165012    0.546311    0.431697
 H   -3.955403   -0.102149   -1.201757
 H   -5.329678   -0.616633   -0.221041
 H   -3.531263   -2.387305   -0.250457
 H   -3.856002   -1.790668    1.369036
 H   -1.451746   -1.985687    1.104696
 H   -1.861173   -0.280010    1.224048
 H   -1.672550   -0.085137   -1.284903
 H   -1.285089   -1.803380   -1.369676
 H    0.272423    1.803859    1.813414
 H    0.787356    3.414429    1.290564
 H   -0.775706    3.203865    2.097567
 H   -1.148353    3.466716   -0.349695
 H   -1.606220    1.848258    0.159757
 H    0.989745    2.661870   -1.241560
 H   -0.351248    1.800206   -1.966053
 H    3.003640   -2.920024    0.829748
 H    4.022840   -1.601379    1.090507
