26 
1dzk_ligand_ani.xyz
 N    0.542266   -1.806326   -0.498730
 C    0.158332   -0.540464   -0.507856
 C    1.066928    0.467782   -0.104953
 N    2.299178    0.219110    0.282920
 C    2.665035   -1.074237    0.283084
 C    1.799282   -2.074172   -0.104257
 C   -1.241927   -0.190495   -0.927393
 C   -2.174976    0.138432    0.250067
 C   -3.544534    0.563326   -0.279942
 C   -2.309695   -1.044641    1.208085
 O    0.606600    1.732169   -0.141410
 C    1.515321    2.760248    0.239281
 H    3.679417   -1.299361    0.601973
 H    2.102556   -3.118111   -0.104391
 H   -1.638227   -1.047538   -1.483347
 H   -1.212434    0.673186   -1.601591
 H   -1.736053    0.983815    0.794000
 H   -3.464147    1.435260   -0.939417
 H   -4.008732   -0.250032   -0.853442
 H   -4.223679    0.823293    0.540166
 H   -2.661322   -1.936838    0.672882
 H   -1.353676   -1.296353    1.678605
 H   -3.031085   -0.822682    2.003010
 H    1.850542    2.618542    1.271120
 H    2.393640    2.763442   -0.413180
 H    0.957685    3.691865    0.138859
