26 
1dzk_ligand_dft.xyz
 N    0.539535   -1.807334   -0.502317
 C    0.153982   -0.541027   -0.516009
 C    1.066597    0.469246   -0.112454
 N    2.296522    0.212227    0.282424
 C    2.659763   -1.080345    0.289998
 C    1.792265   -2.079835   -0.098979
 C   -1.249314   -0.203947   -0.933101
 C   -2.178795    0.140798    0.249529
 C   -3.543637    0.588525   -0.276665
 C   -2.324101   -1.038908    1.212693
 O    0.624397    1.737479   -0.152025
 C    1.540068    2.749195    0.246295
 H    3.672553   -1.300820    0.616269
 H    2.091753   -3.123663   -0.094588
 H   -1.651641   -1.068826   -1.472172
 H   -1.226266    0.647462   -1.623448
 H   -1.728673    0.981967    0.791976
 H   -3.450860    1.456355   -0.939092
 H   -4.024645   -0.218578   -0.843385
 H   -4.211909    0.861732    0.547343
 H   -2.758578   -1.905676    0.699688
 H   -1.358583   -1.349868    1.623907
 H   -2.980636   -0.777373    2.049926
 H    1.857774    2.603283    1.282638
 H    2.425937    2.749853   -0.395183
 H    0.995237    3.687861    0.143735
