28 
1dzm_ligand_ani.xyz
 C   -0.703923    0.956410    1.050128
 O   -0.039561    1.630193   -0.032227
 C    1.318671    1.655097   -0.100927
 O    1.904116    2.703875   -0.176384
 C    1.997350    0.318842   -0.132962
 C    3.359054    0.288261    0.167130
 C    1.344203   -0.859813   -0.500999
 C    4.053345   -0.915716    0.146805
 C    2.042131   -2.062078   -0.531550
 C    3.394768   -2.093455   -0.199041
 C   -1.941876    0.285808    0.511946
 C   -2.404727   -0.910907    1.055034
 C   -2.653252    0.885796   -0.526731
 C   -3.563690   -1.508003    0.565060
 C   -3.812504    0.291691   -1.015695
 C   -4.269350   -0.906572   -0.472247
 H   -0.045418    0.229133    1.536766
 H   -0.966305    1.719184    1.796128
 H    3.857506    1.221088    0.416274
 H    0.292411   -0.836765   -0.773927
 H    5.111290   -0.934834    0.395646
 H    1.524464   -2.976396   -0.808271
 H    3.937789   -3.034989   -0.217357
 H   -1.853461   -1.381214    1.867336
 H   -2.285469    1.816504   -0.949489
 H   -3.915277   -2.443362    0.994162
 H   -4.360126    0.765896   -1.827342
 H   -5.175052   -1.368956   -0.856746
