33 
1e00_ligand_dft.xyz
 C    2.987251    1.973261    0.107175
 C    3.025474    0.607397   -0.576778
 C    2.619537   -0.569891    0.324638
 C    1.249979   -0.379178    1.001392
 C    0.070414   -0.162757    0.050884
 C   -1.241304    0.052477    0.804528
 C   -2.506188    0.053024   -0.074596
 C   -3.744657    0.273269    0.800284
 C   -2.437684    1.112288   -1.171332
 C    2.689608   -1.886388   -0.455236
 O   -2.624697   -1.191270   -0.765908
 H    1.964115    2.265687    0.368069
 H    3.577135    1.968458    1.031563
 H    3.395010    2.750549   -0.547198
 H    4.041328    0.418508   -0.947646
 H    2.381838    0.625471   -1.466804
 H    3.361716   -0.626189    1.135069
 H    1.305928    0.469755    1.696252
 H    1.047196   -1.261303    1.625284
 H   -0.048031   -1.020903   -0.620402
 H    0.268759    0.707641   -0.586484
 H   -1.356813   -0.741131    1.559995
 H   -1.196555    0.996064    1.365746
 H   -4.651738    0.213756    0.190927
 H   -3.807335   -0.490831    1.585775
 H   -3.715876    1.252245    1.290720
 H   -2.267065    2.104349   -0.740313
 H   -3.376473    1.131322   -1.733252
 H   -1.629505    0.888438   -1.872550
 H    1.991253   -1.887426   -1.300019
 H    2.441089   -2.740499    0.185006
 H    3.694868   -2.049397   -0.859746
 H   -2.697856   -1.885423   -0.098490
