34 
1e02_ligand_ani.xyz
 C    2.715445    2.608314    0.010833
 C    3.756919    1.521677   -0.254906
 C    3.149361    0.132558   -0.470255
 C    2.425407   -0.422382    0.757319
 C    1.904585   -1.852962    0.579300
 C    0.937997   -2.047569   -0.598442
 C   -0.235860   -1.062800   -0.648446
 C   -1.130323   -1.093628    0.591177
 C   -2.233459   -0.035420    0.594272
 C   -3.253288   -0.207214   -0.528689
 C   -4.401786    0.766064   -0.429417
 O   -4.535539    1.573251    0.459901
 H    1.977077    2.647776   -0.799132
 H    2.172741    2.426469    0.944575
 H    3.181335    3.596149    0.087630
 H    4.467889    1.482179    0.582276
 H    4.343285    1.793026   -1.141742
 H    3.942098   -0.570209   -0.763068
 H    2.452873    0.178481   -1.319037
 H    1.585534    0.235496    1.019584
 H    3.108597   -0.395810    1.617081
 H    1.417694   -2.169958    1.511292
 H    2.758583   -2.531775    0.444851
 H    0.544162   -3.073172   -0.563073
 H    1.497492   -1.976143   -1.540697
 H   -0.834897   -1.283645   -1.540793
 H    0.147872   -0.042045   -0.790283
 H   -0.515472   -0.952994    1.489191
 H   -1.580942   -2.093054    0.687164
 H   -1.791454    0.966579    0.522319
 H   -2.765631   -0.058608    1.551647
 H   -3.680610   -1.221355   -0.524719
 H   -2.802557   -0.082307   -1.523588
 H   -5.151345    0.699090   -1.247168
