25 
1e06_ligand_xtb.xyz
 C   -0.596147   -0.050501   -0.010130
 C    0.024070   -1.291115    0.001396
 C    1.400171   -1.416029    0.009061
 C    2.209967   -0.288053    0.005927
 C    1.602365    0.957137   -0.006218
 C    0.219039    1.083845   -0.013905
 C   -2.099097    0.088661   -0.009856
 C    3.702930   -0.420755    0.007738
 O   -0.367398    2.318563   -0.024436
 C   -2.712330   -0.578887   -1.241992
 C   -2.693383   -0.492670    1.274596
 H   -0.583645   -2.183473    0.005864
 H    1.852478   -2.396989    0.018095
 H    2.212919    1.852545   -0.008580
 H   -2.332535    1.156186   -0.044771
 H    4.026893   -1.062295    0.825699
 H    4.041656   -0.873469   -0.923871
 H    4.182610    0.549048    0.113835
 H    0.319755    2.995145   -0.026516
 H   -2.528875   -1.650654   -1.235522
 H   -3.787762   -0.415471   -1.260081
 H   -2.283593   -0.162801   -2.150893
 H   -3.768671   -0.329472    1.298701
 H   -2.506247   -1.562037    1.338020
 H   -2.251309   -0.014564    2.145799
