35 
1e1x_ligand_xtb.xyz
 N   -1.432221    1.439167   -0.065797
 C   -1.125423    0.165366    0.071875
 O    0.133739   -0.198114    0.184193
 C    1.117902    0.828672    0.147045
 C    2.486446    0.184233    0.354255
 C    2.829737   -0.747908   -0.808154
 C    4.192786   -1.397242   -0.590429
 C    5.272926   -0.331552   -0.431305
 C    4.932130    0.601664    0.726314
 C    3.569028    1.252525    0.507587
 C   -2.126489   -0.853821    0.107741
 N   -1.738605   -2.136064    0.233966
 O   -2.611313   -3.038444    0.268226
 C   -3.482705   -0.379385   -0.008391
 N   -4.476826   -1.258777    0.021195
 N   -3.761698    0.917356   -0.145520
 C   -2.735740    1.756301   -0.168828
 N   -3.011935    3.060775   -0.308131
 H    0.901326    1.561935    0.932519
 H    1.064131    1.344550   -0.818739
 H    2.436378   -0.409499    1.272497
 H    2.846561   -0.172573   -1.737344
 H    2.057062   -1.512460   -0.895418
 H    4.431788   -2.046315   -1.434937
 H    4.159420   -2.016753    0.308239
 H    5.348217    0.249128   -1.353656
 H    6.240952   -0.804363   -0.253925
 H    5.698743    1.373346    0.822344
 H    4.913566    0.030641    1.657133
 H    3.330733    1.907295    1.348772
 H    3.599942    1.866287   -0.395935
 H   -4.189554   -2.240615    0.119995
 H   -5.427233   -0.942361   -0.067279
 H   -2.257507    3.721546   -0.331300
 H   -3.968512    3.352345   -0.388582
