35 
1e1x_ligand_dft.xyz
 N   -1.452556    1.473646   -0.024888
 C   -1.134926    0.204011    0.127494
 O    0.129891   -0.135089    0.290519
 C    1.125135    0.895056    0.250370
 C    2.479464    0.224692    0.402806
 C    2.746163   -0.787551   -0.718717
 C    4.130175   -1.426592   -0.580032
 C    5.233407   -0.366217   -0.526570
 C    4.971718    0.646642    0.591747
 C    3.586936    1.286018    0.453165
 C   -2.096590   -0.848445    0.127982
 N   -1.636771   -2.136889    0.274740
 O   -2.483310   -3.044303    0.273688
 C   -3.455895   -0.425805   -0.042177
 N   -4.445933   -1.320399   -0.054805
 N   -3.784406    0.864595   -0.195297
 C   -2.772125    1.732344   -0.180226
 N   -3.088489    3.032296   -0.336388
 H    0.933099    1.611983    1.055768
 H    1.049140    1.430816   -0.703017
 H    2.477063   -0.316397    1.360346
 H    2.682162   -0.266117   -1.686332
 H    1.965459   -1.554429   -0.716506
 H    4.307496   -2.119444   -1.410389
 H    4.159142   -2.025581    0.341023
 H    5.272272    0.162916   -1.489550
 H    6.212026   -0.839736   -0.386564
 H    5.744381    1.424051    0.591889
 H    5.035705    0.136603    1.563145
 H    3.407218    1.981978    1.282489
 H    3.555653    1.880685   -0.472298
 H   -4.197483   -2.298209    0.054123
 H   -5.390092   -0.992285   -0.184493
 H   -2.358347    3.723826   -0.333336
 H   -4.051238    3.296826   -0.458540
