34 
1e2k_ligand_ani.xyz
 O    2.851244    2.281085    0.094496
 O    3.500295   -1.013668   -1.636235
 O    0.120848    1.554723   -0.240549
 O   -4.403385    1.431009   -0.269411
 N   -0.877331   -0.487505    0.130837
 N   -2.132623    1.423137   -0.244435
 C    2.591361   -0.103457    0.467558
 C    2.388721   -0.384094   -1.015589
 C    1.181706   -1.334156   -1.090861
 C    0.397305   -1.210570    0.238904
 C    1.367494   -0.569216    1.216045
 C    2.674913   -1.288388    1.377835
 C    3.285314    1.179218    0.849722
 C   -0.884051    0.869335   -0.125276
 C   -3.372439    0.796572   -0.145038
 C   -3.282621   -0.641939    0.112073
 C   -2.063378   -1.193730    0.229099
 C   -4.565867   -1.401444    0.229223
 H    1.879910    2.255559    0.091524
 H    4.247458   -0.405324   -1.566140
 H   -2.144712    2.418390   -0.424476
 H    2.157188    0.566037   -1.518055
 H    0.547997   -1.135386   -1.959092
 H    1.577303   -2.348165   -1.191661
 H    0.118866   -2.206948    0.598056
 H    0.981406   -0.002113    2.059581
 H    3.206636   -1.163015    2.318927
 H    2.797731   -2.276278    0.936036
 H    3.144116    1.348672    1.931956
 H    4.367883    1.091720    0.680392
 H   -1.945898   -2.258487    0.415728
 H   -5.161330   -1.298437   -0.683753
 H   -5.179379   -1.002774    1.043887
 H   -4.388255   -2.466861    0.413690
