40 
1e34_ligand_ani.xyz
 C    1.451820   -1.906548   -1.013958
 C    2.337898   -1.416548    0.106287
 C    2.350767    0.122868    0.206807
 C    3.242537    0.557067    1.350285
 C    3.733299   -2.055230   -0.080113
 C    4.512655   -1.526906   -1.282253
 O    1.282551   -1.317692   -2.060673
 O    3.721541    1.806170    1.175037
 O    3.476510   -0.087684    2.345259
 C    0.955166    0.740701    0.468495
 N    0.263082    1.091730   -0.763944
 O   -1.547554    2.218049   -2.037829
 O   -1.098959    2.839357    0.385954
 S   -1.202198    1.855019   -0.676207
 C   -2.339149    0.605504   -0.140490
 C   -2.911833   -0.239078   -1.086408
 C   -2.641969    0.472724    1.209952
 C   -3.776843   -1.240723   -0.666764
 C   -3.512139   -0.534716    1.613809
 C   -4.087870   -1.406487    0.687467
 C   -5.028501   -2.499672    1.130732
 H    0.966758   -2.894215   -0.857006
 H    1.925075   -1.804524    1.047136
 H    2.737455    0.556235   -0.722131
 H    3.593946   -3.139661   -0.180978
 H    4.314965   -1.904546    0.834666
 H    4.779391   -0.471569   -1.157571
 H    5.445211   -2.086639   -1.401539
 H    3.935819   -1.621923   -2.207612
 H    4.239150    2.009383    1.972188
 H    0.351904    0.051782    1.080868
 H    1.057554    1.664141    1.045807
 H    0.356376    0.473935   -1.563802
 H   -2.685978   -0.099033   -2.140445
 H   -2.207446    1.159263    1.931479
 H   -4.224178   -1.907380   -1.400680
 H   -3.750080   -0.645700    2.669177
 H   -4.656863   -3.487250    0.834173
 H   -6.020412   -2.375733    0.680964
 H   -5.152792   -2.502317    2.217166
