45 
1e3g_ligand_xtb.xyz
 C    2.754157   -1.630551    0.243080
 C    3.971533   -1.513636   -0.669014
 C    4.816114   -0.310285   -0.308314
 C    4.035997    0.871273    0.014787
 C    2.697377    0.863255    0.204569
 C    1.959587    2.153825    0.400396
 C    0.601881    2.064647   -0.283312
 C   -0.198355    0.948710    0.378022
 C    0.579025   -0.353093    0.388275
 C    1.933808   -0.364249    0.259867
 C   -0.203152   -1.563963    0.539482
 C   -1.541138   -1.609974    0.548072
 C   -2.355018   -0.364172    0.440232
 C   -1.524950    0.678466   -0.321121
 C   -2.509538    1.818283   -0.561233
 C   -3.839298    1.088199   -0.827027
 C   -3.661033   -0.394495   -0.412822
 C   -2.714356    0.056563    1.876652
 C   -3.529494   -1.308974   -1.634855
 O    6.030246   -0.322601   -0.349295
 O   -4.805552   -0.771927    0.324978
 H    3.096799   -1.833275    1.264098
 H    2.160915   -2.482236   -0.086383
 H    3.644264   -1.379696   -1.704778
 H    4.580895   -2.417286   -0.622003
 H    4.584752    1.801547    0.066507
 H    1.811933    2.326469    1.471481
 H    2.546220    2.984780    0.006369
 H    0.067557    3.011459   -0.196144
 H    0.739353    1.845562   -1.344710
 H   -0.388090    1.247198    1.416153
 H    0.337616   -2.488224    0.675009
 H   -2.049921   -2.549166    0.716451
 H   -1.277242    0.245041   -1.297448
 H   -2.217786    2.438095   -1.407694
 H   -2.578454    2.460658    0.316408
 H   -4.655310    1.506176   -0.239921
 H   -4.119813    1.149509   -1.877126
 H   -3.229360    1.011158    1.886654
 H   -1.825551    0.115842    2.499157
 H   -3.379568   -0.684456    2.313790
 H   -3.361724   -2.339982   -1.326570
 H   -2.706964   -1.004822   -2.274354
 H   -4.452424   -1.267785   -2.210116
 H   -4.764520   -1.719313    0.495301
