68 
1e3v_ligand_ani.xyz
 C    5.471331   -0.827421   -0.903854
 C    4.721464    0.484428   -1.062778
 C    4.259993    1.074725    0.280449
 C    3.401676    0.078889    1.121415
 C    4.185342   -1.253084    1.213165
 C    4.621855   -1.834157   -0.131600
 C    3.529213    2.410663    0.072841
 C    2.149056    2.222709   -0.565132
 C    1.270025    1.241610    0.220618
 C    2.002326   -0.105324    0.457638
 C   -0.043366    0.944353   -0.504028
 C   -1.006556    0.011618    0.275157
 C   -0.270665   -1.317747    0.519611
 C    1.085214   -1.087276    1.213709
 C   -0.934505    2.105741   -0.946688
 C   -2.298607    1.430128   -1.240202
 C   -2.201745   -0.030154   -0.716834
 C    3.265540    0.618556    2.555783
 C   -3.549271   -0.561356   -0.206586
 O   -0.085781   -1.971380   -0.731460
 O    5.794426   -1.290406   -2.205689
 C   -1.449066    0.623946    1.612043
 C   -4.583841   -0.533547   -1.350894
 C   -6.022100   -0.864218   -0.926898
 C   -6.513361   -0.001899    0.211522
 O   -6.978316   -0.399115    1.252227
 O   -6.372956    1.318296   -0.052207
 C   -3.426455   -1.967325    0.392506
 H    6.395957   -0.636232   -0.331396
 H    3.863986    0.311020   -1.723107
 H    5.369137    1.200467   -1.583817
 H    5.172690    1.262523    0.869339
 H    5.087187   -1.055874    1.810665
 H    3.607542   -1.989573    1.781804
 H    3.749486   -2.099508   -0.743887
 H    5.188923   -2.761601    0.024920
 H    3.420864    2.926345    1.036069
 H    4.144850    3.067867   -0.554529
 H    2.270040    1.856249   -1.594943
 H    1.648995    3.196043   -0.646334
 H    1.046941    1.705819    1.193346
 H    2.166395   -0.542598   -0.539769
 H    0.228935    0.391746   -1.416919
 H   -0.880254   -1.960716    1.173015
 H    0.899396   -0.734913    2.234142
 H    1.578469   -2.063203    1.311474
 H   -1.034875    2.851824   -0.148227
 H   -0.532150    2.626001   -1.822842
 H   -3.117851    1.966411   -0.742712
 H   -2.528949    1.434241   -2.311860
 H   -1.884788   -0.677227   -1.546168
 H    2.796130   -0.119872    3.214878
 H    4.256039    0.837831    2.971514
 H    2.674258    1.537076    2.611698
 H   -3.911538    0.124944    0.575402
 H    0.526252   -2.702353   -0.576961
 H    6.296217   -2.109607   -2.108251
 H   -2.097982   -0.065308    2.163112
 H   -2.012980    1.553493    1.475287
 H   -0.601556    0.855453    2.262645
 H   -4.279091   -1.244969   -2.129996
 H   -4.600181    0.456569   -1.817072
 H   -6.135662   -1.905946   -0.617144
 H   -6.694459   -0.708033   -1.779634
 H   -6.722178    1.780807    0.727935
 H   -4.405670   -2.440388    0.516987
 H   -2.968761   -1.952262    1.385647
 H   -2.819743   -2.614860   -0.253074
