39 
1e55_ligand_xtb.xyz
 C    1.112755    0.943383   -0.380335
 C    2.409050    1.117417    0.425926
 C    3.376429   -0.010893    0.062667
 C    2.690307   -1.370107    0.255676
 C    1.371207   -1.394533   -0.524269
 C    0.575070   -2.676038   -0.259416
 O    0.251001    1.948291    0.027442
 O    3.035751    2.341245    0.141243
 O    4.526918    0.011878    0.869119
 O    3.504503   -2.412522   -0.202925
 O    0.538820   -0.313075   -0.140446
 O   -0.591687   -2.730900   -1.030538
 N   -2.152245    4.246467   -0.150487
 C   -1.624539    3.259822   -0.378605
 C   -1.937263    0.875418   -0.249176
 C   -2.569818    0.077379   -1.189358
 C   -2.156108    0.645015    1.104378
 C   -2.979957   -0.380616    1.514396
 C   -3.402200   -0.951728   -0.783875
 C   -3.608751   -1.191211    0.570684
 O   -4.405104   -2.192015    1.014342
 C   -0.994203    1.983499   -0.670779
 H    1.341258    1.041474   -1.466315
 H    2.150655    1.048795    1.493810
 H    3.659520    0.103638   -0.997178
 H    2.473927   -1.492008    1.329497
 H    1.597117   -1.323583   -1.599985
 H    1.187376   -3.535060   -0.535623
 H    0.337545   -2.721765    0.811986
 H    2.392312    3.047194    0.278043
 H    4.864652    0.915846    0.866407
 H    4.381897   -2.274806    0.178091
 H   -1.093329   -1.923097   -0.856105
 H   -2.414078    0.249263   -2.244736
 H   -1.662025    1.270054    1.832163
 H   -3.153142   -0.574828    2.560363
 H   -3.886927   -1.575739   -1.521974
 H   -4.755761   -2.695579    0.269319
 H   -0.808777    1.930880   -1.757724
