90 
1e5j_ligand_ani.xyz
 C    6.334255    0.278958    1.228434
 C    6.983339    0.143903   -0.152595
 C    7.715641    1.436725   -0.458408
 C    6.715033    2.579979   -0.470261
 C    5.874754    2.612083    0.811832
 C    4.616034    3.459439    0.614667
 O    7.909549   -0.915215   -0.235486
 O    8.317379    1.381103   -1.731982
 O    7.362876    3.828019   -0.575064
 O    5.390986    1.324063    1.187352
 O    3.795841    3.455236    1.751669
 C    1.970076   -1.549264   -0.875572
 C    3.137309   -2.384928   -1.430700
 O    2.813483   -3.715612   -1.756932
 C    4.237766   -2.473652   -0.366786
 O    5.527696   -2.483122   -0.971120
 C    4.129028   -1.311036    0.608307
 C    2.790177   -1.399443    1.357951
 O    1.747815   -1.845656    0.488051
 C    2.380555   -0.085904    2.028958
 O    2.338110    1.012655    1.137625
 S    5.494109   -1.231933    1.793820
 C   -3.376650    0.164322   -0.516770
 C   -2.128424    0.978456   -0.229461
 O   -2.306986    2.331754   -0.606007
 C   -0.961419    0.420464   -1.022439
 O    0.212561    1.137807   -0.666320
 C   -0.773455   -1.059159   -0.696252
 C   -2.095807   -1.845779   -0.783855
 O   -3.157929   -1.165069   -0.087403
 C   -1.996528   -3.202799   -0.092537
 O   -1.671550   -3.059590    1.271637
 S    0.437919   -1.840006   -1.797474
 C   -8.537358    0.522467    0.531092
 C   -7.803484   -0.789797    0.750886
 C   -6.310241   -0.575267    0.939392
 C   -5.737473    0.317193   -0.162502
 C   -6.587673    1.574748   -0.328955
 C   -6.172423    2.411095   -1.533276
 C  -10.710899    1.353424    0.260395
 O   -9.853323    0.232691    0.227128
 O   -8.347179   -1.423649    1.883437
 O   -5.725241   -1.859088    0.955559
 O   -4.429169    0.726969    0.208054
 O   -7.952443    1.226625   -0.549952
 O   -6.943209    3.584651   -1.623733
 H    7.105523    0.480676    1.988072
 H    6.188311    0.017758   -0.903337
 H    8.474186    1.623787    0.323436
 H    6.042429    2.413035   -1.329577
 H    6.484973    3.030405    1.628108
 H    4.908972    4.495015    0.413456
 H    4.068754    3.084640   -0.266783
 H    7.384403   -1.711838   -0.418872
 H    8.777294    0.528802   -1.770580
 H    7.908185    3.788463   -1.373169
 H    3.319659    2.605424    1.745746
 H    2.234535   -0.490103   -1.001009
 H    3.535104   -1.849457   -2.309619
 H    2.072096   -3.703016   -2.378937
 H    4.074052   -3.412108    0.172586
 H    5.589321   -3.299611   -1.488773
 H    4.155636   -0.367735    0.048871
 H    2.857483   -2.169811    2.135747
 H    3.104723    0.159215    2.812419
 H    1.402479   -0.223510    2.505763
 H    1.554293    0.920622    0.562576
 H   -3.610571    0.173521   -1.596005
 H   -1.900469    0.893266    0.845245
 H   -3.046596    2.654614   -0.073854
 H   -1.166193    0.544761   -2.096007
 H   -0.001702    2.079320   -0.763234
 H   -0.400386   -1.138084    0.331354
 H   -2.395190   -1.972411   -1.835322
 H   -2.946858   -3.743259   -0.227391
 H   -1.201872   -3.804508   -0.543785
 H   -2.331458   -2.461960    1.649339
 H   -8.478704    1.146257    1.446068
 H   -7.949463   -1.391947   -0.160423
 H   -6.147231   -0.060110    1.904492
 H   -5.726330   -0.246940   -1.107214
 H   -6.506572    2.187397    0.584289
 H   -6.265297    1.796572   -2.444678
 H   -5.124859    2.717137   -1.444592
 H  -11.726795    0.975824    0.126816
 H  -10.482156    2.067217   -0.539950
 H  -10.646099    1.875071    1.226558
 H   -7.849850   -2.246854    1.984477
 H   -4.771815   -1.760950    0.792017
 H   -7.865354    3.292505   -1.617229
