40 
1e66_ligand_dft.xyz
 N   -0.882387    1.537175    0.059944
 N    0.027312   -2.278749   -1.458374
 C   -4.128201   -0.034939    0.419706
 C   -3.126540    0.893831    0.480134
 C   -1.831301    0.570067   -0.002423
 C    0.318927    1.250548   -0.398974
 C    1.309303    2.395632   -0.354234
 C    2.765628    1.942931   -0.528043
 C    3.259371    1.236707    0.711408
 C    3.341083   -0.090084    0.838280
 C    2.939299   -1.011352   -0.292906
 C    5.132829   -1.540585    1.903827
 C    2.120864   -0.286766   -1.382952
 C    2.841193    1.015236   -1.740000
 C    0.697801   -0.015549   -0.921617
 C   -0.260329   -1.020122   -0.960597
 C   -1.590985   -0.725387   -0.524087
 C   -2.665277   -1.647708   -0.587142
 C   -3.913688   -1.319149   -0.125760
 C    3.835910   -0.746120    2.102703
Cl   -5.725603    0.362029    1.012639
 H   -0.532300   -3.038458   -1.102787
 H    1.003283   -2.524189   -1.515178
 H   -3.286017    1.886339    0.885048
 H    1.163981    2.930461    0.589395
 H    1.044398    3.100087   -1.154358
 H    3.385446    2.831221   -0.699210
 H    3.526665    1.869385    1.557496
 H    2.368019   -1.851783    0.126787
 H    3.837674   -1.453131   -0.748303
 H    5.472319   -1.975406    2.849315
 H    4.998285   -2.361854    1.191437
 H    5.927323   -0.890919    1.521622
 H    2.087259   -0.918680   -2.280445
 H    3.884321    0.798804   -1.998103
 H    2.372952    1.487248   -2.611671
 H   -2.526481   -2.626084   -1.037172
 H   -4.733773   -2.026018   -0.181681
 H    3.058971   -1.422601    2.486573
 H    3.993140    0.018963    2.871444
