25 
1e6s_ligand_xtb.xyz
 C    1.021427    0.883679    0.119841
 N    1.934568    1.774558    0.055236
 O    1.476375    3.094831   -0.169180
 C    1.512091   -0.519988    0.376605
 O    2.816993   -0.726421   -0.103628
 C    0.569037   -1.534953   -0.274570
 O    0.917490   -2.853460    0.074816
 C   -0.860445   -1.276384    0.212848
 O   -1.750089   -2.234186   -0.293240
 C   -1.308163    0.109211   -0.255313
 N   -0.309829    1.102420    0.061450
 C   -2.636024    0.510207    0.390172
 O   -3.046452    1.731464   -0.184229
 H    2.290925    3.611752   -0.191139
 H    1.496370   -0.694175    1.468744
 H    3.237869    0.143464   -0.150566
 H    0.614112   -1.415478   -1.369229
 H    1.874404   -2.928102   -0.025368
 H   -0.857189   -1.312899    1.315822
 H   -1.302441   -3.088603   -0.229266
 H   -1.474783    0.063062   -1.342896
 H   -0.585626    2.053948   -0.145584
 H   -3.362878   -0.287613    0.199538
 H   -2.494664    0.619705    1.474498
 H   -3.911343    1.967641    0.164831
