34 
1e9h_ligand_ani.xyz
 C   -3.907338    0.030857   -0.037647
 C   -3.271186   -1.208063    0.047178
 C   -3.992538   -2.388722    0.064384
 C   -5.379370   -2.310230   -0.008317
 C   -6.015512   -1.061313   -0.095787
 C   -5.298659    0.126613   -0.111784
 C   -1.806758   -0.959311    0.106284
 O   -0.936882   -1.805981    0.193645
 C   -1.682098    0.520838    0.039566
 C   -0.558068    1.343967    0.037927
 C   -0.699648    2.813031   -0.008357
 O   -1.704428    3.515965   -0.040198
 N    0.593358    3.322116   -0.012788
 N   -2.954945    1.021175   -0.035735
 C    0.850352    1.065172    0.054945
 C    1.604965   -0.118887    0.094531
 C    2.983800   -0.002368    0.075446
 C    3.644144    1.238676    0.041290
 C    2.908064    2.409172    0.012202
 C    1.525332    2.305157    0.018298
 S    3.975161   -1.469203    0.079525
 O    3.975666   -1.876373   -1.494927
 O    3.272490   -2.531260    0.775909
 O    5.331159   -1.108370    0.416549
 H   -3.479632   -3.344872    0.132606
 H   -5.975076   -3.218077    0.002117
 H   -7.100524   -1.022750   -0.152812
 H   -5.798066    1.089667   -0.180273
 H    0.781395    4.311297   -0.042841
 H   -3.104141    2.021408   -0.070434
 H    1.125621   -1.089020    0.145483
 H    4.728951    1.263499    0.043510
 H    3.398882    3.378106   -0.014436
 H    3.414214   -2.664430   -1.584444
