34 
1e9h_ligand_dft.xyz
 C   -3.910374    0.024290    0.004979
 C   -3.264462   -1.217496    0.006811
 C   -3.985287   -2.404567    0.003037
 C   -5.374368   -2.330267   -0.003409
 C   -6.009845   -1.083487   -0.005946
 C   -5.295292    0.114207   -0.001743
 C   -1.816341   -0.968455    0.012183
 O   -0.905680   -1.770341    0.003008
 C   -1.690816    0.551520    0.018572
 C   -0.576198    1.331189    0.016269
 C   -0.717047    2.810551   -0.020756
 O   -1.742819    3.479380   -0.034261
 N    0.566787    3.314655   -0.044164
 N   -2.965109    1.045796    0.011531
 C    0.855452    1.048701    0.025534
 C    1.614085   -0.112113    0.080154
 C    3.004353    0.014166    0.076258
 C    3.647244    1.248533    0.029921
 C    2.894348    2.418576   -0.012407
 C    1.514197    2.300001   -0.014412
 S    3.988284   -1.457193    0.118329
 O    3.978392   -1.925107   -1.440707
 O    3.281065   -2.488067    0.856247
 O    5.351370   -1.091007    0.426389
 H   -3.463606   -3.356407    0.005746
 H   -5.969406   -3.237107   -0.006146
 H   -7.095054   -1.043185   -0.010946
 H   -5.803034    1.072934   -0.003195
 H    0.760255    4.303673   -0.066730
 H   -3.131583    2.046612    0.001999
 H    1.135202   -1.081953    0.137383
 H    4.730663    1.287864    0.040059
 H    3.377178    3.389734   -0.038420
 H    3.398562   -2.701186   -1.500262
