58 
1eas_ligand_xtb.xyz
 C   -3.180012   -1.964787   -1.497079
 C   -2.007853   -1.421636   -0.660634
 C   -1.278135   -2.541749    0.129365
 C   -2.164654   -3.413124    1.038831
 C   -1.331087   -4.581286    1.565585
 C   -2.777208   -2.630621    2.197333
 C    1.058698   -1.969933    0.542876
 C    1.971665   -1.041302    1.376859
 C    0.760239    1.022421    1.240225
 C    0.561434    2.309085    0.624500
 C    1.477450    2.828297   -0.239332
 C    2.645695    2.095829   -0.502296
 C    2.830194    0.846461    0.030221
 C    4.082810    0.124042   -0.271933
 C    4.110647   -1.106226   -0.923114
 C    5.322531   -1.703931   -1.223495
 C    6.513745   -1.086721   -0.883744
 C    6.492976    0.141492   -0.243123
 C    5.286824    0.747125    0.054782
 C   -2.935077    5.093255    0.851170
 N   -0.230932   -1.901234    0.891688
 N    1.885088    0.315612    0.861636
 N   -0.654089    2.933608    0.954778
 N   -3.001304    3.710395    0.422277
 O   -2.472297   -0.419507    0.192927
 O    1.499164   -2.682348   -0.336261
 O   -0.042486    0.557144    2.056358
 O   -1.962575    1.942828   -1.001602
 O   -1.055824    4.211912   -1.173604
 F   -3.534714   -1.095726   -2.457419
 F   -4.283679   -2.199149   -0.781958
 F   -2.875521   -3.113091   -2.125777
 S   -1.641962    3.193599   -0.367547
 H   -1.291416   -1.017817   -1.392704
 H   -0.786828   -3.193546   -0.603511
 H   -2.971009   -3.822825    0.424929
 H   -1.945434   -5.226730    2.187737
 H   -0.499203   -4.215102    2.162620
 H   -0.930437   -5.171530    0.745168
 H   -3.466778   -3.270218    2.742839
 H   -2.005580   -2.294917    2.885433
 H   -3.320086   -1.765116    1.833096
 H    1.629790   -1.030115    2.415019
 H    3.000152   -1.394549    1.313784
 H    1.293891    3.776106   -0.717616
 H    3.398061    2.499366   -1.158729
 H    3.192139   -1.600801   -1.196414
 H    5.329913   -2.658284   -1.727410
 H    7.456065   -1.558085   -1.119387
 H    7.418202    0.630178    0.023383
 H    5.268231    1.703147    0.557349
 H   -2.858157    5.783910    0.007637
 H   -2.043398    5.191698    1.465981
 H   -3.815991    5.325545    1.445496
 H   -0.534631   -1.170739    1.533346
 H   -1.131895    2.348955    1.640311
 H   -3.828721    3.486551   -0.109906
 H   -2.404766    0.449979   -0.248488
