57 
1eat_ligand_ani.xyz
 C    3.281234   -1.618990    1.612440
 C    2.169649   -1.196916    0.656352
 C    1.461397   -2.380249   -0.030529
 C    2.352551   -3.413190   -0.743444
 C    1.454740   -4.530486   -1.289373
 C    3.218430   -2.824037   -1.858975
 C   -0.844132   -1.904627   -0.759715
 C   -1.685359   -0.895950   -1.565926
 C   -0.346431    1.119506   -1.447761
 C   -0.023139    2.329214   -0.734398
 C   -0.969596    2.893379    0.068409
 C   -2.423374    1.147284   -0.213102
 C   -3.720146    0.503718    0.119336
 C   -4.892987    1.241883   -0.052337
 C   -6.132182    0.698279    0.242004
 C   -6.233620   -0.597617    0.762900
 C   -5.057412   -1.323556    0.985382
 C   -3.822835   -0.775475    0.671694
 C    3.513693    4.298134   -0.612990
 N    0.497831   -1.810594   -0.951302
 N   -1.523257    0.489271   -1.045684
 N   -2.185163    2.333193    0.281449
 N    1.256561    2.864712   -1.031078
 N   -7.479209   -1.168245    1.005231
 O    2.674466   -0.305671   -0.295732
 O   -1.345039   -2.714060    0.012052
 O    0.369898    0.628678   -2.322630
 O    1.511920    4.312251    1.065074
 O    2.868417    2.199663    0.834935
 F    2.855577   -2.602636    2.427633
 F    3.648254   -0.578920    2.382672
 F    4.380396   -2.059137    0.981825
 S    2.257975    3.386302    0.236879
 H    1.412692   -0.695078    1.281526
 H    0.887031   -2.907422    0.739135
 H    3.012337   -3.851240    0.014759
 H    0.787995   -4.920012   -0.510497
 H    2.059769   -5.359813   -1.671112
 H    0.826726   -4.159006   -2.106386
 H    3.906362   -2.067670   -1.475801
 H    3.803326   -3.620242   -2.333483
 H    2.602194   -2.358316   -2.638365
 H   -1.359090   -0.868121   -2.605018
 H   -2.734546   -1.176186   -1.537854
 H   -0.761627    3.837946    0.560809
 H   -4.828239    2.258822   -0.431875
 H   -7.036272    1.280097    0.075052
 H   -5.113632   -2.330658    1.388529
 H   -2.924609   -1.359680    0.850728
 H    3.025958    5.063388   -1.218461
 H    4.104284    3.621997   -1.234044
 H    4.148262    4.762260    0.144602
 H    0.843724   -1.074613   -1.558934
 H    1.744867    2.223456   -1.657766
 H   -8.228118   -0.509442    1.166191
 H   -7.482133   -1.913035    1.687712
 H    2.809604    0.560894    0.131594
