63 
1eb2_ligand_ani.xyz
 C    6.181433   -1.067358    0.307088
 C   -4.805706   -0.039384   -1.630345
 N   -7.138062   -2.350205    2.177132
 C   -6.729109   -1.466565   -1.333684
 C   -0.870150    1.015915   -0.094081
 C    0.199234    0.465005   -1.051112
 C   -4.388209   -0.341378   -0.333085
 C   -5.164463   -1.170981    0.468721
 C   -6.328848   -1.753246   -0.026796
 C   -0.320442    3.360278   -0.957431
 C   -0.805848    2.534820    0.055850
 C   -7.131574   -2.678962    0.832896
 C   -3.141155    0.210468    0.282523
 C   -0.275727    4.741590   -0.778137
 C    3.044742   -1.488116   -0.544953
 C    2.475220   -0.341233   -1.375981
 C   -1.243083    4.491145    1.412517
 C   -0.729518    5.308966    0.408751
 C   -1.288531    3.112348    1.232218
 C    3.606053   -0.999602    0.806250
 C    4.948149   -0.276318    0.649021
 C    2.577350   -0.123749    1.533930
 C   -5.979813   -0.599973   -2.124115
 O   -0.111535    0.112967   -2.181519
 O   -3.016518    0.298811    1.499765
 N   -2.158786    0.575881   -0.582319
 N   -7.738284   -3.727048    0.431006
 N    1.482922    0.386199   -0.595205
 O    5.032363    0.927903    0.803600
 C    2.000258    0.968055    0.634788
 C    6.203206   -2.462517    0.237998
 C    7.381858   -3.132772   -0.077123
 C    8.547610   -2.414975   -0.328034
 C    8.532882   -1.023817   -0.255938
 C    7.358610   -0.353844    0.063784
 H   -4.236052    0.651028   -2.249662
 H   -7.108397   -1.363384    2.389217
 H   -7.827619   -2.866916    2.706508
 H   -7.649476   -1.899250   -1.722043
 H   -0.739550    0.582507    0.904732
 H   -4.834479   -1.364576    1.485503
 H    0.019449    2.926818   -1.896613
 H    0.115438    5.375390   -1.569390
 H    3.820027   -2.013757   -1.113460
 H    2.239732   -2.206413   -0.349855
 H    3.272429    0.349876   -1.683659
 H    1.978954   -0.706389   -2.276906
 H   -1.606324    4.928597    2.339139
 H   -0.691601    6.386542    0.548755
 H   -1.715029    2.474004    2.002238
 H    3.809356   -1.879934    1.432416
 H    3.030108    0.329972    2.420818
 H    1.757346   -0.768601    1.875195
 H   -6.302290   -0.372467   -3.136907
 H   -2.158542    0.267182   -1.546779
 H   -7.601117   -3.859111   -0.569968
 H    1.209123    1.524132    1.141536
 H    2.791986    1.680071    0.380998
 H    5.303712   -3.044388    0.426001
 H    7.385233   -4.218492   -0.127564
 H    9.467273   -2.937528   -0.577123
 H    9.441923   -0.458896   -0.447331
 H    7.332807    0.729950    0.132024
