88 
1eby_ligand_ani.xyz
 C   -1.417351   -1.606018    2.736326
 C   -1.813805   -0.337667    2.310778
 C   -3.091588   -0.119498    1.802325
 C   -3.986327   -1.182830    1.698510
 C   -3.585448   -2.458955    2.087617
 C   -2.307623   -2.669762    2.594000
 C   -3.335589   -2.052070   -1.569305
 C   -3.636630   -0.814775   -2.140545
 C   -4.954427   -0.446617   -2.391090
 C   -5.996476   -1.314929   -2.080041
 C   -5.708182   -2.556395   -1.522888
 C   -4.387708   -2.920349   -1.274322
 C   -1.903309   -2.444918   -1.276268
 O   -1.176392   -1.340260   -0.742851
 C   -0.027443   -0.947068   -1.480003
 C    1.180196   -1.876338   -1.300998
 C    1.254774   -2.625459    0.031107
 C    1.244966   -1.740561    1.283345
 C    2.667554   -1.229969    1.540628
 O    3.542415   -1.978380    1.970832
 N    2.899435    0.045463    1.159210
 O    0.802588   -2.540971    2.361029
 C   -0.028447   -1.849755    3.288786
 O    2.406275   -3.454651   -0.051664
 O    1.101067   -2.838396   -2.339598
 C    0.251038    0.517271   -1.110748
 O    1.371207    1.020971   -1.213036
 N   -0.840407    1.195746   -0.709941
 C   -0.857062    2.624890   -0.453660
 C   -2.278713    3.147359   -0.511308
 C   -2.738725    3.546496    0.741949
 C   -3.110326    3.190980   -1.624301
 C   -4.426906    3.619528   -1.466063
 C   -4.893126    4.007529   -0.210498
 C   -0.380836    3.083624    0.972590
 O    0.475185    2.183699    1.634185
 C   -4.052663    3.976010    0.901319
 C   -1.661205    3.383931    1.790460
 C    4.236579    0.584047    1.031037
 C    4.940935    0.237722   -0.278253
 C    5.607574    1.357035   -0.776360
 C    4.976843   -0.975688   -0.957505
 C    5.695451   -1.049850   -2.149814
 C    6.362302    0.067265   -2.649037
 C    4.219347    2.139115    1.029000
 O    2.987853    2.651599    0.521324
 C    6.324574    1.280701   -1.963882
 C    5.407165    2.548752    0.135486
 H   -1.093565    0.478576    2.346730
 H   -3.369521    0.881089    1.466521
 H   -4.984943   -1.025601    1.296349
 H   -4.271694   -3.300397    1.995752
 H   -1.986406   -3.667288    2.885547
 H   -2.833900   -0.127887   -2.400278
 H   -5.168956    0.523811   -2.834226
 H   -7.027085   -1.030268   -2.275101
 H   -6.515913   -3.243165   -1.278394
 H   -4.174579   -3.896047   -0.839524
 H   -1.395969   -2.830283   -2.172022
 H   -1.889086   -3.241749   -0.519695
 H   -0.266819   -0.969821   -2.554229
 H    2.093739   -1.276203   -1.424319
 H    0.371973   -3.268659    0.116823
 H    0.563627   -0.896647    1.139706
 H    2.176867    0.581275    0.695153
 H    0.442112   -0.900789    3.591371
 H   -0.067399   -2.501153    4.168696
 H    2.907546   -3.367818    0.780298
 H    1.785496   -3.495106   -2.140336
 H   -1.652539    0.654379   -0.442609
 H   -0.218169    3.092228   -1.214170
 H   -2.739633    2.892192   -2.603001
 H   -5.096697    3.632378   -2.323241
 H   -5.922608    4.337384   -0.094970
 H    0.141759    4.037140    0.811080
 H    1.390637    2.410500    1.379035
 H   -4.425726    4.278163    1.878179
 H   -1.893887    2.555831    2.470527
 H   -1.536057    4.274586    2.413731
 H    4.831466    0.213902    1.873395
 H    4.460228   -1.858754   -0.580804
 H    5.734810   -1.990768   -2.692063
 H    6.918475   -0.007146   -3.580584
 H    4.311160    2.533985    2.045148
 H    2.836450    2.295244   -0.372297
 H    6.849241    2.149663   -2.355722
 H    6.297715    2.723989    0.750164
 H    5.186754    3.475159   -0.403506
