88 
1ec0_ligand_xtb.xyz
 C   -1.784902    3.488273   -0.265668
 C   -2.208083    3.416193    1.056664
 C   -3.520682    3.697838    1.392846
 C   -4.433177    4.057792    0.414284
 C   -4.033649    4.138842   -0.907767
 C   -2.720283    3.847220   -1.226922
 C   -5.531395   -1.779326   -0.247097
 C   -6.789998   -1.312344   -0.596862
 C   -7.834712   -2.165659   -0.901082
 C   -7.616757   -3.531135   -0.861803
 C   -6.369276   -4.024054   -0.514616
 C   -5.338439   -3.154975   -0.207861
 C   -4.396225   -0.849541    0.074520
 O   -3.300113   -1.187282   -0.754334
 C   -2.100455   -0.539931   -0.384265
 C   -1.119178   -0.815052   -1.543010
 C    0.362542   -0.501337   -1.246405
 C    0.694804    1.001968   -1.157454
 C    2.031684    1.132023   -0.413458
 O    2.111373    1.614716    0.705059
 N    3.074164    0.637210   -1.083622
 O   -0.337798    1.668333   -0.486736
 C   -0.385279    3.084589   -0.644412
 O    1.157427   -1.033443   -2.281200
 O   -1.146012   -2.184089   -1.879049
 C   -1.555094   -1.114361    0.939711
 O   -1.774442   -2.259069    1.284659
 N   -0.837657   -0.219717    1.630450
 C   -0.056087   -0.505496    2.811843
 C    1.278354   -1.142301    2.506255
 C    2.312831   -0.465366    3.141555
 C    1.531957   -2.249052    1.718617
 C    2.848151   -2.651933    1.545516
 C    3.884906   -1.955063    2.144333
 C    0.326602    0.832359    3.528998
 O    0.197603    1.939036    2.683365
 C    3.623665   -0.860855    2.956264
 C    1.783346    0.641328    3.999963
 C    4.387735    0.546227   -0.499167
 C    5.162359   -0.663039   -0.935599
 C    6.514612   -0.346707   -1.053987
 C    4.696900   -1.929849   -1.221978
 C    5.614940   -2.897140   -1.607189
 C    6.962938   -2.593461   -1.704783
 C    5.333742    1.718598   -0.902175
 O    5.092312    2.149751   -2.215280
 C    7.424778   -1.312063   -1.434941
 C    6.740643    1.105251   -0.744352
 F   -2.342970    3.918416   -2.524485
 F   -7.017987    0.021293   -0.635712
 H   -1.495897    3.126117    1.814391
 H   -3.833718    3.632992    2.423613
 H   -5.457824    4.272462    0.676199
 H   -4.722153    4.412587   -1.691432
 H   -8.795690   -1.753363   -1.165636
 H   -8.422820   -4.207982   -1.100512
 H   -6.201501   -5.089632   -0.479808
 H   -4.364994   -3.527655    0.071338
 H   -4.118133   -0.968426    1.132116
 H   -4.681312    0.199247   -0.093129
 H   -2.267735    0.539086   -0.284548
 H   -1.444882   -0.223698   -2.414466
 H    0.633551   -0.992102   -0.299464
 H    0.803928    1.387043   -2.183583
 H    2.907357    0.181062   -1.969373
 H    0.352047    3.562944    0.011669
 H   -0.169571    3.352597   -1.685635
 H    0.732856   -1.866541   -2.538410
 H   -2.006318   -2.524180   -1.596606
 H   -0.694918    0.708508    1.242872
 H   -0.644802   -1.158143    3.467436
 H    0.720439   -2.798564    1.265993
 H    3.067098   -3.520690    0.942694
 H    4.904956   -2.272790    1.983240
 H   -0.352001    1.028308    4.364432
 H    0.900144    1.893074    2.001405
 H    4.431258   -0.329404    3.438658
 H    1.819554    0.350312    5.052121
 H    2.345421    1.568567    3.882681
 H    4.256916    0.550523    0.591117
 H    3.644377   -2.156362   -1.152014
 H    5.274489   -3.895895   -1.835679
 H    7.662840   -3.359215   -2.004322
 H    5.176990    2.600962   -0.279637
 H    5.260533    1.411201   -2.813445
 H    8.474146   -1.075055   -1.528455
 H    7.095523    1.228120    0.280676
 H    7.457207    1.579781   -1.415472
