56 
1eef_ligand_ani.xyz
 C    3.146497   -0.453594   -0.891459
 C    4.496136   -1.033928   -1.276467
 C    5.409957   -1.093582   -0.054111
 C    5.551238    0.305376    0.532289
 C    4.158593    0.879572    0.821184
 C    4.195030    2.340170    1.242034
 O    2.535350   -1.331038    0.022585
 O    4.320789   -2.316478   -1.821855
 O    6.660376   -1.631629   -0.435755
 O    6.271331    1.054850   -0.428513
 O    3.320272    0.832115   -0.345761
 O    4.684714    3.175213    0.198783
 C    1.209911   -1.143365    0.327364
 C    0.490502   -0.001588    0.015840
 C   -0.845835    0.080648    0.411941
 C   -1.451987   -0.964262    1.100754
 C   -0.719423   -2.116475    1.387453
 C    0.603315   -2.212275    1.011803
 C   -1.626069    1.296420    0.059117
 O   -1.170880    2.191870   -0.639832
 N   -2.905975    1.355391    0.545953
 N   -3.457362    0.357160    1.362895
 C   -2.860760   -0.876405    1.537658
 O   -3.467739   -1.797656    2.056295
 C   -3.824898    2.372553    0.075308
 C   -4.535539    1.967471   -1.224650
 C   -5.380726    0.728187   -1.051831
 C   -4.905047   -0.528546   -1.435539
 C   -6.635772    0.809298   -0.442160
 C   -5.668994   -1.673788   -1.230830
 C   -7.403087   -0.332846   -0.234937
 C   -6.923721   -1.578542   -0.634155
 H    2.497300   -0.355555   -1.769391
 H    4.959864   -0.350002   -2.005751
 H    4.980059   -1.772174    0.688515
 H    6.120882    0.257004    1.476698
 H    3.701853    0.287485    1.624988
 H    4.877188    2.468025    2.088092
 H    3.191569    2.658966    1.551857
 H    5.202557   -2.716292   -1.792165
 H    7.136931   -0.905763   -0.869537
 H    6.047994    1.995578   -0.301658
 H    4.133386    2.965380   -0.571187
 H    0.919743    0.839734   -0.517672
 H   -1.219630   -2.923898    1.915194
 H    1.189341   -3.099561    1.231281
 H   -4.475643    0.322850    1.326074
 H   -4.552023    2.597448    0.867410
 H   -3.230410    3.271618   -0.098779
 H   -5.160070    2.807956   -1.550704
 H   -3.774248    1.811365   -1.995588
 H   -3.912806   -0.607715   -1.878518
 H   -7.013748    1.781441   -0.126466
 H   -5.283749   -2.642674   -1.540892
 H   -8.378856   -0.248563    0.235862
 H   -7.523745   -2.471488   -0.476802
