36 
1eei_ligand_ani.xyz
 C    0.808318   -0.541703   -0.832008
 C    2.226862   -1.055491   -1.004684
 C    2.992670   -0.948468    0.312598
 C    2.971692    0.499001    0.788669
 C    1.520040    0.985885    0.867229
 C    1.402124    2.470689    1.170803
 C   -1.218667   -1.210595    0.232138
 C   -1.927577   -0.124816   -0.276157
 C   -3.289747   -0.067081   -0.026510
 C   -3.973726   -1.036632    0.689446
 C   -3.244774   -2.112794    1.181384
 C   -1.876069   -2.207459    0.961128
 N   -4.036361    1.082477   -0.562403
 O    0.135714   -1.381026    0.075595
 O    2.197108   -2.387186   -1.449987
 O    4.311953   -1.418702    0.120152
 O    3.747629    1.224712   -0.146473
 O    0.839354    0.791813   -0.383692
 O    1.961095    3.265524    0.131202
 O   -3.412026    1.924470   -1.184875
 O   -5.236762    1.124469   -0.351358
 H    0.268714   -0.557708   -1.786641
 H    2.731273   -0.401682   -1.734781
 H    2.525370   -1.597670    1.059067
 H    3.428072    0.567057    1.791567
 H    1.008271    0.419236    1.655972
 H    1.960110    2.712007    2.080744
 H    0.346361    2.728072    1.328632
 H   -1.468075    0.669734   -0.847165
 H   -5.040878   -0.939623    0.848000
 H   -3.754411   -2.888794    1.745078
 H   -1.304132   -3.047532    1.343316
 H    3.094128   -2.716938   -1.292536
 H    4.786471   -0.696092   -0.321242
 H    3.450993    2.153315   -0.122249
 H    1.522868    2.963466   -0.679668
