36 
1efi_ligand_ani.xyz
 C   -0.477135   -0.495383    0.863946
 C   -1.738307   -1.337341    0.779978
 C   -2.392071   -1.173590   -0.589926
 C   -2.689579    0.301792   -0.824158
 C   -1.402507    1.116998   -0.644748
 C   -1.643315    2.617560   -0.689413
 C    1.745459   -0.540811   -0.027488
 C    2.190493    0.537843    0.732414
 C    3.533515    0.899215    0.699594
 C    4.455303    0.203726   -0.085982
 C    3.990736   -0.874623   -0.848262
 C    2.656378   -1.242083   -0.819688
 N    5.788416    0.609300   -0.159091
 O    0.445201   -0.984948   -0.078962
 O   -1.423324   -2.685751    1.016911
 O   -3.565183   -1.960837   -0.641411
 O   -3.697559    0.644417    0.108463
 O   -0.786738    0.857716    0.629121
 O   -2.459948    3.051480    0.392442
 H   -0.034191   -0.567235    1.864752
 H   -2.446347   -0.955516    1.533469
 H   -1.716917   -1.550560   -1.363673
 H   -3.063140    0.446699   -1.852891
 H   -0.708357    0.842814   -1.450124
 H   -0.681802    3.146353   -0.683043
 H   -2.178397    2.881246   -1.606910
 H    1.507444    1.110529    1.350263
 H    3.874392    1.743638    1.296622
 H    4.689917   -1.425934   -1.474416
 H    2.305112   -2.082816   -1.411576
 H    6.119171    1.121595    0.646586
 H    6.438394   -0.116190   -0.427802
 H   -2.195662   -3.175616    0.697821
 H   -4.239885   -1.458221   -0.157390
 H   -3.639001    1.603967    0.272052
 H   -2.023057    2.713717    1.189789
