52 
1eld_ligand_dft.xyz
 C   -2.771031   -2.419115   -0.609327
 C   -3.713462   -3.111843    0.399372
 O   -1.864461   -3.022099   -1.136727
 F   -3.228071   -2.935450    1.638747
 F   -3.817064   -4.406730    0.157165
 F   -4.947318   -2.567536    0.370881
 N   -3.027807   -1.092348   -0.731326
 C   -2.222172   -0.219693   -1.560526
 C   -1.179484    0.571110   -0.761760
 O   -0.414744    1.337987   -1.348294
 C   -3.119542    0.773936   -2.329976
 C   -3.964611    1.605608   -1.391594
 C   -5.270983    1.221967   -1.074961
 C   -3.425454    2.732060   -0.759907
 C   -6.017697    1.934794   -0.138222
 C   -4.169337    3.444919    0.173638
 C   -5.466270    3.045522    0.491241
 N   -1.197545    0.426404    0.574614
 C   -0.468962    1.309799    1.479142
 C    0.987681    0.835204    1.684978
 O    1.391376    0.456252    2.769266
 C   -1.210556    1.412292    2.801422
 N    1.728751    0.917973    0.541111
 C    3.077474    0.586588    0.348303
 C    3.590959    0.748497   -0.945688
 C    4.918614    0.465668   -1.213340
 C    5.756171    0.014194   -0.194003
 C    5.245534   -0.154463    1.088285
 C    3.914383    0.128269    1.370417
 C    7.182158   -0.331111   -0.508752
 F    7.289232   -1.547385   -1.077820
 F    7.725756    0.545459   -1.374274
 F    7.956130   -0.343743    0.589476
 H   -3.886139   -0.718214   -0.344786
 H   -1.673344   -0.846683   -2.268070
 H   -2.462867    1.408152   -2.930462
 H   -3.753497    0.199822   -3.012911
 H   -5.714608    0.363200   -1.575527
 H   -2.414263    3.046214   -1.004613
 H   -7.032232    1.623880    0.092039
 H   -3.737504    4.319685    0.650799
 H   -6.046824    3.604380    1.218708
 H   -1.827358   -0.253065    0.976384
 H   -0.434271    2.290546    0.989542
 H   -0.685975    2.092936    3.474380
 H   -2.223838    1.788245    2.630138
 H   -1.258137    0.438629    3.297824
 H    1.219003    1.231551   -0.284347
 H    2.940136    1.101783   -1.741135
 H    5.308594    0.603535   -2.216440
 H    5.893244   -0.503651    1.885002
 H    3.520254    0.000964    2.368713
