20 
1enu_ligand_ani.xyz
 N   -2.604765   -0.188035   -0.147104
 C   -1.681078   -1.209489   -0.029075
 O   -2.048946   -2.368535    0.030309
 C   -0.261108   -0.789708   -0.011419
 C    0.747024   -1.751844   -0.008795
 C    2.073900   -1.375887    0.002187
 C    2.430358   -0.014174    0.011267
 C    1.421532    0.946281    0.016686
 C    0.086554    0.560509    0.011488
 C   -0.967424    1.610283    0.023280
 O   -0.742983    2.804865   -0.046837
 N   -2.262548    1.149691    0.152476
 N    3.770660    0.359108    0.073989
 H   -3.505249   -0.435654    0.246606
 H    0.457365   -2.797730   -0.017475
 H    2.857198   -2.130091    0.008905
 H    1.652740    2.008568    0.029707
 H   -2.942487    1.798684   -0.226592
 H    4.419893   -0.323115   -0.289192
 H    3.974006    1.287524   -0.268971
