37 
1eou_ligand_dft.xyz
 S   -2.024330    2.281330    0.002631
 N   -3.081407    1.378074   -0.858610
 O   -2.106590    3.643452   -0.469720
 O   -2.056499    2.003939    1.426577
 O   -0.680316    1.573832   -0.569709
 C    0.560174    2.008214    0.001779
 C    1.447844    0.787299    0.261342
 C    1.385825   -0.331779   -0.806390
 C    0.481818   -1.525182   -0.515637
 C    0.270328   -1.806640    0.973474
 C    0.129706   -0.519536    1.777530
 O    1.285258    0.267879    1.567682
 O   -0.947329   -2.573160    1.023646
 S   -1.900837   -2.240239   -0.242856
 O   -2.136359   -3.456767   -0.966274
 O   -3.008988   -1.410111    0.167264
 O   -0.847337   -1.286580   -1.010912
 O    2.697256   -0.850479   -0.769377
 C    3.591692    0.145413   -0.278203
 C    4.467522    0.665007   -1.404959
 C    4.375378   -0.440748    0.883736
 O    2.760974    1.221688    0.159064
 H   -3.270548    0.463253   -0.449550
 H   -3.900630    1.914877   -1.115640
 H    0.406046    2.534721    0.947112
 H    1.052694    2.665207   -0.716826
 H    1.137419    0.087835   -1.789826
 H    0.891687   -2.399422   -1.029987
 H    1.061455   -2.442445    1.370949
 H   -0.789857    0.014391    1.516086
 H    0.095507   -0.739703    2.845419
 H    5.095758    1.484416   -1.045232
 H    5.110149   -0.136027   -1.779510
 H    3.842328    1.032967   -2.222988
 H    4.947884   -1.309570    0.546643
 H    5.067163    0.305694    1.283152
 H    3.683197   -0.742000    1.672095
