95 
1epo_ligand_xtb.xyz
 O    2.702170   -2.953764   -3.575183
 C    3.432587   -2.971503   -2.374750
 C    2.513351   -2.809643   -1.154097
 N    1.755277   -1.584216   -1.290407
 C    1.010778   -1.553234   -2.539237
 C    1.971936   -1.753512   -3.712646
 C    1.919201   -0.428512   -0.593430
 O    1.401569    0.620944   -0.980368
 N    2.631635   -0.490815    0.560389
 C    2.927973    0.670317    1.387569
 C    1.628250    1.269347    1.971692
 O    1.215055    0.896777    3.051814
 C    3.812203    1.672669    0.624342
 C    5.075219    0.984059    0.188614
 C    6.130758    0.807370    1.074134
 C    5.180814    0.462417   -1.094439
 C    7.269718    0.126026    0.683866
 C    6.318239   -0.221656   -1.486187
 C    7.364903   -0.392832   -0.596529
 N    1.034540    2.209069    1.218213
 C   -0.252049    2.772327    1.552935
 C   -1.437922    1.881978    1.162584
 O   -2.554360    2.126785    1.604975
 C   -0.431205    4.151495    0.907498
 C   -0.502040    4.086141   -0.618808
 C   -0.727432    5.460182   -1.252175
 C   -2.112742    6.029377   -0.968841
 N   -1.148277    0.868522    0.344736
 C   -2.085300   -0.168698   -0.048620
 C   -2.555451   -0.981858    1.166459
 C   -1.422385   -1.398013    2.110592
 C   -2.012250   -2.051710    3.362222
 C   -0.444834   -2.368237    1.448190
 C   -0.905611   -2.438828    4.338115
 C    0.665064   -2.745818    2.425836
 C    0.077608   -3.396123    3.673829
 C   -3.273952    0.470948   -0.823184
 O   -4.278165    0.956946   -0.001830
 O   -2.723046    1.488023   -1.612565
 C   -3.953917   -0.566394   -1.763229
 F   -4.815604    0.127938   -2.575919
 F   -3.031579   -1.099445   -2.600216
 C   -4.728558   -1.691411   -1.044452
 O   -4.311709   -2.827728   -1.014523
 N   -5.869305   -1.256051   -0.502663
 C   -6.732027   -2.118536    0.266985
 H    3.945683   -3.933959   -2.341755
 H    4.178164   -2.160411   -2.368865
 H    3.119597   -2.819547   -0.250258
 H    1.805509   -3.645758   -1.119978
 H    0.502764   -0.592523   -2.622205
 H    0.271618   -2.360515   -2.523967
 H    2.664607   -0.899578   -3.767929
 H    1.422146   -1.835551   -4.650331
 H    2.848049   -1.388384    0.954124
 H    3.491158    0.291359    2.246484
 H    3.286229    2.041535   -0.255230
 H    4.034212    2.511130    1.285973
 H    6.060512    1.212756    2.073609
 H    4.366961    0.603274   -1.792100
 H    8.086024    0.000234    1.379773
 H    6.392792   -0.617563   -2.489067
 H    8.253786   -0.924331   -0.901736
 H    1.321864    2.284763    0.251540
 H   -0.291776    2.867080    2.645166
 H   -1.358847    4.569604    1.297545
 H    0.394238    4.797589    1.214582
 H    0.429220    3.676167   -1.016736
 H   -1.309270    3.416249   -0.920321
 H   -0.602163    5.364872   -2.332971
 H    0.033526    6.156686   -0.891493
 H   -2.240348    6.249772    0.087505
 H   -2.262540    6.951564   -1.525700
 H   -2.880507    5.319082   -1.266484
 H   -0.242767    0.853239   -0.114464
 H   -1.554429   -0.811986   -0.753452
 H   -3.063018   -1.876777    0.808124
 H   -3.272128   -0.385862    1.733874
 H   -0.868705   -0.508310    2.426753
 H   -2.576098   -2.942203    3.073066
 H   -2.702454   -1.358501    3.846813
 H   -0.010059   -1.910757    0.558446
 H   -0.983177   -3.266028    1.135115
 H   -0.373495   -1.537780    4.649442
 H   -1.338224   -2.903068    5.226723
 H    1.199354   -1.840241    2.722757
 H    1.371952   -3.429320    1.946264
 H    0.876952   -3.655406    4.371388
 H   -0.438737   -4.318080    3.395823
 H   -3.825757    1.503787    0.700704
 H   -3.418168    1.869126   -2.166454
 H   -6.049408   -0.262312   -0.487309
 H   -7.748373   -2.078282   -0.125150
 H   -6.737930   -1.817701    1.315591
 H   -6.348672   -3.133806    0.182532
