51 
1etz_ligand_dft.xyz
 C   -0.733715   -1.409234    1.871102
 C   -0.502463   -1.384335    3.241405
 C   -0.627301   -0.189539    3.947652
 C   -0.988873    0.972402    3.273793
 C   -1.228228    0.943851    1.901746
 C   -1.097978   -0.247281    1.188616
 C   -1.349415   -0.320266   -0.312382
 N   -1.153989    0.978985   -0.951927
 C   -2.760594   -0.803053   -0.606508
 C   -2.973286   -2.053241   -1.183331
 C   -4.266222   -2.502720   -1.443980
 C   -5.357225   -1.698977   -1.132321
 C   -5.150944   -0.445254   -0.558331
 C   -3.860995   -0.000803   -0.295706
 C    0.199142    1.492547   -0.970912
 N    0.120376    2.787094   -1.627821
 C    1.286819    3.615928   -1.429848
 C    1.412357    4.170691   -0.018819
 O    0.575442    4.062933    0.846391
 O    2.570067    4.827302    0.157321
 N    1.182302    0.708280   -1.700391
 C    1.890127   -0.366278   -1.197486
 C    2.438300   -1.300316   -2.097340
 C    3.172951   -2.380034   -1.646471
 C    3.382069   -2.570088   -0.274698
 C    4.128536   -3.697602    0.197712
 N    4.731120   -4.612588    0.579619
 C    2.845944   -1.642730    0.625812
 C    2.119316   -0.553676    0.178202
 H   -0.620094   -2.339891    1.320108
 H   -0.217777   -2.296716    3.757256
 H   -0.439431   -0.165340    5.017024
 H   -1.081629    1.910837    3.812335
 H   -1.491251    1.856751    1.376210
 H   -0.657227   -1.076254   -0.717990
 H   -1.515895    0.953154   -1.902077
 H   -2.121354   -2.682211   -1.431592
 H   -4.417941   -3.479416   -1.893906
 H   -6.366089   -2.046567   -1.334089
 H   -5.999825    0.185360   -0.310428
 H   -3.696661    0.972610    0.156911
 H    0.537558    1.562422    0.067737
 H   -0.700954    3.253497   -1.252711
 H    2.188225    3.042698   -1.667795
 H    1.265411    4.465862   -2.121859
 H    2.566109    5.163959    1.068092
 H    1.005782    0.689934   -2.696935
 H    2.276441   -1.169483   -3.164106
 H    3.582536   -3.090630   -2.356996
 H    2.996504   -1.779764    1.691558
 H    1.714894    0.134967    0.909759
