84 
1evh_ligand_ani.xyz
 C    4.736334    0.551929    2.071597
 O    5.526287    1.323807    1.550861
 C    5.063583   -0.257606    3.309345
 N    3.475841    0.351830    1.588279
 C    3.002268    0.976771    0.385567
 C    1.715121    1.761507    0.679456
 O    1.032168    1.531418    1.678592
 C    2.715388   -0.084997   -0.709765
 C    3.963062   -0.785121   -1.207288
 C    4.447331   -1.919996   -0.548522
 C    4.670739   -0.301643   -2.310510
 C    5.615231   -2.545364   -0.972837
 C    5.840706   -0.924639   -2.736536
 C    6.317051   -2.047358   -2.067462
 N    1.308232    2.685499   -0.222014
 C   -0.061711    3.193602   -0.142625
 C   -1.085325    2.049325   -0.262921
 O   -0.852936    1.045146   -0.920632
 C   -0.158344    4.159280   -1.340012
 C    0.895895    3.628041   -2.316913
 C    2.026837    3.180185   -1.395756
 N   -2.270972    2.242379    0.390822
 C   -3.181787    1.124675    0.626303
 C   -3.824306    0.647421   -0.682509
 O   -4.122787    1.443767   -1.555395
 C   -4.244165    1.741149    1.560263
 C   -4.258166    3.217642    1.155556
 C   -2.782305    3.517316    0.897881
 N   -4.085303   -0.702033   -0.814033
 C   -4.272537   -1.666976    0.274417
 C   -3.039352   -2.251219    0.982584
 O   -3.164635   -2.565315    2.157979
 C   -5.118648   -2.804301   -0.364686
 C   -5.751673   -2.166358   -1.603591
 C   -4.689698   -1.170493   -2.065313
 N   -1.865981   -2.444475    0.311676
 C   -0.689710   -2.894877    1.043713
 C    0.142889   -1.743540    1.622504
 O    1.336593   -1.858620    1.838619
 C    0.092585   -3.686914   -0.004677
 C   -0.204827   -2.927739   -1.303302
 C   -1.650699   -2.426264   -1.140373
 O   -0.549912   -0.641731    1.864256
 H    6.068190    0.002081    3.643535
 H    4.347486   -0.052192    4.112483
 H    5.023778   -1.330964    3.090217
 H    2.856849   -0.323058    2.026435
 H    3.790684    1.657734    0.053172
 H    2.027734   -0.821319   -0.275354
 H    2.178197    0.386259   -1.541183
 H    3.900517   -2.314901    0.307740
 H    4.304576    0.568760   -2.854405
 H    5.979886   -3.425139   -0.448383
 H    6.380766   -0.533194   -3.595313
 H    7.231167   -2.534128   -2.398724
 H   -0.205968    3.705570    0.814583
 H    0.089677    5.174155   -1.007794
 H   -1.160410    4.191759   -1.782434
 H    0.493571    2.759774   -2.848803
 H    1.217698    4.371820   -3.049789
 H    2.683067    4.016560   -1.118881
 H    2.652653    2.405398   -1.844133
 H   -2.624030    0.323276    1.113323
 H   -5.225910    1.262756    1.469932
 H   -3.912568    1.627411    2.598621
 H   -4.692678    3.866832    1.919754
 H   -4.817551    3.337524    0.224031
 H   -2.638412    4.321063    0.167451
 H   -2.263232    3.804892    1.824136
 H   -4.830650   -1.201526    1.097425
 H   -5.851342   -3.199294    0.343926
 H   -4.468880   -3.636506   -0.657667
 H   -6.004845   -2.894035   -2.379736
 H   -6.665039   -1.626307   -1.331721
 H   -5.078529   -0.310915   -2.612671
 H   -3.925497   -1.655000   -2.688362
 H   -1.004327   -3.497189    1.901128
 H    1.154897   -3.738018    0.242379
 H   -0.304474   -4.705682   -0.054019
 H   -0.079221   -3.548368   -2.194229
 H    0.464323   -2.062648   -1.401148
 H   -1.770155   -1.411341   -1.529033
 H   -2.364124   -3.090916   -1.640069
 H    0.080578    0.108210    2.004701
