89 
1ez9_ligand_dft.xyz
 C    6.280489   -2.048854   -0.119625
 C    4.933763   -1.459793   -0.567278
 C    3.776469   -2.121900    0.182869
 C    2.350753   -1.613337   -0.151275
 C    1.352170   -2.765873   -0.062471
 C    1.377992   -3.683142   -1.292262
 O    6.646556   -1.485129    1.126106
 O    5.010617   -0.056109   -0.394613
 O    4.020227   -2.061740    1.576085
 O    1.861751   -0.665853    0.789702
 O    1.644608   -3.527629    1.098657
 O    0.817756   -4.936295   -0.964842
 C    2.310884    0.644026    0.756260
 C    1.589171    1.338811    1.914542
 C    1.741252    2.863736    1.827840
 C    1.476587    3.396269    0.414038
 C    2.207894    2.585155   -0.663999
 C    3.706108    2.905836   -0.771166
 O    0.224191    1.006182    1.942390
 O    3.056016    3.257116    2.171095
 O    0.057833    3.373254    0.304583
 O    1.955253    1.192007   -0.500694
 O    4.283542    2.228805   -1.853188
 C   -0.553030    3.607999   -0.930642
 C   -1.993626    4.004342   -0.586566
 C   -2.722442    2.792330   -0.012459
 C   -2.632874    1.603200   -0.950290
 C   -1.163281    1.314202   -1.260348
 C   -0.955796    0.228540   -2.304666
 O   -2.044254    5.081778    0.322812
 O   -4.090759    3.075645    0.213173
 O   -3.212285    0.509271   -0.265346
 O   -0.545925    2.497673   -1.782592
 O    0.300620   -0.399753   -2.187613
 C   -4.253857   -0.210725   -0.857573
 C   -5.273678   -0.481885    0.251698
 C   -4.640434   -1.405535    1.291357
 C   -4.118074   -2.656369    0.608869
 C   -3.140967   -2.272752   -0.504579
 C   -2.648623   -3.476135   -1.299881
 O   -5.759347    0.696444    0.842210
 O   -5.577623   -1.811406    2.266781
 O   -3.440849   -3.502305    1.524759
 O   -3.797477   -1.412512   -1.428350
 O   -1.819594   -4.307573   -0.511243
 H    7.062264   -1.765478   -0.828810
 H    6.230225   -3.144963   -0.074359
 H    4.776987   -1.647901   -1.636083
 H    3.811855   -3.173622   -0.140956
 H    2.325220   -1.191657   -1.160462
 H    0.349398   -2.326276    0.023698
 H    0.860139   -3.185435   -2.121731
 H    2.407211   -3.886365   -1.609457
 H    5.951207   -1.765602    1.746526
 H    5.642849    0.071735    0.335097
 H    3.302614   -2.580681    1.975906
 H    1.395025   -4.437084    0.853887
 H   -0.148237   -4.810919   -0.872759
 H    3.393825    0.699859    0.886465
 H    2.081766    0.998696    2.842575
 H    0.999149    3.316893    2.499083
 H    1.825806    4.437823    0.364292
 H    1.778795    2.809056   -1.641826
 H    4.225045    2.700374    0.171957
 H    3.803916    3.981903   -0.957981
 H    0.186902    0.063945    1.715101
 H    3.227443    2.978202    3.078326
 H    4.516512    1.341887   -1.531947
 H   -0.040208    4.407228   -1.480498
 H   -2.498527    4.334621   -1.499296
 H   -2.230799    2.503165    0.928490
 H   -3.186289    1.814749   -1.876534
 H   -0.666983    1.022581   -0.327843
 H   -1.721269   -0.543235   -2.190724
 H   -1.084832    0.686666   -3.297296
 H   -1.387463    4.869332    1.003728
 H   -4.121128    3.917845    0.689031
 H    0.929112    0.256289   -1.842115
 H   -4.705906    0.354971   -1.678601
 H   -6.133101   -0.999214   -0.190701
 H   -3.794875   -0.883360    1.763923
 H   -4.970176   -3.189890    0.158189
 H   -2.272762   -1.765291   -0.062913
 H   -3.508315   -4.033754   -1.698184
 H   -2.048920   -3.126584   -2.144487
 H   -5.063138    1.378641    0.805536
 H   -6.001485   -1.002257    2.585696
 H   -4.026823   -3.620484    2.284941
 H   -2.239963   -4.410243    0.359774
