89 
1ez9_ligand_ani.xyz
 C    6.395338   -2.210647   -0.036330
 C    5.082458   -1.603427   -0.532858
 C    3.873740   -2.294216    0.115913
 C    2.521886   -1.588997   -0.148709
 C    1.373940   -2.606374   -0.112197
 C    1.242214   -3.473426   -1.371363
 O    6.678515   -1.721404    1.264292
 O    5.129855   -0.209418   -0.262815
 O    4.095346   -2.469918    1.502955
 O    2.173364   -0.662216    0.877758
 O    1.549522   -3.444290    1.018249
 O    0.560300   -4.668876   -1.049073
 C    2.465984    0.696086    0.750217
 C    1.755154    1.404973    1.911689
 C    1.874248    2.927541    1.771296
 C    1.551909    3.415433    0.354402
 C    2.258503    2.578914   -0.729598
 C    3.753245    2.887454   -0.865060
 O    0.387508    1.064873    1.945822
 O    3.201088    3.347436    2.063974
 O    0.127536    3.346319    0.265502
 O    2.013951    1.181383   -0.507580
 O    4.351782    2.076002   -1.840002
 C   -0.505153    3.533398   -0.974584
 C   -1.948028    3.959056   -0.680600
 C   -2.694196    2.799937   -0.034826
 C   -2.606566    1.559413   -0.903535
 C   -1.138685    1.228972   -1.165300
 C   -0.940887    0.089083   -2.154333
 O   -2.007991    5.110090    0.137769
 O   -4.063056    3.114649    0.151969
 O   -3.222146    0.503625   -0.187279
 O   -0.496530    2.371776   -1.761612
 O    0.375997   -0.419590   -2.119527
 C   -4.365326   -0.098971   -0.744467
 C   -5.361612   -0.357798    0.387816
 C   -4.733761   -1.334055    1.370981
 C   -4.328967   -2.596594    0.631950
 C   -3.387854   -2.235599   -0.518554
 C   -3.007792   -3.423805   -1.393476
 O   -5.766434    0.824162    1.048116
 O   -5.654568   -1.687622    2.380958
 O   -3.645650   -3.497484    1.486102
 O   -4.024281   -1.293724   -1.389240
 O   -2.182226   -4.344781   -0.708668
 H    7.213965   -1.879150   -0.681397
 H    6.362577   -3.308993   -0.051218
 H    5.001661   -1.731827   -1.619638
 H    3.831892   -3.289367   -0.356658
 H    2.553240   -1.092350   -1.126299
 H    0.447169   -2.026302    0.001997
 H    0.731859   -2.903743   -2.156391
 H    2.221801   -3.783906   -1.756407
 H    5.924072   -2.019750    1.803755
 H    5.710406   -0.136639    0.517867
 H    3.303014   -2.922553    1.842396
 H    1.175490   -4.304563    0.757107
 H   -0.401511   -4.492199   -1.035874
 H    3.545670    0.854856    0.829322
 H    2.246003    1.104223    2.856774
 H    1.160352    3.395272    2.460025
 H    1.875712    4.463687    0.266236
 H    1.816812    2.794900   -1.707987
 H    4.252863    2.810729    0.108150
 H    3.844310    3.927953   -1.200542
 H    0.351301    0.100842    1.866551
 H    3.382383    3.141550    2.989272
 H    4.575537    1.229262   -1.414591
 H    0.018327    4.313356   -1.544658
 H   -2.443777    4.220136   -1.620744
 H   -2.232140    2.572178    0.939669
 H   -3.117691    1.737657   -1.861610
 H   -0.659198    0.983001   -0.209288
 H   -1.633438   -0.736837   -1.946741
 H   -1.172383    0.469028   -3.160813
 H   -1.393232    4.947822    0.868875
 H   -4.088629    3.998264    0.545469
 H    0.963794    0.293849   -1.812834
 H   -4.809169    0.564337   -1.499805
 H   -6.265799   -0.819336   -0.031265
 H   -3.831781   -0.877816    1.810906
 H   -5.230199   -3.074016    0.216630
 H   -2.471057   -1.801322   -0.085432
 H   -3.916224   -3.921509   -1.761156
 H   -2.453139   -3.046118   -2.258960
 H   -5.063204    1.490445    0.945109
 H   -5.998636   -0.850565    2.726686
 H   -4.221582   -3.666143    2.244181
 H   -2.541238   -4.434400    0.191123
