71 
1ezf_ligand_ani.xyz
 C    1.565801   -0.056529    0.782893
 C    1.760313   -0.781437   -0.565263
 C    3.064413   -1.541050   -0.689173
 C    3.082139   -2.906317   -0.554665
 C    4.289562   -3.637561   -0.627911
 C    5.474584   -2.989767   -0.845231
 C    5.504001   -1.576395   -1.000218
 C    6.728521   -0.892829   -1.231429
 C    6.765273    0.465910   -1.377067
 C    5.570916    1.213307   -1.295048
 C    4.374150    0.581378   -1.074827
 C    4.294039   -0.835727   -0.922078
 O    0.697074   -1.692224   -0.850859
 C   -0.607773   -1.256501   -0.519669
 C   -1.614432   -2.212532   -1.169205
 C   -2.999643   -1.978676   -0.594471
 O   -3.388579   -2.528009    0.425980
 N   -3.759446   -1.058910   -1.268110
 C   -4.866366   -0.441823   -0.574442
 C   -6.015525   -1.411525   -0.292769
 C   -7.328177   -0.679215   -0.157675
 O   -8.249134   -1.405916    0.498555
 O   -7.565587    0.412027   -0.618443
 C   -4.358869    0.272363    0.683317
 O   -5.312972    0.407215    1.618551
 O   -3.238559    0.702771    0.820830
 C   -0.827322    0.198117   -0.985860
 O   -1.408052    0.449796   -2.039236
 N   -0.336380    1.183560   -0.167785
 C    0.522664    0.888448    0.927251
 C    0.350734    1.549343    2.144772
 C    1.192323    1.299370    3.221447
 C    2.222573    0.382380    3.069656
Cl    3.290960    0.062216    4.404479
 C    2.410937   -0.286545    1.865084
 C   -0.739330    2.560775   -0.448001
 C    0.302133    3.438799   -1.176392
 C    0.665498    2.819634   -2.531554
 C   -0.358346    4.807273   -1.407349
 C    1.568979    3.631249   -0.332041
 H    1.753183   -0.013708   -1.354973
 H    2.148120   -3.432580   -0.385104
 H    4.263221   -4.719152   -0.513008
 H    6.409505   -3.542014   -0.905916
 H    7.642404   -1.479571   -1.290795
 H    7.708890    0.975474   -1.554797
 H    5.602680    2.293403   -1.411361
 H    3.470314    1.182317   -1.001871
 H   -0.740170   -1.297605    0.570598
 H   -1.604701   -2.069789   -2.254462
 H   -1.318741   -3.238473   -0.934899
 H   -3.235234   -0.454188   -1.892304
 H   -5.262689    0.342353   -1.233129
 H   -5.828535   -2.031531    0.585017
 H   -6.106447   -2.084772   -1.152539
 H   -9.054443   -0.862514    0.518627
 H   -4.902644    0.872041    2.366794
 H   -0.475007    2.243403    2.269722
 H    1.051811    1.815946    4.166262
 H    3.229792   -0.994606    1.768240
 H   -1.638944    2.502474   -1.063911
 H   -1.016236    3.043747    0.494104
 H    1.335704    3.484545   -3.087867
 H    1.176587    1.858894   -2.410071
 H   -0.230144    2.640679   -3.135739
 H    0.319925    5.484613   -1.938544
 H   -0.629957    5.280733   -0.456063
 H   -1.270794    4.705125   -2.007294
 H    1.327934    4.023821    0.663551
 H    2.245277    4.338083   -0.825561
 H    2.117653    2.693844   -0.193102
