49 
1f0t_ligand_ani.xyz
 C   -4.230962    2.215875    0.407879
 C   -4.977017    1.509386   -0.521667
 C   -4.368445    0.545228   -1.325818
 C   -2.997239    0.287656   -1.207805
 C   -2.272281    1.005103   -0.261252
 C   -2.868657    1.963393    0.559418
 C   -2.088364    2.713439    1.587141
 N   -0.896759    2.112072    1.975852
 N   -2.537878    3.833181    2.008710
 C   -2.276662   -0.760370   -2.031254
 O   -5.080282   -0.162228   -2.249255
 C    4.025105    0.408032   -0.703587
 C    5.150754    0.718366   -1.462646
 C    5.335920    2.047368   -1.802957
 C    4.401043    3.005919   -1.378930
 N    3.325858    2.731711   -0.657246
 C    3.144026    1.441328   -0.322919
 C    2.050270    0.941271    0.459253
 C    2.122612   -0.399156    0.652680
 S    3.493546   -1.142157   -0.113253
 N   -1.672036   -1.776882   -1.192216
 C   -0.325436   -1.895091   -1.013256
 C   -0.087356   -3.062068   -0.051065
 C   -1.470516   -3.343590    0.569115
 C   -2.481360   -2.663093   -0.373992
 N    0.999595   -2.780338    0.877853
 S    1.022515   -1.320185    1.663910
 O   -0.299279   -0.701732    1.589668
 O    1.635481   -1.564181    2.955291
 O    0.529082   -1.218204   -1.548532
 H   -4.692066    2.974534    1.031668
 H   -6.042930    1.707446   -0.631133
 H   -1.203229    0.812231   -0.173822
 H   -0.524751    2.470975    2.848368
 H   -0.843029    1.097456    1.904723
 H   -1.907561    4.249599    2.696664
 H   -2.960570   -1.226291   -2.746292
 H   -1.451208   -0.302819   -2.587290
 H   -6.001937    0.122367   -2.213498
 H    5.857974   -0.044012   -1.777932
 H    6.194941    2.352932   -2.393005
 H    4.540623    4.053273   -1.643731
 H    1.255491    1.581431    0.833232
 H    0.250396   -3.913351   -0.652858
 H   -1.529393   -2.892407    1.561783
 H   -1.655071   -4.415617    0.668154
 H   -3.019885   -3.384258   -1.003616
 H   -3.227181   -2.073637    0.173146
 H    1.178325   -3.513810    1.556847
