61 
1f28_ligand_ani.xyz
 C    1.829439    1.427342   -0.419311
 O    0.990816    0.635108   -0.857812
 N    1.454064    2.720433   -0.151691
 C    2.355590    3.700514    0.211006
 C    1.767176    5.065634    0.419669
 N    3.614245    3.491528    0.360234
 C    4.063897    2.190499    0.191833
 C    5.464232    1.964510    0.398503
 C    5.975626    0.712337    0.329542
 C    5.127950   -0.414887    0.057482
 C    5.639008   -1.733310    0.063034
 C    4.810775   -2.807480   -0.126395
 C    3.425568   -2.623950   -0.355985
 C    2.935081   -1.344655   -0.449682
 C    3.752122   -0.215435   -0.196916
 C    3.229070    1.126151   -0.147406
 C    2.547117   -3.868890   -0.456043
 N    1.194464   -3.698649   -0.936299
 C    0.192681   -3.071465   -0.196399
 C   -0.945081   -2.611558   -0.882252
 C   -1.925839   -1.940485   -0.174639
 C   -1.773362   -1.689902    1.182763
 C   -0.676291   -2.168491    1.887768
 C    0.297632   -2.871691    1.195702
 C   -3.248423   -1.384557   -0.652539
 C   -2.914659   -0.861289    1.641711
 O   -3.149050   -0.426891    2.755141
 N   -3.697435   -0.645757    0.525069
 C   -4.764284    0.317713    0.602173
 C   -5.939617   -0.033465   -0.296179
 O   -5.890566   -0.617455   -1.351526
 O   -7.080997    0.472781    0.201896
 C   -4.342417    1.777256    0.307826
 C   -3.638820    1.983555   -1.042077
 C   -2.135542    1.885098   -0.921189
 O   -1.567598    1.031894   -1.763090
 O   -1.510021    2.563337   -0.124718
 H    0.441561    2.896523   -0.187218
 H    1.011781    5.041728    1.211950
 H    1.290714    5.424786   -0.497740
 H    2.562418    5.755124    0.705189
 H    6.077047    2.831207    0.627347
 H    7.036953    0.536886    0.499561
 H    6.702240   -1.883291    0.243308
 H    5.212052   -3.818969   -0.096461
 H    1.905164   -1.154954   -0.707727
 H    2.506944   -4.364220    0.522930
 H    3.035373   -4.589641   -1.122225
 H    1.138307   -3.496135   -1.924944
 H   -1.031620   -2.778114   -1.955465
 H   -0.587154   -1.984658    2.955019
 H    1.160210   -3.246931    1.739395
 H   -3.131837   -0.729275   -1.514646
 H   -3.965523   -2.166055   -0.915352
 H   -5.114552    0.284326    1.637074
 H   -7.781302    0.259687   -0.437328
 H   -5.260394    2.373399    0.337981
 H   -3.694093    2.142055    1.109987
 H   -3.835149    3.005616   -1.385490
 H   -4.021535    1.304259   -1.809183
 H   -0.607423    0.958978   -1.528278
