22 
1f3e_ligand_ani.xyz
 N   -2.640583    0.133150   -0.114483
 C   -1.644248    1.079536   -0.001357
 O   -1.957761    2.263923    0.093575
 C   -0.258484    0.569808   -0.018504
 C    0.846675    1.460704   -0.033842
 C    2.139232    0.935792   -0.018778
 C    2.367495   -0.444261    0.007420
 C    1.280021   -1.315020    0.010296
 C   -0.008694   -0.805073    0.003738
 C   -1.137182   -1.779167    0.008538
 O   -0.992756   -2.985373   -0.071336
 N   -2.397044   -1.234175    0.134211
 N    3.669900   -0.940846   -0.030455
 N    0.657039    2.807069   -0.092579
 H   -3.506045    0.439556    0.313751
 H    2.989970    1.614717   -0.040245
 H    1.412788   -2.392734    0.013375
 H   -3.118478   -1.820175   -0.269915
 H    4.372179   -0.319046    0.343834
 H    3.774295   -1.879124    0.329341
 H   -0.291163    3.140420    0.032842
 H    1.436516    3.417691    0.077175
