49 
1f4f_ligand_dft.xyz
 C   -5.302340    0.288771   -2.135822
 C   -3.924763   -0.304783   -1.840075
 N   -3.753936   -0.061563   -0.397822
 C   -4.737205    0.884657    0.125420
 C   -5.384070    1.458771   -1.153015
 C   -4.092326    1.983796    0.950319
 O   -2.931833    2.312306    0.929342
 O   -5.019600    2.617889    1.684560
 S   -3.259096   -1.302280    0.591817
 C   -1.496548   -1.318505    0.323117
 O   -3.773827   -2.580225    0.116470
 O   -3.551160   -0.853358    1.944683
 C   -0.780995   -0.127719    0.414870
 C    0.599860   -0.163823    0.261168
 C    1.250338   -1.378493    0.016236
 C    0.510124   -2.555194   -0.095618
 C   -0.869071   -2.533203    0.067040
 C    2.736445   -1.482931   -0.183309
 N    3.485983   -0.503027    0.391085
 C    4.918285   -0.461307    0.187969
 C    5.303195    0.091143   -1.194344
 C    4.887817    1.552170   -1.425411
 C    3.398215    1.767489   -1.315814
 O    3.238663   -2.392902   -0.827672
 C    5.621775    0.305871    1.295066
 O    6.758460    0.701160    1.217101
 O    4.856550    0.488692    2.384565
 O    2.727262    1.161941   -2.311270
 O    2.839637    2.393368   -0.441752
 H   -6.078164   -0.449938   -1.908511
 H   -5.414511    0.599035   -3.177577
 H   -3.865776   -1.373697   -2.056081
 H   -3.132674    0.212882   -2.393506
 H   -5.492627    0.392752    0.746473
 H   -6.399569    1.810554   -0.962251
 H   -4.789421    2.302123   -1.522086
 H   -4.559658    3.323607    2.166854
 H   -1.302084    0.810218    0.586342
 H    1.152857    0.771612    0.307725
 H    1.031014   -3.480642   -0.315603
 H   -1.459492   -3.439437   -0.011684
 H    3.068296    0.159011    1.026492
 H    5.291547   -1.492605    0.241259
 H    6.388060    0.015843   -1.303390
 H    4.842334   -0.557798   -1.943432
 H    5.374175    2.214044   -0.705002
 H    5.204084    1.848605   -2.430734
 H    5.395342    0.984968    3.021948
 H    1.781839    1.306262   -2.144157
