49 
1f4f_ligand_xtb.xyz
 C   -5.347280    0.376820   -2.199132
 C   -4.104709   -0.443321   -1.830978
 N   -3.801076   -0.073316   -0.459049
 C   -4.788880    0.854351    0.057708
 C   -5.302356    1.542879   -1.209547
 C   -4.113362    1.779202    1.048465
 O   -2.990096    2.193162    0.943709
 O   -4.926242    2.120563    2.042568
 S   -3.254587   -1.226994    0.611051
 C   -1.503321   -1.246156    0.255206
 O   -3.806889   -2.515820    0.294500
 O   -3.478535   -0.684242    1.919969
 C   -0.771555   -0.094714    0.473403
 C    0.590132   -0.097565    0.220209
 C    1.203946   -1.253420   -0.260626
 C    0.441640   -2.394886   -0.500788
 C   -0.915339   -2.396564   -0.233635
 C    2.663607   -1.334238   -0.573578
 N    3.460202   -0.518449    0.157192
 C    4.891881   -0.540568   -0.014590
 C    5.370803    0.396166   -1.139129
 C    4.998735    1.860518   -0.883940
 C    3.505077    2.060607   -0.909506
 O    3.108601   -2.085260   -1.419939
 C    5.621686   -0.230943    1.280411
 O    6.799092   -0.010070    1.353117
 O    4.816069   -0.234611    2.345625
 O    2.995445    1.871791   -2.127234
 O    2.825030    2.360908    0.038217
 H   -6.249044   -0.212695   -2.033789
 H   -5.329606    0.707626   -3.235286
 H   -4.275744   -1.521318   -1.892774
 H   -3.248683   -0.182576   -2.462866
 H   -5.604115    0.336107    0.580709
 H   -6.269389    2.016498   -1.058128
 H   -4.575257    2.288978   -1.531797
 H   -4.458351    2.667745    2.694462
 H   -1.275065    0.788983    0.831794
 H    1.153786    0.809407    0.382407
 H    0.934969   -3.270507   -0.894701
 H   -1.529016   -3.268827   -0.393454
 H    3.083024    0.037059    0.908229
 H    5.166941   -1.564840   -0.311484
 H    6.455332    0.310595   -1.207101
 H    4.925924    0.062423   -2.076717
 H    5.385369    2.193026    0.079734
 H    5.432721    2.472269   -1.675922
 H    5.319219   -0.045407    3.153799
 H    2.032472    1.989349   -2.124895
