43 
1f4x_ligand_ani.xyz
 C   -3.008413    0.010587    0.127393
 O   -3.174587    0.131274    1.509204
 C   -4.041751    1.185840    1.890451
 C   -2.079013   -1.191210   -0.081260
 O   -1.965071   -1.552362   -1.443578
 C   -3.045469   -2.322965   -1.920692
 C   -0.669630   -0.828809    0.388295
 O    0.244632   -1.882431    0.141820
 C   -0.208427    0.470812   -0.288848
 N    1.135339    0.802529    0.136795
 C    2.173403    0.635648   -0.720938
 O    2.035008    0.510183   -1.934134
 C   -1.209011    1.589698   -0.002475
 O   -2.500517    1.177286   -0.465742
 C   -0.885223    2.877073   -0.733188
 C    3.532786   -1.066336    1.863019
 O    2.160755   -0.854154    2.148203
 C    3.905616   -0.826057    0.401872
 C    3.588502    0.589154   -0.128645
 O    4.489587    0.947308   -1.140726
 H   -3.986391   -0.152079   -0.348935
 H   -3.662786    2.157816    1.551759
 H   -4.093809    1.170851    2.980854
 H   -5.052825    1.040972    1.481877
 H   -2.449203   -2.044709    0.504178
 H   -3.197243   -3.218235   -1.300581
 H   -2.793653   -2.631139   -2.938151
 H   -3.979752   -1.744825   -1.944590
 H   -0.695601   -0.673255    1.472498
 H    0.176168   -2.093527   -0.803173
 H   -0.167798    0.316873   -1.372255
 H    1.341978    0.675010    1.123164
 H   -1.243012    1.766512    1.084931
 H   -1.629957    3.640061   -0.490027
 H   -0.909588    2.702170   -1.814061
 H    0.106896    3.245785   -0.457071
 H    3.839345   -2.079688    2.159554
 H    4.078778   -0.360803    2.500046
 H    1.638423   -1.462255    1.595572
 H    3.420559   -1.572724   -0.244254
 H    4.985960   -0.966146    0.291802
 H    3.676650    1.314182    0.693035
 H    4.010814    0.794019   -1.974019
