39 
1f7b_ligand_ani.xyz
 C   -3.030161   -1.147253   -0.069542
 O   -2.878941   -0.411580    1.043554
 O   -3.484038   -0.708991   -1.101903
 C   -2.556674   -2.566900    0.134408
 C   -1.160375   -2.635472    0.769597
 C   -0.110893   -1.987658   -0.109884
 C    0.944510   -1.073945    0.515344
 N    2.155323   -1.226577   -0.252537
 C    3.338525   -0.701321    0.137964
 C    4.444961   -0.789801   -0.881721
 O    3.484494   -0.178528    1.246324
 O    1.154012    1.146008    1.560867
 C    0.410473    0.393800    0.606250
 C    0.448245    1.149845   -0.732629
 O    1.783981    1.478856   -1.073394
 C   -0.390167    2.448834   -0.720675
 O   -0.139139    3.251228    0.425495
 C   -1.912828    2.246337   -0.823778
 O   -2.514021    2.198877    0.456682
 O   -0.108495   -2.174589   -1.311180
 H   -3.013276    0.539880    0.809547
 H   -3.281220   -3.069360    0.786793
 H   -2.564806   -3.065899   -0.835344
 H   -1.169482   -2.159097    1.754961
 H   -0.873632   -3.683145    0.909259
 H    1.146266   -1.377839    1.550969
 H    2.018975   -1.464839   -1.226597
 H    4.589529   -1.819298   -1.224231
 H    5.367198   -0.415650   -0.436337
 H    4.188338   -0.172315   -1.750272
 H    2.043865    0.737796    1.655996
 H   -0.613590    0.338054    0.981495
 H    0.074684    0.507128   -1.538224
 H    2.139934    1.939437   -0.297365
 H   -0.057076    3.018282   -1.598006
 H    0.436041    2.742897    1.031213
 H   -2.355209    3.072718   -1.392796
 H   -2.152801    1.314041   -1.342550
 H   -1.947518    2.774203    1.005674
