76 
1f9e_ligand_dft.xyz
 C    3.270178   -1.391278   -0.859254
 O    3.448520   -2.352544   -0.125080
 O    4.247640   -0.596414   -1.307718
 C    5.564638   -0.884021   -0.808624
 C    6.452969    0.280221   -1.148028
 C    7.612807    0.096593   -1.896950
 C    8.447204    1.174967   -2.183297
 C    8.119096    2.447384   -1.728649
 C    6.956175    2.639010   -0.983828
 C    6.130291    1.560791   -0.691864
 N    2.066358   -1.006485   -1.369040
 C    0.849634   -1.484429   -0.747513
 C   -0.288397   -1.424324   -1.774618
 O    0.992875    0.529026    0.558523
 C    0.538775   -0.614717    0.487619
 C   -1.499100   -2.240237   -1.400141
 O   -2.433624   -2.198249   -2.352639
 O   -1.638812   -2.886863   -0.382456
 N   -0.223103   -1.208486    1.419972
 C   -0.691348   -0.609316    2.669830
 C   -1.772928    0.435265    2.361264
 O   -2.950166    0.223334    2.614037
 C    0.457824   -0.115468    3.559671
 C    1.274127   -1.273265    4.159545
 C    1.880675   -2.172064    3.102070
 O    1.515236   -3.300757    2.865630
 O    2.859887   -1.552264    2.432686
 N   -1.342622    1.570866    1.744805
 C   -2.334163    2.359411    1.047699
 C   -2.993222    1.484875   -0.028995
 O   -2.352087    0.680172   -0.699304
 C   -1.731194    3.644926    0.442703
 C   -0.692150    3.380721   -0.653404
 C   -1.155318    4.530449    1.551060
 N   -4.318574    1.672310   -0.208001
 C   -5.080097    0.904624   -1.157729
 C   -6.485311    1.483495   -1.212950
 O   -6.845016    2.380336   -0.486499
 C   -5.107329   -0.595522   -0.786240
 C   -5.610340   -1.454261   -1.913642
 O   -6.308673   -1.093033   -2.829206
 O   -5.194933   -2.740420   -1.802886
 H    5.924181   -1.812815   -1.261150
 H    5.500119   -1.038711    0.272574
 H    7.867287   -0.895751   -2.260885
 H    9.349817    1.019456   -2.766574
 H    8.766170    3.289948   -1.953610
 H    6.695966    3.631098   -0.626996
 H    5.222942    1.708678   -0.112367
 H    2.041953   -0.044889   -1.684170
 H    1.023917   -2.517238   -0.435792
 H   -0.627845   -0.393806   -1.924589
 H    0.082918   -1.793686   -2.736431
 H   -3.207788   -2.697778   -2.028221
 H   -0.617993   -2.107440    1.164002
 H   -1.223098   -1.406605    3.193851
 H    0.025502    0.466614    4.380714
 H    1.112453    0.549974    2.992571
 H    0.641737   -1.897167    4.796666
 H    2.080619   -0.855678    4.771007
 H    3.118640   -2.107861    1.665028
 H   -0.410326    1.519984    1.336085
 H   -3.100112    2.647969    1.775837
 H   -2.574917    4.178587   -0.016153
 H    0.175020    2.830018   -0.273219
 H   -1.112999    2.800355   -1.478491
 H   -0.331104    4.334142   -1.053046
 H   -1.902035    4.738603    2.324980
 H   -0.298896    4.047593    2.032804
 H   -0.816912    5.486294    1.138061
 H   -4.850531    2.285368    0.396424
 H   -4.633319    0.995125   -2.156582
 H   -7.160957    1.018157   -1.948883
 H   -5.736970   -0.769898    0.094997
 H   -4.095416   -0.900914   -0.512528
 H   -5.610180   -3.226762   -2.535171
