57 
1fcx_ligand_xtb.xyz
 C    6.627956   -1.248358   -0.661199
 C    5.407149   -0.561848   -0.197041
 C    5.208820   -0.257525    1.166874
 C    4.072780    0.384556    1.565339
 C    3.081977    0.759725    0.631462
 C    3.277709    0.449871   -0.741218
 C    4.452913   -0.215082   -1.127891
 C   -2.784356   -0.313074    0.357626
 C   -2.863274   -1.691571    0.986640
 C   -3.972360   -2.523555    0.331824
 C   -5.249615   -1.723981    0.141858
 C   -5.052769   -0.542040   -0.814619
 C   -3.774805    0.205076   -0.481041
 C   -1.540234   -2.447368    0.790741
 C   -3.129986   -1.534965    2.490342
 C   -4.974763   -1.033692   -2.266750
 C   -6.274315    0.378197   -0.666352
 O    6.855945   -1.549785   -1.807924
 O    7.500979   -1.521272    0.325080
 C    1.911232    1.440762    1.019056
 C    0.973426    1.811775    0.093462
 C    1.165800    1.494123   -1.266828
 C    2.285637    0.829887   -1.672735
 C   -1.499011    1.733394    0.099609
 C   -1.674467    0.473909    0.645801
 C   -3.575290    1.460590   -1.049402
 C   -2.458165    2.221580   -0.773053
 C   -0.283567    2.550135    0.487864
 O   -0.264884    2.812912    1.878968
 H    5.967826   -0.538959    1.879603
 H    3.915645    0.622452    2.607496
 H    4.621368   -0.456505   -2.167346
 H   -3.622258   -2.882701   -0.637512
 H   -4.175502   -3.400143    0.951124
 H   -5.587579   -1.345450    1.108443
 H   -6.036489   -2.373391   -0.248450
 H   -0.737495   -2.023663    1.386987
 H   -1.666181   -3.486250    1.089638
 H   -1.238655   -2.422691   -0.254435
 H   -4.069994   -1.018335    2.668025
 H   -2.336830   -0.958633    2.960075
 H   -3.175043   -2.511670    2.967875
 H   -4.857909   -0.193966   -2.947549
 H   -4.126357   -1.698203   -2.408343
 H   -5.884312   -1.568686   -2.532360
 H   -7.185712   -0.213275   -0.728600
 H   -6.256484    0.883147    0.297370
 H   -6.313572    1.131069   -1.448213
 H    8.276884   -1.968565   -0.046247
 H    1.757507    1.685075    2.058620
 H    0.409939    1.784587   -1.982340
 H    2.434853    0.587691   -2.714854
 H   -0.912718    0.110338    1.317997
 H   -4.314213    1.862877   -1.724877
 H   -2.337768    3.194470   -1.229210
 H   -0.306853    3.506796   -0.065339
 H   -1.128947    3.154643    2.131219
