38 
1fh9_ligand_xtb.xyz
 C    1.346258   -0.334247    0.127613
 C    2.611415   -1.187401   -0.068335
 C    3.837386   -0.318331    0.215348
 C    3.792483    0.935606   -0.668560
 C    2.435579    1.629981   -0.500024
 O    2.632549   -2.290656    0.804804
 O    5.037772   -1.003737   -0.051412
 O    4.806136    1.839114   -0.318120
 O    1.366710    0.754080   -0.762235
 C   -3.790153   -0.088131    0.018483
 C   -2.852510    0.886440    0.671834
 C   -1.388435    0.673713    0.244080
 C   -1.001036   -0.799709    0.415190
 C   -1.985300   -1.720915   -0.315393
 N   -3.369468   -1.371762   -0.108161
 O   -5.832731   -0.590974   -0.843956
 N   -4.954638    0.351594   -0.259746
 O   -3.197988    2.223115    0.409465
 O   -0.577394    1.466185    1.075840
 O    0.254543   -1.150358   -0.153804
 H    1.306510    0.030476    1.170461
 H    2.633158   -1.525416   -1.115879
 H    3.808906   -0.014653    1.275142
 H    3.910895    0.612599   -1.715307
 H    2.365093    2.029389    0.521009
 H    2.342591    2.449363   -1.212637
 H    1.775460   -2.727688    0.733806
 H    4.966747   -1.873281    0.360317
 H    5.629019    1.335788   -0.270656
 H   -2.899151    0.706943    1.762980
 H   -1.260827    0.966869   -0.807668
 H   -0.978721   -1.007728    1.496567
 H   -1.719339   -1.675940   -1.381162
 H   -1.831013   -2.748051    0.025915
 H   -4.035499   -1.966843   -0.585048
 H   -6.640926   -0.083041   -0.986499
 H   -4.131021    2.229860    0.154836
 H   -0.924011    2.366341    1.023115
