38 
1fh9_ligand_dft.xyz
 C    1.346175   -0.313831    0.069953
 C    2.591342   -1.190507   -0.027232
 C    3.810620   -0.326688    0.253257
 C    3.828500    0.880829   -0.675228
 C    2.487538    1.609439   -0.589552
 O    2.579579   -2.230976    0.928122
 O    5.022278   -1.028510    0.067389
 O    4.849632    1.783112   -0.321104
 O    1.427652    0.719232   -0.882279
 C   -3.807282   -0.090492    0.044346
 C   -2.860853    0.872025    0.716025
 C   -1.419462    0.703483    0.227065
 C   -1.009659   -0.764383    0.346940
 C   -1.991827   -1.646023   -0.429723
 N   -3.380776   -1.386797   -0.074381
 O   -5.763469   -0.647039   -0.822599
 N   -4.971622    0.359156   -0.247291
 O   -3.228047    2.215081    0.528687
 O   -0.590669    1.504965    1.039302
 O    0.242425   -1.105572   -0.229813
 H    1.259109    0.109778    1.081103
 H    2.651046   -1.589839   -1.050611
 H    3.737561    0.041340    1.290478
 H    3.964017    0.514039   -1.704955
 H    2.364243    2.048118    0.412373
 H    2.441984    2.412021   -1.327467
 H    1.787513   -2.755253    0.753599
 H    4.974833   -1.817977    0.622224
 H    5.656569    1.257353   -0.238011
 H   -2.863021    0.630682    1.791831
 H   -1.352831    1.007185   -0.827833
 H   -1.006326   -1.030767    1.414310
 H   -1.805772   -1.471310   -1.498837
 H   -1.767239   -2.694872   -0.220220
 H   -4.055851   -1.981054   -0.538203
 H   -6.594036   -0.190887   -0.997292
 H   -4.155688    2.213642    0.244540
 H   -0.934928    2.405848    0.967942
