28 
1fj4_ligand_ani.xyz
 S   -1.053688    1.413305   -0.978775
 C   -2.232508    0.055386   -0.803504
 C   -1.806419   -0.853599    0.268981
 C   -0.676654   -0.438606    0.866189
 C   -0.127797    0.930886    0.544780
 C    1.375656    0.931694    0.327746
 C    2.140513    0.021895   -0.293615
 C    3.603587    0.099320   -0.093683
 C    4.509866   -0.770774   -0.540888
 O   -3.213272   -0.061471   -1.493714
 C   -2.583183   -2.096676    0.559361
 O   -0.032787   -1.175319    1.796901
 C   -0.458610    1.917184    1.687259
 C    1.586751   -1.058167   -1.180473
 H    1.871998    1.802958    0.757631
 H    3.948947    0.954847    0.491872
 H    4.227778   -1.640671   -1.129853
 H    5.566482   -0.636521   -0.329356
 H   -3.631044   -1.852758    0.757911
 H   -2.166540   -2.624799    1.420104
 H   -2.570075   -2.767255   -0.306536
 H    0.868098   -0.825072    1.872533
 H    0.000905    1.567061    2.618403
 H   -1.538433    1.991752    1.834388
 H   -0.075696    2.912141    1.443330
 H    2.274561   -1.281409   -1.999194
 H    0.633766   -0.760925   -1.626104
 H    1.429521   -1.989169   -0.623143
