126 
1fkf_ligand_ani.xyz
 C   -0.777854   -0.997977    1.144964
 C   -0.858612   -2.362246    1.827012
 C   -2.082768   -2.423675    2.750222
 C   -1.981745   -1.445462    3.929079
 C   -0.536130   -1.342145    4.446070
 C    0.272155   -2.566184    4.046582
 C    1.589333   -2.809311    2.037406
 C    1.738217   -2.772132    0.500978
 C    3.156571   -2.684460   -0.120816
 C    3.162994   -3.090963   -1.596572
 C    4.549976   -2.788174   -2.156476
 C    4.931135   -1.326495   -1.908072
 C    4.787143   -0.988233   -0.423143
 C    5.073547    0.491743   -0.104445
 C    4.747423    0.777142    1.365428
 C    5.145424    2.155365    1.928035
 C    4.390085    3.364162    1.332659
 C    2.882331    3.263298    1.254948
 C    2.234106    3.619017    0.139592
 C    0.762065    3.412969   -0.156599
 C    0.661392    2.548298   -1.424893
 C    1.018513    1.087760   -1.284321
 C    0.162381    0.145894   -2.138350
 C   -1.367298    0.295233   -1.945881
 C   -1.837955    0.401618   -0.481473
 C   -3.268651    0.905527   -0.392901
 C   -4.286249    0.041782   -0.348886
 C   -5.754030    0.361592   -0.305218
 C   -6.564187   -0.618669   -1.168005
 C   -8.057013   -0.305119   -1.101017
 C   -8.559481   -0.314635    0.340404
 C   -7.766077    0.646310    1.211585
 C   -6.268934    0.339512    1.144608
 C    2.775861   -4.554629   -1.784706
 C    6.655869    2.394168    1.838211
 C    2.140412    2.784122    2.478266
 C    0.068101    4.732448   -0.374881
 C   -0.744251    5.353620    0.477002
 C   -1.210695    4.861803    1.816294
 C   -2.079158   -0.826044   -2.705055
 C   -3.418374    2.403076   -0.410652
 C    6.540996   -1.167707   -3.636671
 C    5.038983    1.973822   -1.979665
 C   -8.849453   -1.107250   -3.184337
 N    0.356504   -2.646845    2.585166
 O   -1.722407   -0.879863    0.192645
 O   -0.005511   -0.123735    1.469567
 O    2.596282   -2.976593    2.733697
 O    0.770289   -2.746742   -0.232224
 O    3.473879   -1.316103    0.019593
 O    4.070671   -3.497305    0.556145
 O    6.273707   -1.053829   -2.257695
 O    4.313992    1.353061   -0.939679
 O    0.369104    3.024505   -2.503582
 O    0.483854    0.312729   -3.504933
 O   -8.856517   -1.253507   -1.784248
 O   -9.924319    0.051013    0.377283
 H   -0.977540   -3.120537    1.053381
 H   -2.158765   -3.453329    3.118478
 H   -2.987705   -2.237246    2.161713
 H   -2.329401   -0.451200    3.625827
 H   -2.657778   -1.788815    4.720018
 H   -0.053104   -0.470149    3.992878
 H   -0.511381   -1.211156    5.533302
 H   -0.174290   -3.489528    4.440290
 H    1.292432   -2.513695    4.423806
 H    2.420177   -2.451765   -2.092926
 H    5.296518   -3.436999   -1.681707
 H    4.561343   -3.004230   -3.232253
 H    4.248917   -0.684314   -2.485736
 H    5.519253   -1.592498    0.129282
 H    6.144853    0.656325   -0.290453
 H    3.671526    0.622736    1.516698
 H    5.256769    0.013626    1.973244
 H    4.890165    2.114115    2.996592
 H    4.784415    3.575986    0.332853
 H    4.647374    4.234132    1.957511
 H    2.786365    4.084812   -0.677863
 H    0.302612    2.840264    0.665599
 H    2.065619    0.995947   -1.599761
 H    0.971613    0.808841   -0.230367
 H    0.453630   -0.879379   -1.877843
 H   -1.631639    1.254102   -2.413024
 H   -1.210158    1.102101    0.068800
 H   -4.041036   -1.020211   -0.279787
 H   -5.930682    1.370031   -0.711819
 H   -6.207621   -0.581033   -2.205284
 H   -6.405176   -1.646876   -0.813691
 H   -8.246381    0.698090   -1.521186
 H   -8.427849   -1.344243    0.719956
 H   -7.960363    1.669143    0.858789
 H   -8.136028    0.590169    2.241431
 H   -6.078276   -0.658375    1.567577
 H   -5.698846    1.050838    1.754345
 H    3.475572   -5.207524   -1.254363
 H    2.789581   -4.818280   -2.847641
 H    1.769117   -4.743539   -1.403335
 H    6.980729    2.502043    0.795861
 H    6.941890    3.312606    2.364228
 H    7.219946    1.564575    2.280119
 H    2.810248    2.696432    3.339424
 H    1.673420    1.803280    2.307389
 H    1.342099    3.484039    2.755208
 H    0.315971    5.209964   -1.317079
 H   -1.108835    6.341917    0.199392
 H   -2.288169    5.027206    1.933054
 H   -0.729253    5.420162    2.629003
 H   -1.011520    3.797161    1.972697
 H   -3.164371   -0.681281   -2.699096
 H   -1.732458   -0.843031   -3.742492
 H   -1.867832   -1.798699   -2.247343
 H   -2.831837    2.857179    0.395532
 H   -3.058708    2.831975   -1.354891
 H   -4.458712    2.713110   -0.276309
 H    6.607022   -2.214107   -3.962408
 H    5.768658   -0.660907   -4.236792
 H    7.504772   -0.685042   -3.820056
 H    5.607870    1.249811   -2.576352
 H    4.305878    2.472139   -2.621200
 H    5.733984    2.732802   -1.586724
 H   -9.130834   -0.086561   -3.483196
 H   -7.871870   -1.345200   -3.626736
 H   -9.589270   -1.805914   -3.582584
 H    3.897230   -3.359209    1.511607
 H    0.430515    1.268040   -3.672277
 H  -10.356675   -0.514561   -0.277887
