68 
1fkg_ligand_xtb.xyz
 C    1.000190   -0.639209    1.341222
 O    0.944665   -0.283394    0.067957
 O    2.000271   -0.688998    2.007021
 C   -0.399369   -0.933646    1.895214
 C   -0.381503   -2.133682    2.840508
 C   -0.254102   -3.432673    2.051516
 C   -1.390836   -3.520034    1.038639
 C   -1.322737   -2.328271    0.087297
 N   -1.371024   -1.089033    0.831179
 C   -2.080551   -0.013096    0.452876
 O   -2.062999    1.050800    1.052555
 C   -2.928775   -0.151632   -0.809287
 O   -2.406858   -0.127940   -1.898210
 C   -4.430147   -0.153586   -0.584148
 C   -4.835557    1.333970   -0.431941
 C   -4.672659    2.165757   -1.697784
 C   -4.779205   -0.895112    0.709857
 C   -5.133340   -0.807722   -1.774027
 C    2.163594    0.176474   -0.538262
 C    1.779093    0.948051   -1.802533
 C    0.810281    2.100119   -1.505139
 C    1.321385    2.995316   -0.411102
 C    2.465597    3.761344   -0.602626
 C    2.960526    4.556693    0.414748
 C    2.316571    4.596761    1.640011
 C    1.172156    3.843962    1.837314
 C    0.677268    3.048399    0.818328
 C    3.077641   -0.980268   -0.853504
 C    2.575751   -2.119359   -1.469409
 C    3.410299   -3.182664   -1.762560
 C    4.757549   -3.112001   -1.451984
 C    5.264781   -1.975966   -0.844547
 C    4.428240   -0.916129   -0.542460
 H   -0.686184   -0.027018    2.447118
 H    0.462150   -2.013927    3.520568
 H   -1.303795   -2.146893    3.424504
 H    0.706403   -3.451261    1.531679
 H   -0.286982   -4.284808    2.731641
 H   -1.323182   -4.442639    0.461041
 H   -2.348249   -3.514980    1.564796
 H   -2.154218   -2.351908   -0.619021
 H   -0.387953   -2.371627   -0.482956
 H   -4.229413    1.770806    0.363721
 H   -5.880426    1.360451   -0.112842
 H   -5.374154    1.855526   -2.467964
 H   -4.858601    3.212921   -1.470688
 H   -3.663674    2.079281   -2.093218
 H   -4.324654   -0.411933    1.571392
 H   -5.858102   -0.896133    0.849936
 H   -4.441266   -1.929268    0.668926
 H   -4.724185   -0.431979   -2.707451
 H   -6.200075   -0.601235   -1.742456
 H   -4.988897   -1.886510   -1.750196
 H    2.657171    0.847025    0.176887
 H    1.311376    0.261462   -2.509692
 H    2.700419    1.327768   -2.247644
 H   -0.155620    1.685641   -1.215383
 H    0.670620    2.675706   -2.423571
 H    2.970667    3.737126   -1.558405
 H    3.850783    5.147410    0.251920
 H    2.704193    5.215734    2.435970
 H    0.661190    3.875051    2.788638
 H   -0.221753    2.470545    0.976104
 H    1.525327   -2.170696   -1.719794
 H    3.008904   -4.066539   -2.236849
 H    5.410015   -3.941445   -1.681339
 H    6.314656   -1.917699   -0.598715
 H    4.821194   -0.035250   -0.056806
