68 
1fkg_ligand_ani.xyz
 C    1.052810   -0.753423    1.257153
 O    1.006288   -0.183125    0.039897
 O    2.072851   -0.948891    1.873797
 C   -0.338016   -1.081477    1.813368
 C   -0.277386   -2.255021    2.785540
 C   -0.138107   -3.573900    2.032377
 C   -1.281347   -3.721570    1.034505
 C   -1.302400   -2.554247    0.055652
 N   -1.350974   -1.287914    0.787582
 C   -2.074346   -0.201973    0.411055
 O   -2.043996    0.869065    1.010271
 C   -3.025889   -0.374445   -0.788357
 O   -2.575385   -0.618979   -1.886644
 C   -4.519329   -0.146034   -0.546090
 C   -4.785778    1.373765   -0.570320
 C   -4.597218    2.047956   -1.927668
 C   -4.881035   -0.688789    0.838886
 C   -5.317369   -0.882745   -1.625140
 C    2.267274    0.284083   -0.488827
 C    1.937023    1.092654   -1.737807
 C    0.873269    2.173683   -1.501461
 C    1.213509    3.128737   -0.376933
 C    2.315041    3.982674   -0.475862
 C    2.646705    4.843507    0.566048
 C    1.881327    4.858021    1.728223
 C    0.782840    4.012159    1.840256
 C    0.449407    3.154746    0.794422
 C    3.212703   -0.862190   -0.806434
 C    2.779149   -1.976285   -1.524802
 C    3.668027   -2.997689   -1.845691
 C    5.002678   -2.912155   -1.456016
 C    5.443509   -1.802573   -0.741412
 C    4.548168   -0.784832   -0.420379
 H   -0.647495   -0.174986    2.347106
 H    0.559603   -2.097140    3.471850
 H   -1.204472   -2.260550    3.370299
 H    0.829678   -3.599083    1.511175
 H   -0.137819   -4.410832    2.739059
 H   -1.197718   -4.661626    0.475579
 H   -2.239617   -3.747615    1.570012
 H   -2.173521   -2.623016   -0.596084
 H   -0.415271   -2.571845   -0.590033
 H   -4.118114    1.829192    0.169920
 H   -5.815361    1.541167   -0.221722
 H   -5.342399    1.704675   -2.653862
 H   -4.709468    3.132809   -1.832466
 H   -3.603628    1.848497   -2.343667
 H   -4.392493   -0.113844    1.629598
 H   -5.964636   -0.630455    0.992960
 H   -4.580576   -1.738141    0.935991
 H   -4.990211   -0.596769   -2.627667
 H   -6.386317   -0.661179   -1.522731
 H   -5.187498   -1.965794   -1.524788
 H    2.724888    0.929916    0.269043
 H    1.587245    0.406673   -2.518943
 H    2.864083    1.544323   -2.107176
 H   -0.084813    1.691367   -1.278959
 H    0.736836    2.734492   -2.436058
 H    2.920668    3.975197   -1.381618
 H    3.506098    5.503208    0.470725
 H    2.140127    5.529304    2.543576
 H    0.178406    4.021710    2.744266
 H   -0.417998    2.502406    0.885866
 H    1.739820   -2.048153   -1.844650
 H    3.318956   -3.859953   -2.408148
 H    5.696640   -3.710565   -1.708647
 H    6.482991   -1.729485   -0.431287
 H    4.890824    0.081112    0.144102
