37 
1flr_ligand_ani.xyz
 C   -1.340193    3.709339   -0.436599
 O   -1.825777    4.975708   -0.434417
 C   -0.014184    3.419286   -0.158368
 C    0.418737    2.100019   -0.182481
 O    1.738947    1.909574    0.073812
 C    2.281848    0.652990    0.010947
 C    3.618808    0.587808    0.233531
 C    4.309646   -0.691725    0.231307
 O    5.514871   -0.796910    0.428230
 C    3.465584   -1.872496   -0.025050
 C    2.140599   -1.750445   -0.235764
 C    1.448074   -0.484540   -0.245440
 C    0.054850   -0.315270   -0.386643
 C   -0.454032    1.029452   -0.447526
 C   -1.795758    1.374020   -0.755628
 C   -2.236694    2.674856   -0.744970
 C   -0.869437   -1.460288   -0.480132
 C   -0.787530   -2.293107   -1.601026
 C   -1.698941   -3.321940   -1.805443
 C   -2.714362   -3.545938   -0.881196
 C   -2.797770   -2.742751    0.248147
 C   -1.875684   -1.727750    0.478173
 C   -2.056142   -0.969988    1.782081
 O   -0.971221   -0.390525    2.323089
 O   -3.122501   -0.905745    2.337086
 H   -1.110783    5.587202   -0.215809
 H    0.708346    4.198749    0.070500
 H    4.187925    1.489845    0.423671
 H    3.955510   -2.839379   -0.027319
 H    1.555239   -2.651387   -0.391132
 H   -2.485589    0.575924   -1.013158
 H   -3.267433    2.926960   -0.970868
 H    0.011056   -2.124255   -2.321125
 H   -1.613401   -3.949221   -2.687795
 H   -3.435525   -4.343002   -1.038494
 H   -3.580551   -2.884272    0.987365
 H   -0.183859   -0.553177    1.774248
