71 
1fm9_ligand_ani.xyz
 N    3.310884   -0.304786    1.178470
 C    3.768484   -1.627973    1.502035
 C    3.964048   -2.572080    0.275077
 C    2.679646   -2.795663   -0.486439
 C    1.691705   -3.647095    0.019292
 C    2.376300   -2.052545   -1.624476
 C    0.423081   -3.687961   -0.534422
 C    1.098282   -2.049476   -2.173628
 C    0.107094   -2.855948   -1.612996
 O   -1.174036   -2.918470   -2.063312
 C    2.002578    0.023620    0.894021
 C    1.694146    1.120460    0.043965
 C    0.382095    1.251460   -0.419282
 C   -0.647926    0.444478    0.045607
 C   -0.360881   -0.526007    1.002156
 C    0.945247   -0.724237    1.423813
 C    2.401350    3.492338   -0.735633
 C    1.330445    4.189120   -0.163899
 C    1.088811    5.513436   -0.513799
 C    1.913185    6.157920   -1.432187
 C    2.996738    5.478856   -1.984702
 C    3.247396    4.161182   -1.626072
 C    2.749368    2.079140   -0.396852
 O    3.923174    1.733207   -0.511052
 O   -4.198679   -1.538397    0.641560
 C   -4.388464   -0.318273    0.083055
 N   -4.107878   -0.272404   -1.181486
 C   -3.696731   -1.561840   -1.500740
 C   -3.745513   -2.330238   -0.381102
 C   -3.406656   -3.735070   -0.062044
 C   -4.837342    0.768054    0.958387
 C   -5.017843    2.039832    0.414843
 C   -5.427938    3.087781    1.230205
 C   -5.655598    2.866024    2.586658
 C   -5.472638    1.594965    3.128607
 C   -5.062872    0.543606    2.317860
 C   -1.651306   -1.899388   -2.930783
 C   -3.176697   -1.916756   -2.857768
 O    5.830822   -0.523050    2.116330
 O    5.443888   -2.599307    2.877873
 C    5.111002   -1.487220    2.198786
 H    4.012347    0.318938    0.789644
 H    3.075021   -2.106428    2.199667
 H    4.731621   -2.143184   -0.380440
 H    4.359953   -3.519925    0.655907
 H    1.913220   -4.271401    0.884995
 H    3.137958   -1.406932   -2.061842
 H   -0.348214   -4.337236   -0.128989
 H    0.885629   -1.423197   -3.034964
 H    0.162708    2.021814   -1.155195
 H   -1.663976    0.584849   -0.317861
 H   -1.153131   -1.149832    1.412588
 H    1.151051   -1.501509    2.155668
 H    0.685728    3.697638    0.560820
 H    0.245607    6.038903   -0.074222
 H    1.717149    7.190072   -1.709539
 H    3.653238    5.980714   -2.691271
 H    4.101693    3.625624   -2.029501
 H   -2.640915   -3.773505    0.721626
 H   -4.279989   -4.284215    0.306042
 H   -3.011879   -4.231700   -0.949937
 H   -4.830107    2.189595   -0.645318
 H   -5.569320    4.079843    0.809170
 H   -5.975471    3.686259    3.224052
 H   -5.648938    1.424596    4.188083
 H   -4.914929   -0.450207    2.729944
 H   -1.314515   -2.096790   -3.957026
 H   -1.270354   -0.919386   -2.617008
 H   -3.517448   -2.919537   -3.145992
 H   -3.577565   -1.205760   -3.586477
 H    6.325849   -2.436654    3.252020
