73 
1fpc_ligand_dft.xyz
 C   -0.048918   -2.000194    1.038402
 C    0.152104   -1.180324    2.121381
 C   -0.878516   -0.328738    2.564326
 C   -2.071409   -0.295622    1.894610
 C   -2.321500   -1.154571    0.793665
 C   -3.567179   -1.093168    0.086884
 C   -3.751842   -1.882368   -1.023289
 C   -2.747394   -2.777687   -1.443595
 C   -1.560189   -2.879978   -0.771835
 C   -1.303178   -2.048098    0.349915
 N   -4.553740   -0.182470    0.559104
 C   -5.309030   -0.685343    1.702012
 C   -5.430205    0.378390   -0.451886
 S    1.414311   -2.805550    0.379513
 O    1.128574   -4.177946   -0.002025
 O    2.502177   -2.509337    1.304278
 N    1.758998   -1.989105   -1.034980
 C    1.762897   -0.523953   -0.962865
 C    0.397925   -0.030406   -1.476483
 O   -0.084437   -0.624852   -2.439831
 C    2.867867    0.068411   -1.849413
 C    4.257150   -0.537451   -1.642533
 C    4.810933   -0.455876   -0.214962
 N    4.787622    0.889579    0.339070
 C    3.854981    1.314387    1.265715
 N    3.741956    2.710725    1.309600
 N    3.098598    0.617458    2.032519
 N   -0.221059    1.003895   -0.863115
 C   -1.503140    1.466659   -1.385462
 C   -1.353633    2.855931   -2.009766
 C   -0.729074    3.869286   -1.032696
 C    0.578716    3.282535   -0.472066
 C    0.364620    1.895155    0.133076
 C   -1.733115    4.291538    0.054931
 C   -1.195874    5.327568    1.041621
 H    1.120687   -1.148876    2.603904
 H   -0.693011    0.336266    3.401344
 H   -2.840240    0.416162    2.174223
 H   -4.685322   -1.837570   -1.574655
 H   -2.928111   -3.404648   -2.311063
 H   -0.818255   -3.600695   -1.090793
 H   -4.630117   -1.093064    2.454416
 H   -6.017839   -1.480014    1.412201
 H   -5.874466    0.136373    2.154520
 H   -5.962679    1.232259   -0.019952
 H   -6.188275   -0.332597   -0.825740
 H   -4.836423    0.732436   -1.298958
 H    1.152460   -2.299605   -1.795685
 H    1.947090   -0.244050    0.073430
 H    2.890999    1.150913   -1.664272
 H    2.577526   -0.067563   -2.897433
 H    4.950769   -0.034717   -2.330474
 H    4.237617   -1.593558   -1.930436
 H    5.841918   -0.827252   -0.209826
 H    4.242873   -1.121179    0.437707
 H    5.070497    1.606797   -0.315251
 H    4.627094    3.200487    1.252627
 H    3.231896    2.983384    2.140442
 H    3.213378   -0.383448    1.886711
 H   -1.848237    0.734258   -2.114681
 H   -2.220256    1.479931   -0.554413
 H   -0.717030    2.763933   -2.898611
 H   -2.334777    3.209935   -2.350089
 H   -0.474111    4.775682   -1.599468
 H    1.313400    3.195898   -1.283018
 H    1.024930    3.941404    0.279274
 H    1.295184    1.490888    0.527860
 H   -0.328472    1.946705    0.981085
 H   -2.617699    4.702290   -0.448998
 H   -2.088681    3.416129    0.612982
 H   -0.415999    4.910167    1.687000
 H   -1.994663    5.696167    1.693170
 H   -0.767734    6.189161    0.515811
