22 
1ftl_ligand_ani.xyz
 O   -4.441674    1.409202    0.090771
 O   -4.441759   -1.407804   -0.103379
 C   -3.418068    0.764838    0.049444
 C   -3.418178   -0.764154   -0.052175
 N   -2.178101    1.349891    0.089706
 N   -2.178252   -1.350168   -0.079609
 C   -0.942807    0.699271    0.043739
 C   -0.942803   -0.699754   -0.033051
 C    0.254506    1.402564    0.051295
 C    0.254385   -1.403151   -0.042665
 C    1.441512    0.698475   -0.011069
 C    1.441697   -0.699093    0.014986
 N    2.670000    1.470796   -0.220533
 N    2.671651   -1.471200    0.217415
 O    2.740292    2.560857    0.322393
 O    2.733640   -2.567476   -0.313749
 O    3.505132    0.986579   -0.957037
 O    3.517347   -0.979908    0.937098
 H   -2.200775    2.360234    0.151729
 H   -2.201014   -2.360548   -0.141499
 H    0.289810    2.485607    0.087075
 H    0.289605   -2.486098   -0.077976
