37 
1fv0_ligand_ani.xyz
 C   -2.408433   -0.458743    0.301918
 C   -3.233606    0.652318    0.237747
 C   -2.642393    1.871769   -0.013384
 C   -1.273706    2.006519   -0.143716
 C   -0.405654    0.913338   -0.098606
 C   -1.032275   -0.367464   -0.079814
 C    1.050765    0.998885   -0.070860
 C    1.800408   -0.191414   -0.184643
 C    1.144086   -1.443301   -0.434591
 C   -0.205243   -1.486685   -0.454397
 C    1.744847    2.220003    0.090697
 C    3.117660    2.258633    0.152896
 C    3.862995    1.072893    0.065142
 C    3.211432   -0.131261   -0.085693
 C   -2.190248    4.031403   -0.127917
 C   -3.059910   -1.696091    0.858104
 C    4.013755   -1.986203    1.081199
 O    3.979784   -1.273617   -0.151979
 O   -3.251074    3.086953   -0.149269
 O   -0.982111    3.325923   -0.373302
 O   -2.246509   -2.572300    1.466671
 O   -4.250867   -1.863618    0.832988
 O    5.218735    1.121027    0.138238
 O   -1.944200   -2.575323   -1.463026
 O   -0.177896   -3.735750   -0.967263
 N   -0.828309   -2.707076   -0.996907
 H   -4.295903    0.530233    0.417720
 H    1.723915   -2.335140   -0.626131
 H    1.181359    3.142217    0.161275
 H    3.654008    3.195598    0.273684
 H   -2.351180    4.774344   -0.913314
 H   -2.135796    4.504144    0.864008
 H    4.555210   -1.411964    1.844875
 H    3.000781   -2.197624    1.442754
 H    4.539434   -2.922424    0.886837
 H   -1.335958   -2.244363    1.444490
 H    5.528515    0.220579   -0.046789
