37 
1fv0_ligand_xtb.xyz
 C   -2.455880   -0.375436    0.137350
 C   -3.221453    0.782126    0.160503
 C   -2.559844    1.986131    0.052341
 C   -1.173545    2.062734   -0.021022
 C   -0.364999    0.925507   -0.066574
 C   -1.059112   -0.325580   -0.056266
 C    1.075456    0.970817   -0.095513
 C    1.801583   -0.245551   -0.118804
 C    1.097034   -1.464855   -0.279930
 C   -0.262138   -1.499677   -0.278209
 C    1.795625    2.173812   -0.092071
 C    3.168228    2.184303   -0.105879
 C    3.892733    0.987406   -0.101664
 C    3.208003   -0.222810   -0.087584
 C   -2.007435    4.128678   -0.005773
 C   -3.219093   -1.631427    0.451227
 C    3.979873   -2.095432    1.136217
 O    3.966561   -1.381904   -0.090509
 O   -3.095822    3.237766    0.073952
 O   -0.806601    3.381368   -0.029816
 O   -2.630480   -2.436422    1.365636
 O   -4.313260   -1.864343    0.038664
 O    5.239556    1.013094   -0.115023
 O   -1.848931   -2.686858   -1.392425
 O   -0.281082   -3.767573   -0.385446
 N   -0.857621   -2.750261   -0.700980
 H   -4.290506    0.727038    0.274841
 H    1.648694   -2.369684   -0.490715
 H    1.264183    3.108876   -0.081503
 H    3.718457    3.111383   -0.110610
 H   -2.084018    4.730766   -0.925233
 H   -2.007266    4.796052    0.869561
 H    4.466310   -1.509906    1.924119
 H    2.972418   -2.361454    1.464042
 H    4.552194   -3.001445    0.947688
 H   -1.802334   -2.081933    1.715455
 H    5.555461    0.096644   -0.171165
