10 
1fwe_ligand_ani.xyz
 C    1.805647   -0.446764   -0.023782
 C    0.426995    0.157481    0.016664
 O    0.198969    1.360414    0.000575
 N   -0.606216   -0.727339    0.124672
 O   -1.875340   -0.183965   -0.040561
 H    2.281910   -0.184145   -0.971892
 H    2.400702   -0.006219    0.779300
 H    1.792993   -1.534108    0.088832
 H   -0.550698   -1.633657   -0.318125
 H   -1.666274    0.773599   -0.088226
