75 
1fwu_ligand_ani.xyz
 C    1.272202   -1.166477    0.344174
 C    2.565088   -0.769305   -0.351497
 C    3.651478   -0.565129    0.688293
 C    3.217912    0.458635    1.735112
 C    1.824006    0.114280    2.281822
 C    1.215483    1.228313    3.128831
 O    0.285709   -1.297233   -0.642392
 O    2.957933   -1.765349   -1.279766
 O    4.815192    0.039331    0.048601
 O    3.203410    1.745729    1.135745
 O    0.885635   -0.161675    1.246373
 O    0.891889    2.384891    2.391080
 S    6.011963   -0.895163   -0.493444
 O    5.558051   -1.157315   -1.993472
 O    7.183096   -0.072134   -0.546455
 O    5.984374   -2.136644    0.247134
 C   -3.650304   -2.749211   -0.792008
 C   -3.401186   -1.346753   -0.190605
 C   -2.073845   -0.801501   -0.741883
 C   -0.981846   -1.693753   -0.146547
 C   -1.267779   -3.169809   -0.490702
 C   -1.243593   -4.067923    0.754461
 C   -5.757727   -0.650653    0.099804
 C   -6.725375    0.504747   -0.027529
 N   -4.522324   -0.448504   -0.423511
 O   -4.284231   -3.584992    0.146673
 O   -2.467754   -3.334366   -1.248063
 O   -2.108150   -3.635498    1.777085
 O   -6.110251   -1.706476    0.631198
 C   -1.946343    1.541157   -1.329309
 C   -2.613947    2.775862   -0.737376
 C   -1.734891    3.321110    0.375068
 C   -0.378066    3.691329   -0.215744
 C    0.215995    2.463892   -0.911376
 C    1.485843    2.792595   -1.667183
 O   -1.852814    0.543328   -0.336823
 O   -3.900926    2.430277   -0.252978
 O   -2.410138    4.477879    0.872996
 O   -0.520065    4.741367   -1.143748
 O   -0.695940    1.882127   -1.858115
 H    1.395655   -2.125085    0.881380
 H    2.384007    0.186098   -0.861231
 H    3.940194   -1.513424    1.149865
 H    3.932532    0.448220    2.571569
 H    1.931008   -0.782227    2.916078
 H    0.284936    0.854611    3.566966
 H    1.907717    1.463672    3.953548
 H    2.161159   -1.982646   -1.786483
 H    4.023975    1.800422    0.620160
 H    1.689330    2.601330    1.878253
 H    4.679539   -1.604517   -1.962694
 H   -4.278487   -2.672649   -1.690661
 H   -3.272302   -1.491268    0.894631
 H   -2.039996   -0.870868   -1.836821
 H   -1.014444   -1.571314    0.946003
 H   -0.493505   -3.524472   -1.178588
 H   -1.473597   -5.096695    0.441951
 H   -0.225232   -4.054284    1.165818
 H   -7.221708    0.648986    0.936163
 H   -7.497928    0.243456   -0.758475
 H   -6.235509    1.432382   -0.330883
 H   -4.292814    0.515660   -0.640701
 H   -5.101693   -3.099046    0.421461
 H   -3.009126   -3.734069    1.410699
 H   -2.537321    1.166352   -2.178357
 H   -2.697717    3.537209   -1.519763
 H   -1.604327    2.561306    1.158101
 H    0.300593    3.988900    0.601824
 H    0.418430    1.713040   -0.135925
 H    2.279296    3.084579   -0.969901
 H    1.813249    1.914715   -2.231818
 H    1.313000    3.611490   -2.369820
 H   -4.157716    3.152892    0.339271
 H   -2.107321    4.649031    1.772914
 H   -1.087796    5.395943   -0.710286
