75 
1fwv_ligand_xtb.xyz
 C   -0.971854    0.007409    0.373943
 C   -2.049507   -0.572266   -0.561419
 C   -3.126677   -1.119363    0.395652
 C   -2.506314   -2.268795    1.204574
 C   -1.240036   -1.759317    1.930720
 C   -0.425713   -2.904282    2.563321
 O   -0.020790    0.678491   -0.360761
 O   -2.546024    0.322198   -1.511963
 O   -4.255179   -1.616626   -0.288683
 O   -2.213258   -3.343049    0.346877
 O   -0.366540   -1.046201    1.087920
 O    0.156112   -3.760868    1.631983
 S   -5.355004   -0.500611   -0.672016
 O   -5.017826   -0.198465   -2.151470
 O   -6.615432   -1.134786   -0.613454
 O   -5.114785    0.641323    0.151088
 C    1.223493    4.035963    0.849697
 C    0.207695    3.002202    0.314822
 C    0.803557    1.579133    0.371105
 C    2.206082    1.550060   -0.263071
 C    3.070087    2.704926    0.288115
 C    4.420843    2.797885   -0.434223
 C   -2.237246    3.084757    0.453181
 C   -3.435507    3.293728    1.331650
 N   -1.028992    3.125829    1.059402
 O    0.735020    5.324554    0.781611
 O    2.416285    3.952472    0.125005
 O    4.268914    2.930442   -1.821086
 O   -2.332548    2.842909   -0.740585
 C    3.473569   -0.358815   -0.975729
 C    4.579130   -1.208471   -0.331237
 C    3.916616   -2.223816    0.611049
 C    2.943202   -3.080934   -0.207896
 C    1.948706   -2.165289   -0.946507
 C    1.047538   -2.928241   -1.909851
 O    2.821352    0.328399    0.069344
 O    5.485414   -0.383950    0.354781
 O    4.893820   -3.002825    1.254840
 O    3.746136   -3.876331   -1.062562
 O    2.609438   -1.160194   -1.715186
 H   -1.466120    0.681520    1.106038
 H   -1.603728   -1.408222   -1.115576
 H   -3.473344   -0.316592    1.056290
 H   -3.230040   -2.596315    1.968261
 H   -1.595533   -1.090657    2.736162
 H    0.397127   -2.472900    3.137756
 H   -1.093804   -3.452163    3.246182
 H   -2.428207    1.264411   -1.243891
 H   -2.983363   -3.467666   -0.224489
 H   -0.521287   -3.978880    0.975671
 H   -4.081360    0.108642   -2.162629
 H    1.411960    3.834549    1.920396
 H   -0.026437    3.220606   -0.735201
 H    0.894032    1.236335    1.409339
 H    2.095173    1.647178   -1.349143
 H    3.252415    2.515332    1.356333
 H    4.985861    1.881395   -0.254527
 H    4.971293    3.652008   -0.018556
 H   -3.887828    4.251878    1.083497
 H   -3.184594    3.277849    2.387950
 H   -4.169895    2.520519    1.099804
 H   -0.956924    3.411946    2.023731
 H    0.763733    5.618769   -0.137776
 H    3.760682    3.733590   -1.986425
 H    3.908702    0.344652   -1.696630
 H    5.097589   -1.756538   -1.134595
 H    3.375935   -1.681467    1.391424
 H    2.366120   -3.726207    0.472055
 H    1.339213   -1.682044   -0.174821
 H    1.628396   -3.330367   -2.737611
 H    0.317211   -2.240860   -2.325787
 H    0.535344   -3.729564   -1.384298
 H    5.855317   -0.922478    1.069113
 H    5.174301   -3.673785    0.617208
 H    3.168200   -4.324286   -1.687793
