62 
1g2a_ligand_ani.xyz
 C    3.738568    1.292157   -0.443781
 C    4.758861    0.186892   -0.300836
 O    5.512085    0.066850    0.659235
 N    4.795129   -0.699311   -1.338843
 O    5.611332   -1.804383   -1.136115
 C    2.531438    1.039963    0.469569
 C    1.730475   -0.159366   -0.039463
 O    1.876983   -0.621929   -1.166820
 C    1.616350    2.271907    0.607778
 C    0.891618    2.658857   -0.682167
 C   -0.027325    3.874933   -0.536802
 C   -1.207125    3.664171    0.413700
 C   -2.140021    4.871343    0.464722
 N    0.828319   -0.674818    0.846601
 C   -0.263117   -1.521409    0.417093
 C   -0.474991   -2.711231    1.386421
 C    0.694486   -3.688374    1.276176
 C   -0.682850   -2.267913    2.836822
 C   -1.535288   -0.655066    0.301040
 O   -1.657827    0.349262    1.012653
 N   -2.491306   -1.034248   -0.576163
 C   -3.670269   -0.188397   -0.859671
 C   -2.429161   -2.219260   -1.442330
 C   -3.813884   -2.268978   -2.086877
 C   -4.223981   -0.796333   -2.152131
 C   -4.682427   -0.172325    0.295410
 O   -4.373562    0.774698    1.282566
 H    3.421691    1.369638   -1.486764
 H    4.230864    2.223537   -0.148748
 H    3.887233   -0.971532   -1.715131
 H    5.968059   -1.627560   -0.239875
 H    2.914950    0.792092    1.468994
 H    0.881065    2.072034    1.398853
 H    2.220231    3.117565    0.963891
 H    1.632347    2.865788   -1.464914
 H    0.301312    1.800883   -1.034914
 H   -0.420650    4.139560   -1.527972
 H    0.558601    4.743022   -0.198081
 H   -1.767590    2.769137    0.109078
 H   -0.839123    3.452175    1.425769
 H   -1.601929    5.768686    0.792348
 H   -2.969194    4.705301    1.159946
 H   -2.566530    5.081315   -0.522780
 H    0.606643   -0.095154    1.643977
 H    0.012259   -1.917893   -0.564529
 H   -1.390727   -3.229462    1.069227
 H    0.777965   -4.103017    0.264761
 H    1.637877   -3.186133    1.516554
 H    0.564219   -4.525067    1.970819
 H   -0.948658   -3.130645    3.457548
 H    0.232269   -1.833510    3.255657
 H   -1.482458   -1.525294    2.926753
 H   -3.342220    0.848926   -1.006105
 H   -1.638408   -2.106100   -2.198360
 H   -2.210977   -3.119403   -0.859822
 H   -4.504426   -2.831556   -1.448640
 H   -3.796470   -2.749829   -3.068473
 H   -3.759433   -0.309291   -3.016778
 H   -5.306291   -0.654377   -2.237066
 H   -5.668294    0.101660   -0.103324
 H   -4.770628   -1.190094    0.716260
 H   -3.408792    0.727838    1.420481
