82 
1g2k_ligand_dft.xyz
 N   11.002822   23.457910    6.580577
 S   11.636742   21.967588    7.025971
 N   13.220678   22.081328    6.593778
 C   13.547754   21.917274    5.177312
 C   13.631783   23.246925    4.411830
 C   12.667836   24.322154    4.930171
 C   11.197144   23.952320    5.208393
 C    9.708782   23.809790    7.197478
 C    9.658049   25.301773    7.429336
 C    8.685910   26.093569    6.824439
 C    8.659502   27.475578    7.036403
 C    9.611449   28.058181    7.870434
 C   10.593423   27.273983    8.468132
 C   10.619217   25.902905    8.245825
 O   11.045601   20.898408    6.235396
 O   14.876729   20.740801    3.639451
 C   15.991585   20.090383    3.207966
 C   17.020905   19.658148    4.045320
 C   18.115955   18.994860    3.491444
 C   18.194233   18.758113    2.125250
 C   17.157216   19.192184    1.298731
 C   16.061992   19.854090    1.832204
 C   14.170448   22.754011    7.493244
 C   15.200407   21.796161    8.053998
 C   14.797155   20.659372    8.757357
 C   15.743883   19.766582    9.245895
 C   17.102597   20.000869    9.038861
 C   17.510383   21.135887    8.345542
 C   16.560022   22.029671    7.855862
 O   14.946253   23.764394    4.501123
 O   12.730213   25.340228    3.931985
 C   10.528068   23.141068    4.087802
 O    9.121667   23.326933    4.073876
 C    8.599629   24.434413    3.484796
 C    9.345777   25.467500    2.910781
 C    8.680791   26.532287    2.301193
 C    7.292944   26.583580    2.257710
 C    6.556589   25.557410    2.853872
 C    7.200799   24.494115    3.469664
 O   11.563457   21.923717    8.474223
 C   14.805236   21.070008    5.010251
 C    7.629843   28.388730    6.427283
 O    7.391878   29.487003    6.911467
 N    6.983634   27.917215    5.327415
 C    6.016747   28.737494    4.632212
 H   12.735133   21.331459    4.743863
 H   13.389191   23.039073    3.359976
 H   13.072916   24.704096    5.875297
 H   10.691173   24.924030    5.231627
 H    8.873253   23.480576    6.570380
 H    9.652180   23.281631    8.151697
 H    7.933091   25.614781    6.202099
 H    9.560062   29.128066    8.042350
 H   11.334217   27.733464    9.115633
 H   11.380980   25.280657    8.708499
 H   16.983849   19.825227    5.116316
 H   18.913874   18.660178    4.148070
 H   19.050782   18.240350    1.705539
 H   17.202421   19.013728    0.228301
 H   15.247006   20.198683    1.204029
 H   14.670354   23.553846    6.938617
 H   13.597971   23.210118    8.304340
 H   13.737433   20.477363    8.913567
 H   15.421308   18.883429    9.789199
 H   17.839906   19.299366    9.417725
 H   18.566724   21.325327    8.179310
 H   16.877714   22.907483    7.297434
 H   14.947009   24.578192    3.979255
 H   12.444024   26.172026    4.329804
 H   10.961066   23.414196    3.118400
 H   10.660396   22.070518    4.241596
 H   10.430174   25.455251    2.923725
 H    9.267000   27.328370    1.851857
 H    6.788078   27.413886    1.774985
 H    5.470950   25.583284    2.835493
 H    6.643878   23.681684    3.924877
 H   15.695232   21.627390    5.313934
 H   14.715230   20.170049    5.631270
 H    7.366581   27.128798    4.826871
 H    5.318135   28.092617    4.093869
 H    5.472311   29.333205    5.365832
 H    6.493669   29.421693    3.919112
