82 
1g2k_ligand_ani.xyz
 N    0.128881    0.376712   -0.592274
 S   -1.202569    0.004802   -1.571628
 N   -2.241974   -0.898833   -0.584933
 C   -2.565086   -0.425076    0.770765
 C   -1.562864   -1.003411    1.763767
 C   -0.161518   -0.391327    1.717374
 C    0.631638   -0.559291    0.423000
 C    1.135247    1.184813   -1.321815
 C    2.205993    1.770457   -0.422729
 C    3.542976    1.413907   -0.595346
 C    4.517843    1.832710    0.311006
 C    4.149677    2.633903    1.391820
 C    2.830589    3.046011    1.536046
 C    1.860764    2.624064    0.630167
 O   -1.805936    1.280984   -1.919861
 O   -3.962202    1.387855    0.154844
 C   -4.333289    2.692139    0.053321
 C   -5.465303    2.936872   -0.733042
 C   -5.923835    4.234277   -0.890240
 C   -5.270168    5.300542   -0.273336
 C   -4.148118    5.049605    0.503541
 C   -3.670221    3.751163    0.673140
 C   -3.371781   -1.490590   -1.336738
 C   -3.966947   -2.688494   -0.635125
 C   -5.314618   -2.728262   -0.273814
 C   -5.839396   -3.837991    0.385657
 C   -5.021696   -4.923691    0.683433
 C   -3.679275   -4.896368    0.316678
 C   -3.155309   -3.785173   -0.336893
 O   -2.091837   -0.820301    3.062701
 O    0.550843   -1.002299    2.801459
 C    0.821029   -2.011553   -0.033877
 O    1.911728   -2.141582   -0.935024
 C    3.187694   -2.125382   -0.451352
 C    4.190113   -2.275601   -1.415898
 C    5.523673   -2.239119   -1.044714
 C    5.879689   -2.055980    0.289997
 C    4.883638   -1.924252    1.250391
 C    3.536686   -1.967418    0.891846
 O   -0.800209   -0.890457   -2.646279
 C   -2.790923    1.080812    0.899842
 C    5.966984    1.436252    0.202375
 O    6.707629    1.443739    1.175120
 N    6.397173    1.095083   -1.045435
 C    7.799443    0.847503   -1.304008
 H   -3.515564   -0.891784    1.031355
 H   -1.484772   -2.080440    1.536364
 H   -0.246389    0.689565    1.907877
 H    1.628204   -0.199768    0.684265
 H    0.582387    1.996566   -1.810183
 H    1.606014    0.575890   -2.105355
 H    3.802877    0.762931   -1.426246
 H    4.915268    2.927791    2.104177
 H    2.551160    3.691040    2.365242
 H    0.828953    2.950649    0.748756
 H   -5.962299    2.096228   -1.208614
 H   -6.803357    4.418864   -1.502059
 H   -5.635507    6.315597   -0.400859
 H   -3.625391    5.870427    0.989817
 H   -2.787274    3.577131    1.281310
 H   -4.141204   -0.727971   -1.510726
 H   -2.972379   -1.797690   -2.308860
 H   -5.958602   -1.880053   -0.500493
 H   -6.889024   -3.850713    0.669423
 H   -5.430179   -5.790160    1.196817
 H   -3.035464   -5.743403    0.539422
 H   -2.105461   -3.776253   -0.628520
 H   -1.353878   -1.014198    3.660883
 H    1.319902   -0.451537    2.996757
 H   -0.062727   -2.354824   -0.579829
 H    0.965959   -2.666121    0.834107
 H    3.885535   -2.410481   -2.450207
 H    6.293626   -2.342209   -1.808095
 H    6.927597   -2.008168    0.579394
 H    5.154777   -1.774259    2.293806
 H    2.775400   -1.873388    1.664007
 H   -2.939950    1.337331    1.957152
 H   -1.932563    1.646851    0.509733
 H    5.784230    1.271316   -1.825183
 H    8.361173    1.769386   -1.498374
 H    8.225262    0.373055   -0.417625
 H    7.906115    0.175423   -2.160002
