57 
1g2m_ligand_ani.xyz
 N    7.139197    3.020811   -1.752328
 N    7.119591    3.477624    0.504779
 C    6.784456    2.674818   -0.575313
 C    6.063949    1.414372   -0.221057
 C    5.081855    0.896182   -1.061702
 C    4.404765   -0.276867   -0.751965
 C    4.717017   -0.978379    0.418418
 C    5.720046   -0.468735    1.254970
 C    6.370789    0.712383    0.947700
 N    4.062014   -2.150343    0.822643
 C    3.157654   -2.829138   -0.097746
 N    1.234837   -1.663800   -1.177120
 C    1.779093   -2.224618   -0.128344
 N    0.959490   -2.240259    0.974975
 C   -0.229291   -1.654013    0.577788
 C   -0.036283   -1.295023   -0.764422
 C   -1.431374   -1.407811    1.242533
 C   -2.434917   -0.776872    0.526148
 C   -2.258888   -0.391107   -0.818715
 C   -1.057122   -0.654283   -1.466693
 C    1.262692   -2.786157    2.282463
 C   -3.339604    0.340647   -1.601034
 N   -4.647475    0.371805   -0.990397
 C   -5.660449   -0.551510   -1.140190
 N   -6.710091   -0.306204   -0.403450
 C   -6.390793    0.851211    0.294123
 C   -5.103524    1.291564   -0.058482
 C   -7.129177    1.566037    1.240037
 C   -6.551750    2.688803    1.809115
 C   -5.257373    3.107720    1.453152
 C   -4.509978    2.413266    0.511986
 C   -5.519714   -1.705837   -2.071573
 H    6.864379    2.315046   -2.434302
 H    7.448365    4.390395    0.216759
 H    6.440318    3.512450    1.252437
 H    4.819686    1.428825   -1.975097
 H    3.643481   -0.641892   -1.434857
 H    5.972425   -1.008095    2.165355
 H    7.144700    1.095981    1.607884
 H    4.712182   -2.787127    1.265812
 H    3.091052   -3.881356    0.207348
 H    3.546535   -2.822460   -1.127122
 H   -1.584398   -1.699398    2.278370
 H   -3.384058   -0.581378    1.015390
 H   -0.900598   -0.364586   -2.502658
 H    1.212338   -3.880710    2.284343
 H    2.258707   -2.462798    2.590270
 H    0.533415   -2.402691    2.998679
 H   -3.439082   -0.107388   -2.595341
 H   -3.036526    1.379270   -1.772842
 H   -8.126205    1.233784    1.512659
 H   -7.110727    3.256584    2.548813
 H   -4.836300    3.991501    1.924346
 H   -3.507300    2.734671    0.240388
 H   -5.375029   -1.368114   -3.104719
 H   -4.657582   -2.324541   -1.798139
 H   -6.425211   -2.313340   -2.024660
