85 
1g35_ligand_dft.xyz
 N   -0.960394    1.327426   -0.370059
 S   -0.413644    0.371017   -1.605203
 N    0.290467   -0.864504   -0.743801
 C   -0.308715   -1.482504    0.443315
 C    0.147849   -0.751864    1.716783
 C   -0.465196    0.627204    1.945479
 C   -0.190106    1.649250    0.836265
 C   -2.036557    2.273462   -0.729402
 C   -3.290855    2.012882    0.070490
 C   -3.564769    2.719179    1.241651
 C   -4.698948    2.433310    1.996493
 C   -5.591321    1.444971    1.582989
 C   -5.326638    0.751008    0.401037
 C   -4.186342    1.023693   -0.344200
 O    0.671599    0.955663   -2.379567
 O   -1.990081   -2.672623   -0.680486
 C   -3.259436   -2.893496   -1.117317
 C   -3.380894   -3.531163   -2.353720
 C   -4.638425   -3.814040   -2.865165
 C   -5.787947   -3.465164   -2.155264
 C   -5.658799   -2.832871   -0.925324
 C   -4.401029   -2.544383   -0.396208
 C    1.224345   -1.708112   -1.511058
 C    2.570357   -1.758814   -0.827892
 C    3.438735   -0.668186   -0.939330
 C    4.649103   -0.666606   -0.264562
 C    5.013728   -1.757014    0.529761
 C    4.159766   -2.855163    0.633693
 C    2.945394   -2.851412   -0.046044
 O   -0.201224   -1.498521    2.878098
 O    0.048646    1.168753    3.141485
 C    1.289812    1.929737    0.615553
 O    1.375765    3.036992   -0.255988
 C    2.581004    3.262610   -0.848512
 C    3.792880    2.806753   -0.328262
 C    4.980583    3.094126   -1.000379
 C    4.969634    3.833837   -2.176369
 C    3.752834    4.290970   -2.683534
 C    2.563094    4.007531   -2.028813
 O   -1.604863   -0.034542   -2.337960
 C   -1.806962   -1.738543    0.363612
 C    6.323716   -1.692359    1.236752
 O    6.585212   -2.806258    1.939880
 O    7.076801   -0.745879    1.191227
 C    7.832392   -2.806711    2.632607
 C   -6.814673    1.115731    2.413736
 O   -7.314970    2.213577    3.146198
 H    0.151280   -2.476116    0.498098
 H    1.239495   -0.641979    1.654962
 H   -1.558460    0.513753    2.014735
 H   -0.618703    2.585565    1.206457
 H   -1.659973    3.288452   -0.564974
 H   -2.248736    2.170661   -1.793850
 H   -2.884966    3.501963    1.571254
 H   -4.903691    2.982269    2.910675
 H   -6.020590   -0.009786    0.050878
 H   -3.983688    0.465393   -1.254767
 H   -2.476952   -3.779297   -2.899770
 H   -4.723463   -4.303389   -3.830872
 H   -6.770620   -3.683067   -2.560985
 H   -6.544989   -2.561881   -0.357327
 H   -4.323901   -2.048632    0.564762
 H    0.787541   -2.707166   -1.617123
 H    1.335810   -1.284040   -2.509450
 H    3.154291    0.183564   -1.552178
 H    5.327550    0.175670   -0.347584
 H    4.448665   -3.706820    1.239530
 H    2.286017   -3.713894    0.024583
 H    0.421636   -2.228820    2.970138
 H   -0.014387    0.458010    3.795357
 H    1.737004    2.149765    1.592283
 H    1.803934    1.068529    0.179730
 H    3.824057    2.235558    0.593172
 H    5.920128    2.737423   -0.586801
 H    5.897638    4.052043   -2.695135
 H    3.729100    4.862890   -3.606573
 H    1.606405    4.332540   -2.422978
 H   -2.368178   -0.822012    0.161584
 H   -2.135068   -2.148468    1.327559
 H    7.893937   -3.775542    3.127256
 H    8.659602   -2.681159    1.929973
 H    7.863710   -1.997991    3.366735
 H   -7.589844    0.676062    1.766759
 H   -6.561031    0.360722    3.165531
 H   -7.533528    2.908133    2.512391
