57 
1g36_ligand_ani.xyz
 N    6.736572    3.230347   -1.495273
 N    7.032952    3.524180    0.769768
 C    6.637067    2.778194   -0.188012
 C    6.000066    1.434875   -0.039197
 C    4.956943    1.037252   -0.875668
 C    4.343783   -0.199033   -0.732621
 C    4.776338   -1.089254    0.258859
 C    5.840346   -0.698982    1.086188
 C    6.427321    0.546603    0.948091
 N    4.180231   -2.335077    0.499431
 C    3.183313   -2.841584   -0.427167
 N    1.125364   -1.820253   -1.359292
 C    1.856715   -2.138351   -0.323078
 N    1.287945   -1.797057    0.880807
 C    0.087349   -1.182924    0.574680
 C    0.002806   -1.210354   -0.825863
 C   -0.910820   -0.610079    1.365944
 C   -2.005099   -0.069157    0.712688
 C   -2.114073   -0.088330   -0.692903
 C   -1.109594   -0.656198   -1.463322
 C    1.814872   -2.038358    2.209923
 C   -3.318773    0.523790   -1.382436
 N   -4.585405    0.222919   -0.747838
 C   -5.159004   -1.025458   -0.641115
 N   -6.319062   -1.019892   -0.040076
 C   -6.543661    0.310610    0.284630
 C   -5.468288    1.105812   -0.147486
 C   -7.623554    0.905638    0.941336
 C   -7.590748    2.273682    1.148763
 C   -6.503288    3.054149    0.715598
 C   -5.422215    2.482561    0.060335
 C   -4.478466   -2.245602   -1.163427
 H    7.321597    4.052276   -1.574186
 H    6.939006    2.524098   -2.189471
 H    6.855679    3.080211    1.669802
 H    4.613397    1.719568   -1.649560
 H    3.547214   -0.467491   -1.418531
 H    6.190451   -1.384241    1.855309
 H    7.254217    0.822900    1.600531
 H    4.878578   -3.029006    0.731719
 H    3.045878   -3.910403   -0.219122
 H    3.503475   -2.763617   -1.477545
 H   -0.835861   -0.584827    2.450461
 H   -2.802138    0.381141    1.298451
 H   -1.174410   -0.677855   -2.547938
 H    2.216361   -3.053171    2.263389
 H    2.612278   -1.331580    2.455675
 H    1.002579   -1.946714    2.933872
 H   -3.344855    0.179224   -2.421947
 H   -3.225958    1.611892   -1.415774
 H   -8.457815    0.295712    1.274284
 H   -8.421729    2.754891    1.658153
 H   -6.510080    4.125215    0.897346
 H   -4.577924    3.084355   -0.269551
 H   -4.259411   -2.154185   -2.233203
 H   -3.526582   -2.415394   -0.646843
 H   -5.130136   -3.106215   -1.006454
