57 
1g36_ligand_dft.xyz
 N    6.841109    3.039471   -1.583690
 N    7.449628    3.246207    0.623685
 C    6.856385    2.562908   -0.283049
 C    6.113724    1.285717   -0.078441
 C    4.970820    0.977834   -0.817452
 C    4.269212   -0.205117   -0.615214
 C    4.708432   -1.123253    0.347639
 C    5.862201   -0.821002    1.088882
 C    6.548573    0.361107    0.876758
 N    4.028286   -2.310052    0.617775
 C    3.021572   -2.833160   -0.285717
 N    1.106270   -1.603197   -1.256778
 C    1.715684   -2.094454   -0.207636
 N    1.049881   -1.871397    0.972469
 C   -0.083226   -1.154411    0.642754
 C   -0.034024   -1.006139   -0.753230
 C   -1.129367   -0.639293    1.409071
 C   -2.133354    0.029212    0.730283
 C   -2.106901    0.187325   -0.672170
 C   -1.060773   -0.331802   -1.419776
 C    1.455360   -2.245472    2.311222
 C   -3.228563    0.940014   -1.359586
 N   -4.550301    0.503599   -0.951325
 C   -5.176267   -0.670117   -1.315521
 N   -6.325478   -0.851850   -0.719684
 C   -6.478541    0.250798    0.104004
 C   -5.371460    1.110812   -0.019216
 C   -7.518578    0.578811    0.976735
 C   -7.414966    1.754619    1.705027
 C   -6.297656    2.598077    1.575933
 C   -5.254668    2.291897    0.712521
 C   -4.566414   -1.608326   -2.301175
 H    7.452897    3.834749   -1.714597
 H    6.908866    2.345128   -2.314338
 H    7.265044    2.844139    1.541711
 H    4.607638    1.688026   -1.554399
 H    3.376789   -0.398088   -1.200622
 H    6.220487   -1.527089    1.834590
 H    7.451571    0.563434    1.446596
 H    4.607382   -3.019388    1.041462
 H    2.860924   -3.883997   -0.018745
 H    3.332220   -2.806279   -1.338854
 H   -1.164879   -0.748375    2.488447
 H   -2.970328    0.436777    1.290576
 H   -1.029093   -0.226387   -2.500685
 H    1.994790   -3.193195    2.286508
 H    2.102629   -1.484585    2.755351
 H    0.561485   -2.373772    2.925943
 H   -3.140367    0.832775   -2.445535
 H   -3.164987    2.011980   -1.146523
 H   -8.376232   -0.078901    1.073570
 H   -8.209191    2.031771    2.391633
 H   -6.247989    3.508959    2.164927
 H   -4.391955    2.945587    0.620988
 H   -4.430327   -1.129824   -3.278203
 H   -3.585320   -1.957938   -1.961530
 H   -5.231027   -2.464481   -2.421313
