30 
1g3b_ligand_ani.xyz
 C   -2.850269   -0.132956   -0.068810
 C   -1.539187   -0.540660   -0.274835
 C   -0.464581    0.341799   -0.157949
 C   -0.724755    1.688507    0.164984
 C   -2.046154    2.111168    0.354115
 C   -3.089790    1.209821    0.242007
 C    0.891295   -0.167241   -0.374506
 C   -3.955795   -1.124604   -0.208993
 O    0.253497    2.601273    0.302728
 N   -5.096019   -0.831283    0.531518
 N   -3.793485   -2.120740   -0.990948
 N    1.942802    0.556717   -0.358457
 C    3.206564   -0.106689   -0.641875
 C    4.295420    0.929713   -0.943313
 C    3.595207   -1.039916    0.508175
 O    2.889773   -1.366546    1.428828
 O    4.843701   -1.521402    0.344021
 H   -1.363660   -1.577894   -0.541890
 H   -2.228452    3.153932    0.599053
 H   -4.112171    1.554141    0.376078
 H    0.963712   -1.248616   -0.555003
 H    1.104084    2.153558    0.115784
 H   -5.761043   -1.588496    0.613517
 H   -4.936426   -0.354941    1.409287
 H   -4.622459   -2.717197   -1.008673
 H    3.110405   -0.767066   -1.521957
 H    4.462788    1.567864   -0.071485
 H    3.971322    1.554919   -1.778112
 H    5.231542    0.433128   -1.205742
 H    5.003776   -2.116445    1.095731
