30 
1g3c_ligand_xtb.xyz
 C   -3.024592   -0.152583   -0.024756
 C   -2.197539    0.948444    0.130053
 C   -0.819299    0.840413   -0.051526
 C   -0.262136   -0.409171   -0.397438
 C   -1.115953   -1.506227   -0.558890
 C   -2.472648   -1.386693   -0.378949
 C    1.159310   -0.568601   -0.588530
 C   -4.487606   -0.057590    0.164409
 O   -0.067881    1.934171    0.109869
 N   -5.226570   -0.880335   -0.456925
 N   -4.930895    0.953129    0.977781
 N    1.964893    0.411077   -0.475785
 C    3.378741    0.221162   -0.615871
 C    4.066911    1.584398   -0.658463
 C    3.906705   -0.641556    0.530431
 O    3.226653   -1.310128    1.258503
 O    5.238514   -0.597770    0.617308
 H   -2.591440    1.925816    0.363454
 H   -0.686777   -2.460679   -0.828015
 H   -3.136470   -2.224940   -0.509490
 H    1.497205   -1.577972   -0.847822
 H    0.873824    1.670109   -0.048754
 H   -6.223179   -0.761974   -0.290461
 H   -4.295225    1.393068    1.619719
 H   -5.905274    0.964592    1.231808
 H    3.620012   -0.346411   -1.531283
 H    5.141979    1.463967   -0.749526
 H    3.693923    2.148711   -1.508851
 H    3.842418    2.137231    0.250111
 H    5.547358   -1.160781    1.345355
