30 
1g3c_ligand_ani.xyz
 C   -3.057352   -0.180174   -0.055916
 C   -2.278573    0.954379    0.143895
 C   -0.892702    0.904600   -0.006108
 C   -0.272265   -0.311107   -0.355441
 C   -1.075928   -1.437177   -0.566728
 C   -2.449757   -1.382847   -0.431776
 C    1.178895   -0.440519   -0.498261
 C   -4.542635   -0.134618    0.103051
 O   -0.195709    2.037583    0.207436
 N   -5.260176   -0.945933   -0.572427
 N   -5.005474    0.842271    0.979816
 N    2.004741    0.527469   -0.382525
 C    3.412273    0.224326   -0.590206
 C    4.217473    1.520189   -0.746355
 C    3.951590   -0.653957    0.542294
 O    3.299899   -1.185911    1.404938
 O    5.285424   -0.817899    0.434606
 H   -2.739764    1.905439    0.398273
 H   -0.603459   -2.374126   -0.850661
 H   -3.073045   -2.252211   -0.610748
 H    1.540831   -1.454634   -0.712910
 H    0.750298    1.832617    0.061168
 H   -6.254386   -0.807686   -0.383562
 H   -4.401924    1.048190    1.764848
 H   -5.975909    0.750278    1.248329
 H    3.551186   -0.376749   -1.506224
 H    5.264376    1.294107   -0.958018
 H    3.799535    2.103347   -1.569743
 H    4.159693    2.114648    0.169483
 H    5.545913   -1.398631    1.169190
