30 
1g3e_ligand_xtb.xyz
 C   -3.024604   -0.152583   -0.024816
 C   -2.197543    0.948419    0.130076
 C   -0.819281    0.840440   -0.051493
 C   -0.262122   -0.409153   -0.397382
 C   -1.115975   -1.506196   -0.558860
 C   -2.472661   -1.386730   -0.378971
 C    1.159316   -0.568652   -0.588541
 C   -4.487616   -0.057564    0.164375
 O   -0.067896    1.934240    0.109880
 N   -4.930913    0.953139    0.977743
 N   -5.226569   -0.880387   -0.456879
 N    1.964889    0.411031   -0.475800
 C    3.378740    0.221140   -0.615912
 C    4.066930    1.584367   -0.658513
 C    3.906710   -0.641540    0.530445
 O    3.226666   -1.310048    1.258528
 O    5.238534   -0.597784    0.617327
 H   -2.591415    1.925834    0.363400
 H   -0.686838   -2.460652   -0.827940
 H   -3.136505   -2.224982   -0.509454
 H    1.497204   -1.578011   -0.847833
 H    0.873812    1.670099   -0.048725
 H   -4.295251    1.393159    1.619609
 H   -5.905269    0.964616    1.231814
 H   -6.223167   -0.762006   -0.290348
 H    3.620035   -0.346474   -1.531302
 H    5.141989    1.463875   -0.749586
 H    3.693964    2.148658   -1.508907
 H    3.842436    2.137201    0.250080
 H    5.547358   -1.160755    1.345410
