34 
1g45_ligand_xtb.xyz
 C   -1.121247   -0.143334    1.296193
 C   -2.413621    0.314748    1.103760
 C   -3.059577    0.035936   -0.083310
 C   -2.458086   -0.705401   -1.080213
 C   -1.172189   -1.175152   -0.883268
 C   -0.493961   -0.884734    0.298099
 C    0.894407   -1.425542    0.454163
 O    1.228390   -2.498869   -0.005387
 N    1.731223   -0.628841    1.158095
 C    3.131507   -0.958484    1.325701
 S   -4.731044    0.606887   -0.318775
 N   -5.590051   -0.765503    0.144262
 O   -4.971133    0.826595   -1.714397
 O   -5.016681    1.650954    0.621570
 C    3.996797   -0.230478    0.327910
 C    4.697863   -0.896736   -0.666811
 C    5.472719   -0.198740   -1.577839
 C    5.555242    1.181779   -1.512871
 C    4.857886    1.872249   -0.536255
 C    4.092416    1.155462    0.361407
 F    3.401000    1.830137    1.314400
 H   -0.616788    0.054919    2.230327
 H   -2.929457    0.895351    1.851753
 H   -3.000723   -0.892856   -1.992538
 H   -0.672576   -1.769673   -1.632911
 H    1.451710    0.310990    1.391005
 H    3.224131   -2.036672    1.182436
 H    3.431779   -0.693726    2.344853
 H   -6.145228   -0.601594    0.967964
 H   -6.147192   -1.132161   -0.610008
 H    4.627825   -1.972100   -0.723984
 H    6.012311   -0.735176   -2.343054
 H    6.159248    1.725341   -2.222782
 H    4.898910    2.947465   -0.463045
