53 
1g49_ligand_xtb.xyz
 O   -1.848259    3.847202    1.633513
 S   -1.719233    3.303286    0.314839
 O   -0.391739    2.933138   -0.106945
 C   -2.420841    4.433706   -0.897386
 N   -2.785214    2.026944    0.178504
 C   -2.708652    1.092284    1.285560
 C   -1.455418    0.207933    1.210479
 C   -3.831077    0.055675    1.201084
 C   -3.256214   -1.044609    0.302326
 C   -3.535070   -2.455739    0.824537
 O   -4.109997   -2.720482    1.867099
 N   -3.070173   -3.397895    0.003694
 O   -3.169819   -4.735345    0.389987
 N   -1.798434   -0.854509    0.278399
 S   -1.224893   -0.697936   -1.295322
 O   -1.719267    0.505851   -1.922651
 O   -1.603378   -1.935126   -1.929763
 C    0.530516   -0.637811   -1.072715
 C    1.219450    0.549502   -1.219692
 C    2.585931    0.579057   -1.002936
 C    3.260583   -0.586471   -0.636168
 C    2.541490   -1.783363   -0.499725
 C    1.182679   -1.807796   -0.715306
 O    4.580974   -0.668813   -0.392209
 C    5.381677    0.499442   -0.475937
 C    6.802115    0.122728   -0.068291
 C    6.890227   -0.256937    1.408413
 C    8.308247   -0.647439    1.803875
 H   -1.821767    5.335154   -0.916642
 H   -2.394136    3.931997   -1.855056
 H   -3.434281    4.647431   -0.588660
 H   -2.598500    1.561242   -0.709965
 H   -2.741178    1.696941    2.193330
 H   -0.584393    0.758404    0.857272
 H   -1.236016   -0.240451    2.184072
 H   -4.037609   -0.367607    2.185241
 H   -4.743651    0.482574    0.794117
 H   -3.632772   -0.976371   -0.724056
 H   -2.515407   -3.223043   -0.828977
 H   -3.657551   -4.689422    1.237267
 H    0.683720    1.449892   -1.474201
 H    3.108688    1.514218   -1.115520
 H    3.081040   -2.673842   -0.220025
 H    0.613168   -2.717632   -0.618643
 H    4.989306    1.272669    0.197102
 H    5.370748    0.883990   -1.504457
 H    7.457777    0.970687   -0.274026
 H    7.127600   -0.719361   -0.680936
 H    6.212300   -1.090184    1.598670
 H    6.562459    0.588475    2.017853
 H    8.993965    0.180230    1.635434
 H    8.349270   -0.917829    2.855944
 H    8.648004   -1.497927    1.217461
