53 
1g49_ligand_dft.xyz
 O   -2.026343    3.811245    1.675321
 S   -1.932885    3.374009    0.290898
 O   -0.613158    3.187312   -0.310029
 C   -2.846396    4.488978   -0.755856
 N   -2.872335    1.992841    0.145092
 C   -2.753555    1.030641    1.252294
 C   -1.467095    0.195755    1.199170
 C   -3.834682   -0.049703    1.141489
 C   -3.225200   -1.154038    0.260208
 C   -3.429279   -2.555200    0.835618
 O   -3.741772   -2.787097    1.999680
 N   -3.242881   -3.551021   -0.054732
 O   -3.163586   -4.836159    0.466720
 N   -1.758079   -0.885654    0.237127
 S   -1.139316   -0.796769   -1.321212
 O   -1.591301    0.420028   -2.003106
 O   -1.481437   -2.082353   -1.927715
 C    0.592998   -0.686131   -1.049705
 C    1.219575    0.552544   -1.123001
 C    2.586909    0.641387   -0.887784
 C    3.315363   -0.514677   -0.588398
 C    2.667731   -1.759470   -0.522871
 C    1.310268   -1.848662   -0.750581
 O    4.638107   -0.540696   -0.349394
 C    5.370780    0.679789   -0.363529
 C    6.816492    0.356379   -0.033837
 C    7.005193   -0.236290    1.363358
 C    8.468797   -0.547420    1.669136
 H   -2.296217    5.431640   -0.778123
 H   -2.902300    4.064204   -1.759793
 H   -3.841242    4.628684   -0.333544
 H   -2.659764    1.557590   -0.759036
 H   -2.835584    1.594495    2.182119
 H   -0.584428    0.767434    0.907759
 H   -1.272334   -0.268831    2.170969
 H   -4.039923   -0.471551    2.129206
 H   -4.764702    0.343802    0.727911
 H   -3.629825   -1.125965   -0.756605
 H   -2.626917   -3.419485   -0.852999
 H   -3.397611   -4.681235    1.403936
 H    0.643054    1.446530   -1.339449
 H    3.065487    1.611166   -0.940359
 H    3.258539   -2.638999   -0.292295
 H    0.803562   -2.806666   -0.706233
 H    4.948499    1.370418    0.380053
 H    5.289542    1.145269   -1.354651
 H    7.395182    1.284374   -0.128119
 H    7.203103   -0.337735   -0.790351
 H    6.404999   -1.148504    1.448522
 H    6.612873    0.467737    2.109485
 H    9.084615    0.358094    1.620220
 H    8.582804   -0.976780    2.669391
 H    8.875390   -1.266244    0.948519
