34 
1g4j_ligand_ani.xyz
 C    1.984676   -0.794541   -0.891961
 C    3.213453   -0.213203   -1.169896
 C    4.070625    0.091031   -0.114140
 C    3.722991   -0.178069    1.207111
 C    2.494965   -0.765625    1.471425
 C    1.613863   -1.059574    0.429181
 C    0.299249   -1.676569    0.798095
 O    0.155308   -2.271062    1.855934
 N   -0.707321   -1.517259   -0.109406
 C   -2.064195   -1.920915    0.192881
 S    5.647108    0.819028   -0.463693
 N    6.642639   -0.500789   -0.719197
 O    6.112198    1.476003    0.747845
 O    5.542572    1.518491   -1.734626
 C   -3.052009   -0.773166    0.086432
 C   -2.838886    0.453434    0.706087
 C   -3.735689    1.505993    0.598300
 C   -4.894285    1.354797   -0.145447
 C   -5.145412    0.142857   -0.767102
 C   -4.233648   -0.894422   -0.640391
 F   -1.739254    0.664554    1.448511
 F   -3.477853    2.663341    1.208880
 F   -5.757858    2.361703   -0.258190
 F   -6.257913   -0.026916   -1.484108
 F   -4.526805   -2.050195   -1.255872
 H    1.332406   -1.071851   -1.716708
 H    3.500326    0.022055   -2.190563
 H    4.409579    0.078899    2.008206
 H    2.193866   -1.009440    2.485049
 H   -0.568886   -0.871164   -0.870160
 H   -2.036952   -2.329655    1.207995
 H   -2.380525   -2.723492   -0.482393
 H    7.022195   -0.471762   -1.659724
 H    7.369383   -0.533716   -0.012043
