34 
1g4j_ligand_dft.xyz
 C    2.063313   -1.228231   -0.413588
 C    3.302385   -0.829240   -0.900176
 C    4.056015    0.075780   -0.161708
 C    3.599770    0.585302    1.050244
 C    2.366321    0.170705    1.533021
 C    1.587543   -0.725586    0.799522
 C    0.260553   -1.120390    1.385631
 O    0.070422   -1.122802    2.590012
 N   -0.703295   -1.470604    0.480123
 C   -2.059993   -1.765617    0.898527
 S    5.648535    0.586982   -0.780657
 N    6.693967   -0.553129   -0.139990
 O    5.963527    1.867091   -0.167697
 O    5.643484    0.391534   -2.221667
 C   -3.054045   -0.757175    0.370571
 C   -3.037120    0.565131    0.809430
 C   -3.929533    1.512278    0.326795
 C   -4.873359    1.139551   -0.624055
 C   -4.914846   -0.170035   -1.083190
 C   -4.006411   -1.096544   -0.584573
 F   -2.142363    0.944435    1.719577
 F   -3.890543    2.765960    0.765924
 F   -5.732229    2.035699   -1.092866
 F   -5.813731   -0.528310   -1.995015
 F   -4.068058   -2.346802   -1.052699
 H    1.487340   -1.958800   -0.974263
 H    3.678982   -1.206553   -1.844622
 H    4.199792    1.305130    1.596274
 H    1.986830    0.537073    2.480588
 H   -0.544268   -1.280731   -0.497524
 H   -2.049121   -1.754957    1.990747
 H   -2.347884   -2.766178    0.568223
 H    7.187079   -1.037017   -0.883508
 H    7.329286   -0.124556    0.525463
