34 
1g4o_ligand_dft.xyz
 C   -0.947513   -0.906900    0.944687
 C   -2.255856   -0.467988    1.106217
 C   -2.919899    0.084944    0.016936
 C   -2.305795    0.204713   -1.225931
 C   -1.002046   -0.247037   -1.378407
 C   -0.313032   -0.792435   -0.294504
 C    1.098454   -1.254684   -0.535872
 O    1.467163   -1.607943   -1.646952
 N    1.913815   -1.257908    0.557690
 C    3.328745   -1.587412    0.447549
 S   -4.601366    0.642610    0.218159
 N   -5.501504   -0.736573   -0.087055
 O   -4.873138    1.598325   -0.843515
 O   -4.798030    0.962336    1.623068
 C    4.207130   -0.367351    0.271735
 C    4.171443    0.352266   -0.926838
 C    4.953196    1.490232   -1.085328
 C    5.781787    1.922144   -0.050508
 C    5.824749    1.209683    1.142887
 C    5.038368    0.070207    1.301379
 H   -0.435536   -1.366522    1.784858
 H   -2.755559   -0.544988    2.065672
 H   -2.840856    0.657394   -2.053613
 H   -0.498175   -0.182362   -2.336595
 H    1.637843   -0.698166    1.351167
 H    3.421447   -2.256916   -0.410075
 H    3.622071   -2.142609    1.344510
 H   -6.109314   -0.937912    0.700538
 H   -6.019027   -0.645094   -0.955388
 H    3.526669    0.008418   -1.731081
 H    4.920557    2.040850   -2.020894
 H    6.393521    2.810455   -0.177105
 H    6.469604    1.538786    1.952433
 H    5.076080   -0.485753    2.235788
