34 
1g53_ligand_dft.xyz
 C    0.969603   -0.455766    0.399977
 C    2.281982   -0.877684    0.219750
 C    3.243808    0.054908   -0.149504
 C    2.916524    1.389444   -0.374704
 C    1.601946    1.797498   -0.201412
 C    0.628450    0.884557    0.207078
 C   -0.780802    1.388793    0.361644
 O   -1.202911    2.324684   -0.298067
 N   -1.531816    0.744784    1.299468
 C   -2.966429    0.933526    1.373853
 S    4.933011   -0.475570   -0.355583
 N    5.619412   -0.160285    1.140564
 O    5.565043    0.420995   -1.309923
 O    4.921609   -1.919424   -0.531114
 C   -3.720289    0.008969    0.442924
 C   -3.520651   -1.368248    0.463930
 C   -4.162418   -2.252346   -0.384381
 C   -5.063311   -1.734172   -1.311500
 C   -5.306427   -0.367376   -1.376461
 C   -4.631906    0.471991   -0.500648
 F   -2.641654   -1.859957    1.366356
 F   -4.876488    1.787264   -0.559372
 H    0.208078   -1.190438    0.647536
 H    2.556459   -1.919821    0.340817
 H    3.679553    2.088407   -0.699762
 H    1.306779    2.824108   -0.389634
 H   -1.142561   -0.046856    1.784710
 H   -3.179080    1.969386    1.110615
 H   -3.281695    0.770724    2.408787
 H    5.921603   -1.023280    1.581146
 H    6.379725    0.505446    1.045353
 H   -3.955786   -3.313716   -0.313108
 H   -5.580008   -2.404736   -1.989961
 H   -6.001558    0.058026   -2.090688
