8 
1g5f_ligand_ani.xyz
Cl   -2.158856   -0.070803   -0.001642
 C   -0.494731    0.574662    0.003122
 C    0.494990   -0.575627    0.003134
Cl    2.158671    0.071257   -0.001641
 H   -0.377173    1.193911    0.893626
 H   -0.373687    1.197332   -0.884566
 H    0.374553   -1.198449   -0.884440
 H    0.377889   -1.194716    0.893667
