54 
1g74_ligand_xtb.xyz
 C    2.200063   -2.722813   -0.711546
 O    3.367157   -2.158016   -0.352767
 O    2.177253   -3.787578   -1.256719
 C    0.959080   -1.938218   -0.334797
 C    0.641015   -2.186291    1.147259
 C   -0.609542   -1.445459    1.639433
 C   -1.897036   -2.272133    1.602380
 C   -2.407340   -2.669281    0.215447
 C   -2.714357   -1.504747   -0.727193
 C   -3.795938   -0.554166   -0.199811
 C   -4.090790    0.505640   -1.215037
 C   -3.748820    1.784229   -1.148107
 C   -3.001405    2.444187   -0.027567
 C   -1.486253    2.303341   -0.217605
 C   -0.705915    2.944514    0.928291
 C    0.771040    2.548845    0.948214
 C    1.536491    3.008330   -0.291489
 C    3.046585    2.794403   -0.177254
 C    3.448666    1.319929   -0.160447
 C    4.963482    1.147828   -0.161007
 H    3.249876   -1.288707    0.055369
 H    0.138697   -2.284513   -0.960151
 H    1.114943   -0.870265   -0.511050
 H    1.500782   -1.869392    1.745302
 H    0.515670   -3.258874    1.305794
 H   -0.743443   -0.526363    1.068362
 H   -0.447139   -1.153867    2.680170
 H   -2.676520   -1.707065    2.117864
 H   -1.734964   -3.188094    2.176394
 H   -3.321681   -3.252280    0.353920
 H   -1.679235   -3.327506   -0.262703
 H   -3.047718   -1.917632   -1.682765
 H   -1.808547   -0.930048   -0.926413
 H   -3.464564   -0.103325    0.733961
 H   -4.705012   -1.128659   -0.001442
 H   -4.611714    0.150482   -2.095587
 H   -3.994842    2.431495   -1.979887
 H   -3.280923    2.001771    0.930825
 H   -3.259058    3.504608    0.007869
 H   -1.202702    2.760029   -1.167206
 H   -1.240044    1.241264   -0.275612
 H   -1.155407    2.635666    1.876055
 H   -0.791516    4.031435    0.863258
 H    0.840353    1.463429    1.047346
 H    1.237659    2.990451    1.832504
 H    1.346267    4.073349   -0.443081
 H    1.168072    2.478201   -1.172096
 H    3.413789    3.277715    0.731095
 H    3.533920    3.277077   -1.027586
 H    3.028854    0.832245   -1.044978
 H    3.032351    0.847396    0.733601
 H    5.395988    1.618055   -1.041044
 H    5.398549    1.612237    0.721170
 H    5.239842    0.095621   -0.168365
