72 
1g7f_ligand_ani.xyz
 C    7.035103    0.692153    0.143655
 O    7.545977    0.018724   -0.886603
 O    7.552485    1.652052    0.658540
 C    4.237647   -1.694746    0.175801
 C    3.703194   -2.339158   -0.940335
 C    2.462996   -2.954299   -0.848281
 C    1.740538   -2.955585    0.348108
 C    2.311335   -2.336793    1.459879
 C    3.546767   -1.700350    1.384488
 C    5.699025    0.138104    0.617186
 C    0.342706   -3.529456    0.392490
 C   -0.657652   -2.590529   -0.286301
 O    5.472406   -1.115947    0.013352
 C    4.606061    1.163570    0.252588
 O    4.292596    1.410662   -0.898615
 O    4.062260    1.701088    1.321439
 N   -0.657033   -1.284651    0.351268
 C   -2.088432   -3.153544   -0.296303
 C   -0.869458   -0.148778   -0.376784
 N   -2.923360   -2.498027   -1.145371
 O   -2.430887   -4.086566    0.413700
 C   -4.357374   -2.707942   -1.106145
 C   -5.075608   -1.601185   -0.331100
 C   -6.592320   -1.786438   -0.267784
 C   -7.318703   -0.638930    0.440852
 C   -6.994149   -0.532044    1.930917
 O   -1.208535   -0.179618   -1.558608
 N   -0.667430    1.027168    0.319225
 C   -0.392055    2.250076   -0.430878
 C   -1.083361    3.462782    0.199351
 C    1.125075    2.397246   -0.425966
 O    1.705784    1.909487   -1.498373
 O    1.723614    2.845862    0.544726
 C   -2.591108    3.357459    0.128133
 C   -3.304001    2.634589    1.088395
 C   -4.685330    2.499925    0.996130
 C   -5.374609    3.083878   -0.063119
 C   -4.678234    3.809963   -1.023944
 C   -3.296309    3.945984   -0.925160
 H    8.374076    0.470939   -1.119975
 H    4.265157   -2.325504   -1.870501
 H    2.040631   -3.438307   -1.727917
 H    1.774736   -2.332563    2.407095
 H    3.954106   -1.197885    2.257199
 H    5.748167    0.069258    1.710173
 H    0.306555   -4.499816   -0.113502
 H    0.024132   -3.704034    1.425790
 H   -0.355779   -2.411354   -1.324593
 H    3.292811    2.266606    1.045105
 H   -0.650395   -1.246124    1.358865
 H   -2.563403   -1.665167   -1.604168
 H   -4.523241   -3.681429   -0.635552
 H   -4.736353   -2.759502   -2.134984
 H   -4.848678   -0.633170   -0.803603
 H   -4.654559   -1.560305    0.682716
 H   -6.982160   -1.881614   -1.290886
 H   -6.822589   -2.733817    0.241814
 H   -8.401137   -0.770788    0.319494
 H   -7.072591    0.308993   -0.060173
 H   -7.306285   -1.435954    2.467193
 H   -7.505788    0.322607    2.387138
 H   -5.920413   -0.405985    2.109098
 H   -0.166455    0.934931    1.195260
 H   -0.748366    2.081928   -1.449310
 H   -0.748752    3.550373    1.238334
 H   -0.748075    4.369846   -0.316954
 H    2.690858    1.881021   -1.355141
 H   -2.764518    2.166177    1.907701
 H   -5.227453    1.936306    1.753583
 H   -6.454482    2.974908   -0.139415
 H   -5.210489    4.272276   -1.851017
 H   -2.760564    4.524061   -1.676431
