27 
1g85_ligand_ani.xyz
 C    4.243886   -0.172029    0.282432
 C    2.916683   -0.769212   -0.177325
 C    1.715360    0.090395    0.205928
 O    1.823870    1.403305   -0.330358
 C    0.390357   -0.561846   -0.179753
 C   -0.826618    0.247547    0.263019
 C   -2.150994   -0.388810   -0.152015
 C   -3.370707    0.409142    0.306552
 C   -4.691918   -0.231327   -0.112745
 H    4.280904   -0.088612    1.375239
 H    4.378895    0.832302   -0.131032
 H    5.088164   -0.792574   -0.033421
 H    2.781314   -1.771801    0.250801
 H    2.921247   -0.897285   -1.271060
 H    1.725228    0.241724    1.295059
 H    1.856784    1.315625   -1.292585
 H    0.351345   -1.569326    0.260205
 H    0.363837   -0.701178   -1.272955
 H   -0.806546    0.364827    1.357028
 H   -0.752007    1.262027   -0.151237
 H   -2.177529   -0.495619   -1.246598
 H   -2.212271   -1.409090    0.255844
 H   -3.307895    1.427897   -0.100374
 H   -3.342051    0.512375    1.400177
 H   -5.549490    0.356973    0.229968
 H   -4.758376   -0.317441   -1.203772
 H   -4.788804   -1.240427    0.305026
