44 
1ga8_ligand_xtb.xyz
 C   -1.360799    0.511568    0.068646
 C   -2.450442    1.326173   -0.643606
 C   -3.810766    1.021803    0.005004
 C   -4.053195   -0.487951    0.012782
 C   -2.875903   -1.206093    0.665624
 C   -2.982931   -2.735037    0.583150
 O   -0.158886    0.749081   -0.582349
 O   -2.212847    2.705265   -0.533020
 O   -4.850434    1.645357   -0.696542
 O   -1.659126   -0.861769    0.007549
 O   -1.965230   -3.375068    1.298232
 C    3.850265   -0.174520   -0.277880
 C    2.914610   -1.391497   -0.216756
 C    1.526500   -1.003450   -0.733163
 C    1.013158    0.225146    0.037512
 C    2.081331    1.333732    0.032782
 C    1.702442    2.502116    0.952885
 O    5.101906   -0.466895    0.230372
 O    3.488488   -2.417929   -0.983134
 O    0.695657   -2.128363   -0.585995
 O    3.324237    0.861520    0.502632
 O    2.611617    3.554895    0.836042
 H   -1.303005    0.826525    1.131823
 H   -2.470311    1.014672   -1.698762
 H   -3.772926    1.400628    1.040855
 H   -4.167787   -0.824285   -1.018654
 H   -4.975535   -0.701750    0.549870
 H   -2.794041   -0.907191    1.722800
 H   -3.923583   -3.055605    1.034368
 H   -2.972138   -3.031574   -0.474363
 H   -1.342197    2.894553   -0.902300
 H   -4.611562    2.574120   -0.807092
 H   -1.110790   -3.120446    0.925742
 H    3.925573    0.158206   -1.336368
 H    2.822063   -1.704148    0.836255
 H    1.601795   -0.729895   -1.799035
 H    0.794262   -0.069229    1.071913
 H    2.184049    1.701320   -1.001585
 H    0.723120    2.896440    0.675135
 H    1.666255    2.127930    1.986020
 H    5.312169   -1.374494   -0.025918
 H    2.815318   -3.100571   -1.098135
 H   -0.224159   -1.824422   -0.660080
 H    3.494752    3.188540    0.975344
