44 
1ga8_ligand_dft.xyz
 C   -1.370055    0.516314    0.026918
 C   -2.501643    1.266702   -0.659535
 C   -3.825910    0.930583    0.025893
 C   -4.027341   -0.581484    0.094777
 C   -2.804016   -1.243679    0.720405
 C   -2.803097   -2.764085    0.706659
 O   -0.189119    0.748908   -0.657328
 O   -2.331380    2.665046   -0.573279
 O   -4.906475    1.505431   -0.665997
 O   -1.637517   -0.866481   -0.014920
 O   -1.659895   -3.287170    1.333934
 C    3.818292   -0.125169   -0.254672
 C    2.891909   -1.339132   -0.245651
 C    1.528406   -0.952974   -0.795756
 C    0.986343    0.248248   -0.020259
 C    2.025531    1.372107    0.017995
 C    1.619195    2.526531    0.921750
 O    5.050931   -0.417824    0.305844
 O    3.512269   -2.344318   -1.014748
 O    0.704503   -2.098081   -0.716601
 O    3.249760    0.884948    0.539515
 O    2.587994    3.541629    0.912710
 H   -1.281541    0.840791    1.079756
 H   -2.548191    0.927736   -1.704871
 H   -3.768173    1.332377    1.052874
 H   -4.179433   -0.967907   -0.920111
 H   -4.927717   -0.803252    0.676734
 H   -2.677515   -0.909542    1.762103
 H   -3.670157   -3.134740    1.260667
 H   -2.896677   -3.108105   -0.336395
 H   -1.560544    2.900744   -1.104249
 H   -4.692921    2.442689   -0.772364
 H   -0.881431   -2.936176    0.876802
 H    3.929281    0.245391   -1.292027
 H    2.777619   -1.656221    0.802408
 H    1.648412   -0.648833   -1.847911
 H    0.751753   -0.066810    1.005643
 H    2.177103    1.755891   -1.004132
 H    0.681968    2.961482    0.564326
 H    1.449232    2.131717    1.937132
 H    5.280091   -1.309345    0.006667
 H    2.888400   -3.079682   -1.077532
 H   -0.203310   -1.808647   -0.905926
 H    3.429505    3.109961    1.116226
