24 
1gca_ligand_ani.xyz
 C    0.417377    1.424554   -0.195961
 C    1.484403    0.388585    0.124465
 C    1.176812   -0.930003   -0.563116
 C   -0.233079   -1.384554   -0.192916
 C   -1.227874   -0.257461   -0.466521
 C   -2.640354   -0.573320    0.001149
 O    0.718088    2.580431    0.527157
 O    2.767229    0.796015   -0.307213
 O    2.071006   -1.936910   -0.129276
 O   -0.283146   -1.708160    1.177097
 O   -0.851796    0.950085    0.199853
 O   -3.516793    0.482762   -0.316084
 H    0.399208    1.634281   -1.283893
 H    1.461286    0.218931    1.210477
 H    1.246608   -0.794076   -1.655169
 H   -0.504158   -2.256745   -0.813507
 H   -1.256049   -0.057330   -1.552535
 H   -2.622621   -0.790993    1.078285
 H   -3.009977   -1.462591   -0.520877
 H   -0.108429    3.070098    0.624638
 H    2.967624    1.619675    0.157116
 H    2.954025   -1.538091   -0.132182
 H    0.509300   -2.239910    1.347429
 H   -3.137221    1.276176    0.085340
