50 
1gfw_ligand_ani.xyz
 S   -0.144853   -2.133682   -1.119757
 N   -4.885568    1.114705    0.209723
 N    0.709359   -2.100910    0.306137
 O    3.187494    0.583775    0.682247
 O   -5.012530    3.424370    0.251366
 O   -2.172611    3.173184   -0.291942
 O    0.621120   -1.374367   -2.095253
 O   -0.517468   -3.517530   -1.348640
 C   -4.462986    2.389445   -0.068536
 C   -3.135070    2.304433   -0.836087
 C   -1.661815    0.149448   -1.048079
 C   -1.636501   -1.219987   -0.793380
 C   -2.739110   -1.889530   -0.257158
 C   -3.884899   -1.187449    0.096258
 C   -3.888373    0.187988   -0.116768
 C   -2.800590    0.846433   -0.703654
 C    1.304798   -0.843305    0.787408
 C    1.266707   -0.959626    2.323731
 C    0.125685   -1.949620    2.579328
 C    0.278362   -2.942280    1.429759
 C    2.706820   -0.670926    0.225752
 C    4.414751    0.989286    0.257960
 C    5.271205    0.215591   -0.523601
 C    6.514467    0.728676   -0.890843
 C    6.906718    1.998580   -0.492342
 C    6.040545    2.765674    0.286676
 C    4.802996    2.270479    0.664170
 C   -6.105842    0.833201    0.938636
 H   -2.647641    3.991931   -0.086464
 H   -3.346919    2.561888   -1.888556
 H   -0.813031    0.637780   -1.517726
 H   -2.698618   -2.968147   -0.135413
 H   -4.746392   -1.692404    0.524894
 H    0.695577    0.009254    0.461953
 H    2.214765   -1.365665    2.697565
 H    1.113041    0.014017    2.796629
 H   -0.844270   -1.444566    2.497515
 H    0.179999   -2.431580    3.559709
 H   -0.634696   -3.493427    1.188824
 H    1.066379   -3.674528    1.643493
 H    3.355595   -1.485311    0.578745
 H    2.663685   -0.705649   -0.868130
 H    4.981286   -0.778364   -0.851103
 H    7.178088    0.117880   -1.499342
 H    7.876496    2.392190   -0.783615
 H    6.335815    3.763031    0.603185
 H    4.118295    2.855604    1.271659
 H   -6.764731    0.185117    0.352823
 H   -5.883497    0.352298    1.897295
 H   -6.603371    1.786480    1.123545
