27 
1gfy_ligand_dft.xyz
 S   -4.404992   -1.015599   -0.338403
 C   -2.864188   -1.846878    0.152875
 C   -1.671855   -0.936705    0.068596
 C   -1.642012    0.423911    0.028152
 C   -2.891011    1.274644    0.099586
 C   -4.114216    0.509440    0.602885
 S   -0.080943   -1.646973    0.056350
 C    0.645826   -0.084362    0.003761
 C   -0.289011    0.935764   -0.034177
 C    0.172457    2.334336   -0.144113
 O    1.333883    2.666683    0.022266
 O   -0.718071    3.288051   -0.453991
 N    2.013788    0.109887    0.006737
 C    2.942937   -0.897543   -0.023580
 C    4.403433   -0.404883   -0.019415
 O    4.662537    0.667332    0.754023
 O    5.247739   -0.941156   -0.671634
 O    2.663326   -2.075512   -0.048338
 H   -2.748446   -2.698559   -0.524451
 H   -2.973614   -2.248927    1.167177
 H   -3.132365    1.682008   -0.894430
 H   -2.725462    2.119735    0.780816
 H   -3.999881    0.262854    1.663781
 H   -5.012818    1.121907    0.497246
 H   -1.568936    2.905841   -0.703063
 H    2.264846    1.100716   -0.059759
 H    3.905661    0.896849    1.312340
