24 
1gfz_ligand_xtb.xyz
 N   -1.252858    1.070787    0.000973
 C   -1.846928   -0.186194    0.001065
 C   -2.142589    2.221298    0.001618
 C    0.110748    1.376391   -0.001672
 N   -0.999717   -1.274235    0.000082
 O   -3.051569   -0.322808    0.002223
 C   -1.539258   -2.616559   -0.002479
 C    0.346265   -1.082355    0.000264
 C    0.906442    0.186643    0.000249
 N    1.311683   -2.027820    0.000161
 O    0.502911    2.527019   -0.005231
 N    2.266906   -0.016112   -0.000264
 C    2.439479   -1.349287    0.000243
 C    3.265234    1.013798    0.002564
 H   -1.934724    2.839129    0.875010
 H   -1.967994    2.816904   -0.894385
 H   -3.167280    1.860861    0.024372
 H   -1.203658   -3.144932   -0.894481
 H   -1.188689   -3.153520    0.878429
 H   -2.624478   -2.539971    0.006510
 H    3.406160   -1.812520    0.000296
 H    3.128980    1.665912   -0.861202
 H    3.169114    1.624905    0.901386
 H    4.253378    0.558792   -0.029646
