48 
1ggd_ligand_ani.xyz
 C    2.670604    2.308517    0.097213
 O    1.956617    2.534354   -0.876749
 C    3.355046    3.401422    0.888803
 N    2.896897    1.041872    0.530050
 C    2.359083   -0.126087   -0.154391
 C    3.234690   -1.354048    0.068377
 C    4.677564   -1.228156   -0.440034
 C    4.742393   -1.046794   -1.958292
 C    5.483465   -2.458368   -0.019204
 C    0.906594   -0.394767    0.290578
 O    0.605138   -1.418722    0.906377
 N    0.032742    0.571642   -0.044810
 C   -1.409659    0.555968    0.227586
 C   -2.137053   -0.485121   -0.641847
 C   -3.641881   -0.352848   -0.601517
 C   -4.317036    0.419593   -1.549547
 C   -4.385699   -0.980714    0.402422
 C   -5.700472    0.563797   -1.498301
 C   -5.769157   -0.842968    0.451938
 C   -6.431047   -0.068961   -0.497625
 C   -1.731096    0.399070    1.724670
 O   -1.740360   -0.930440    2.173080
 H    4.442211    3.266131    0.884599
 H    3.110470    4.361624    0.434232
 H    3.019020    3.400942    1.931482
 H    3.384785    0.893038    1.401020
 H    2.320462    0.149697   -1.215098
 H    3.239788   -1.580725    1.142867
 H    2.750703   -2.211190   -0.414878
 H    5.135085   -0.345527    0.030354
 H    4.262020   -1.890649   -2.470866
 H    4.249118   -0.125749   -2.288771
 H    5.783296   -1.001118   -2.297933
 H    6.525166   -2.380132   -0.350322
 H    5.484783   -2.584587    1.069675
 H    5.059447   -3.368754   -0.462344
 H    0.409280    1.366913   -0.555172
 H   -1.753973    1.554958   -0.064506
 H   -1.837153   -1.481735   -0.301887
 H   -1.783519   -0.370736   -1.672677
 H   -3.757261    0.908757   -2.345063
 H   -3.859147   -1.556772    1.161142
 H   -6.208843    1.168864   -2.245303
 H   -6.333097   -1.339604    1.237104
 H   -7.511828    0.039889   -0.456639
 H   -2.736242    0.799533    1.907455
 H   -1.020162    1.011991    2.300288
 H   -0.891076   -1.318402    1.877917
