32 
1gja_ligand_ani.xyz
 C    3.678379    0.085506   -0.046596
 C    2.993532    1.293846   -0.192677
 C    1.610485    1.325082   -0.140246
 C    0.878857    0.144429    0.032511
 C    1.552164   -1.073179    0.157606
 C    2.939192   -1.085746    0.121704
 C    5.168714    0.071646   -0.097543
 N    5.764068   -0.982873    0.590165
 N    5.773754    0.975201   -0.767056
 N   -0.520235    0.259440    0.080538
 C   -1.441535   -0.744805   -0.010141
 O   -1.148121   -1.930469   -0.093951
 C   -2.897575   -0.337685   -0.023276
 C   -3.807649   -1.374184   -0.262331
 C   -5.177335   -1.155786   -0.308868
 C   -5.666663    0.129365   -0.103781
 C   -4.790681    1.177506    0.144002
 C   -3.415240    0.951285    0.183879
 O   -2.560685    1.996328    0.428374
 H    3.565358    2.203143   -0.347443
 H    1.087284    2.273152   -0.246730
 H    0.989694   -1.988439    0.281887
 H    3.456050   -2.038945    0.201198
 H    6.759300   -0.887053    0.740652
 H    5.273344   -1.297918    1.416667
 H    6.786276    0.844989   -0.733824
 H   -0.883922    1.199282    0.143457
 H   -3.394154   -2.367353   -0.412137
 H   -5.855086   -1.982081   -0.502515
 H   -6.735934    0.320205   -0.135501
 H   -5.174990    2.184063    0.307566
 H   -3.073767    2.804040    0.560346
