58 
1gmy_ligand_ani.xyz
 C    5.627925   -0.586926   -0.959044
 N    4.938571   -1.649277   -0.930821
 C    5.161023    0.838042   -0.845655
 N    3.724617    0.949072   -0.785336
 C    3.103415    1.600744    0.237376
 O    3.702180    2.102797    1.175911
 C    1.569450    1.636312    0.117250
 N    1.023546    0.290216    0.113201
 C    0.918407    2.455394    1.232564
 C   -0.578701    2.558132    1.017013
 C   -1.089814    3.463795    0.085352
 C   -1.466532    1.687867    1.656424
 C   -2.450707    3.496371   -0.189160
 C   -2.833433    1.694088    1.387394
 C   -3.315245    2.620763    0.458440
 C   -3.762487    0.712958    2.057599
 C    0.819731   -0.404093   -1.025980
 O    1.350179   -0.083085   -2.089033
 C   -1.248223   -2.461842    2.613540
 C   -1.248485   -1.920298    1.330986
 C   -0.228008   -2.223685    0.430464
 C    0.790933   -3.088254    0.837276
 C    0.792643   -3.635495    2.118118
 C   -0.227991   -3.321771    3.011066
 C   -1.513940   -1.225628   -1.546289
 C   -2.330310   -2.268391   -1.990323
 C   -3.604671   -2.019279   -2.489688
 C   -4.084983   -0.715522   -2.548074
 C   -3.278930    0.330070   -2.107106
 C   -2.002195    0.079736   -1.612132
 C   -0.151997   -1.589121   -0.954214
 H    6.711110   -0.696648   -1.080323
 H    3.952446   -1.392110   -0.800228
 H    5.563326    1.282385    0.069939
 H    5.575398    1.412901   -1.685204
 H    3.163810    0.626453   -1.567418
 H    1.329027    2.072447   -0.862543
 H    0.623907   -0.052070    0.976825
 H    1.142242    1.984413    2.196547
 H    1.379157    3.447143    1.256366
 H   -0.414445    4.138652   -0.437389
 H   -1.075842    0.957877    2.365558
 H   -2.838472    4.198587   -0.923693
 H   -4.379267    2.646817    0.230055
 H   -4.140376   -0.034438    1.346706
 H   -3.244174    0.178006    2.862970
 H   -4.635645    1.213946    2.492483
 H   -2.049953   -2.213461    3.305272
 H   -2.055586   -1.256052    1.022769
 H    1.599342   -3.327153    0.148030
 H    1.594268   -4.306042    2.418987
 H   -0.227445   -3.745406    4.011646
 H   -1.963562   -3.292261   -1.941081
 H   -4.223253   -2.845640   -2.832917
 H   -5.079847   -0.516784   -2.938444
 H   -3.639023    1.356078   -2.143073
 H   -1.393000    0.921486   -1.279356
 H    0.298583   -2.330698   -1.625990
