94 
1gnn_ligand_ani.xyz
 C   -2.669919   -1.874856    2.811555
 C   -2.929728   -1.147103    1.509608
 C   -4.062870    0.801831    0.490525
 C   -5.560564    0.968311    0.206955
 C   -6.323286   -0.342716   -0.030444
 C   -5.691420   -1.215603   -1.122461
 C   -6.503332   -2.489274   -1.369692
 C   -7.959767   -2.170699   -1.714073
 C   -8.600595   -1.312813   -0.620956
 C   -7.787062   -0.039997   -0.377309
 C   -3.389988    2.153985    0.779129
 C   -1.858643    2.071777    0.824580
 C   -1.153746    1.575317   -0.458494
 C   -1.115178    2.556777   -1.654024
 C   -2.330943    2.397464   -2.573183
 C   -0.932277    4.018628   -1.239901
 C    0.261441    1.146944   -0.074246
 C    1.642724   -0.672944    0.809584
 C    1.528679   -1.634666    1.991435
 C    2.900919   -2.222317    2.367064
 C    3.946288   -1.116439    2.498429
 C    2.313688   -1.377670   -0.376858
 C    4.155125   -1.189588   -2.002403
 C    4.511314   -2.642823   -1.632327
 C    5.437371   -0.339697   -2.087777
 C    5.216305    1.086647   -2.634687
 C    5.391948    2.196014   -1.589868
 C    4.642508    2.054884    0.788087
 N   -3.829518   -0.127467    1.585958
 N    0.367173   -0.117522    0.407540
 N    5.067606   -1.264524    1.762977
 N    3.269744   -0.643970   -0.994044
 N    4.147437   -3.587170   -2.545816
 N    4.358010    2.179113   -0.558009
 N    3.586210    2.361723    1.624248
 N    5.809042    1.664024    1.183786
 O   -2.352972   -1.436474    0.464573
 O   -3.884923    2.568971    2.047378
 O    1.230909    1.904572   -0.165059
 O    3.747198   -0.151033    3.236852
 O    2.030017   -2.522885   -0.714366
 O    5.135047   -2.922984   -0.619328
 H   -2.029951   -1.262880    3.458687
 H   -3.599410   -2.088015    3.347703
 H   -2.152517   -2.810628    2.596233
 H   -3.592876    0.345325   -0.379449
 H   -6.024651    1.511563    1.040779
 H   -5.671193    1.611252   -0.679592
 H   -6.311395   -0.926433    0.903117
 H   -4.662133   -1.484732   -0.852872
 H   -5.632305   -0.632904   -2.055370
 H   -6.475009   -3.106249   -0.459219
 H   -6.040081   -3.085974   -2.165212
 H   -7.992334   -1.622889   -2.667300
 H   -8.531449   -3.094654   -1.864701
 H   -8.646884   -1.894274    0.311719
 H   -9.635090   -1.061194   -0.884293
 H   -8.241214    0.559012    0.423429
 H   -7.809248    0.582535   -1.285732
 H   -3.709142    2.878666    0.010914
 H   -1.463576    3.058098    1.104329
 H   -1.592740    1.409137    1.655667
 H   -1.663312    0.660531   -0.789268
 H   -0.229469    2.276673   -2.239108
 H   -3.273505    2.657326   -2.076163
 H   -2.235252    3.054835   -3.444878
 H   -2.417389    1.369151   -2.942372
 H   -0.059594    4.139762   -0.592021
 H   -1.815229    4.402414   -0.712602
 H   -0.787722    4.646304   -2.126332
 H    2.260727    0.173123    1.114972
 H    0.844047   -2.452709    1.735312
 H    1.111309   -1.087045    2.843385
 H    3.216593   -2.953934    1.613958
 H    2.826720   -2.741169    3.330287
 H    3.646945   -1.187674   -2.978396
 H    5.894002   -0.295070   -1.090774
 H    6.148764   -0.872101   -2.727961
 H    5.932824    1.278613   -3.441722
 H    4.219541    1.173335   -3.089835
 H    5.385925    3.174639   -2.087105
 H    6.354315    2.079485   -1.085975
 H   -4.097058    0.208368    2.502095
 H   -0.438386   -0.736564    0.353310
 H    5.643853   -0.438452    1.626976
 H    5.108317   -1.961042    1.022277
 H    3.356256    0.348208   -0.797380
 H    3.292662   -3.414516   -3.057509
 H    4.230837   -4.532907   -2.196115
 H    3.491983    2.655553   -0.778597
 H    2.668826    2.356027    1.183662
 H    3.615686    1.829546    2.490040
 H    5.848132    1.722927    2.203641
 H   -3.414238    3.374576    2.298985
