88 
1gny_ligand_dft.xyz
 O  -12.745644   -1.309590    0.252650
 C  -11.413448   -1.002191    0.488275
 C  -10.531333   -1.398663   -0.689482
 C   -9.083353   -1.011360   -0.428965
 C   -9.016584    0.479808   -0.082551
 C  -10.044044    0.805554    1.009474
 O  -10.665955   -2.789009   -0.888015
 O   -8.373343   -1.373171   -1.591920
 O   -7.765860    0.885125    0.456484
 O  -11.342089    0.388627    0.657180
 C   -6.695348    1.005947   -0.424683
 C   -5.704454    2.010437    0.172419
 C   -4.275085    1.574601   -0.123324
 C   -4.003443    0.226614    0.550257
 C   -5.239748   -0.671538    0.413202
 O   -5.966500    3.275166   -0.379611
 O   -3.437034    2.606954    0.343199
 O   -2.895794   -0.444873   -0.038615
 O   -6.063982   -0.245050   -0.666293
 C   -1.648352   -0.130822    0.441677
 C   -0.692506   -1.266483    0.100668
 C    0.733156   -0.902175    0.506782
 C    1.141706    0.441560   -0.088737
 C    0.084345    1.488271    0.252472
 O   -1.107465   -2.423479    0.780290
 O    1.542850   -1.975388    0.087751
 O    2.356242    0.924806    0.463493
 O   -1.193638    1.069278   -0.193245
 C    3.533553    0.542301   -0.135756
 C    4.579225    1.622923    0.104393
 C    5.940209    1.171740   -0.417281
 C    6.316259   -0.186252    0.167660
 C    5.178962   -1.174695   -0.079379
 O    4.169903    2.794272   -0.553282
 O    6.841981    2.201126   -0.085404
 O    7.464299   -0.740334   -0.457246
 O    3.969799   -0.677447    0.468241
 C    8.693591   -0.416860    0.066325
 C    9.665283   -1.561817   -0.199177
 C   11.064652   -1.158018    0.248512
 C   11.490866    0.151410   -0.393703
 C   10.422792    1.207133   -0.102501
 O    9.221364   -2.685938    0.516083
 O   11.927479   -2.223517   -0.079094
 O   12.742416    0.491809    0.173424
 O    9.162992    0.767174   -0.584414
 H  -12.745126   -2.147845   -0.230761
 H  -11.047995   -1.502607    1.407525
 H  -10.893475   -0.841219   -1.567241
 H   -8.720370   -1.577965    0.445290
 H   -9.236130    1.061006   -0.989575
 H   -9.716878    0.329773    1.948604
 H  -10.088382    1.883865    1.169266
 H   -9.995426   -3.028121   -1.543259
 H   -7.427148   -1.239674   -1.405787
 H   -7.026507    1.349858   -1.410015
 H   -5.848681    2.024681    1.265307
 H   -4.160411    1.436513   -1.207516
 H   -3.791346    0.406751    1.614078
 H   -4.925464   -1.691190    0.189068
 H   -5.825105   -0.670429    1.340329
 H   -5.181536    3.805863   -0.178106
 H   -2.535598    2.366975    0.066284
 H   -1.671988    0.034775    1.534137
 H   -0.727332   -1.406277   -0.990813
 H    0.760671   -0.798967    1.604820
 H    1.232982    0.343862   -1.179339
 H    0.305890    2.431597   -0.248436
 H    0.083435    1.662212    1.339495
 H   -0.373607   -3.048525    0.694085
 H    2.451992   -1.781530    0.377522
 H    3.395407    0.378478   -1.218548
 H    4.650128    1.775521    1.192519
 H    5.867445    1.054231   -1.511806
 H    6.486938   -0.081480    1.247958
 H    5.075232   -1.353770   -1.160273
 H    5.386117   -2.126260    0.411504
 H    4.941594    3.378187   -0.544097
 H    7.713929    1.946598   -0.435747
 H    8.625678   -0.226143    1.151342
 H    9.673029   -1.748473   -1.283901
 H   11.042405   -1.004982    1.341078
 H   11.572534    0.000804   -1.479274
 H   10.385276    1.400900    0.980450
 H   10.637588    2.148564   -0.613886
 H    9.940270   -3.331508    0.473760
 H   12.812425   -1.963772    0.209379
 H   13.179967    1.132827   -0.398145
