21 
1grp_ligand_dft.xyz
 C   -2.117420   -0.216975    0.543906
 O   -1.789798    0.414993    1.516801
 O   -3.246963   -0.949174    0.490511
 C   -1.370211   -0.276657   -0.785649
 O   -1.412989   -1.566522   -1.348333
 C    0.097499    0.123448   -0.629345
 C    0.870504   -0.797066    0.311119
 C    2.355940   -0.752664    0.052249
 O    3.053039   -1.272685    1.078141
 O    2.885070   -0.344174   -0.953704
 C    0.178140    1.599898   -0.283881
 O   -0.544666    2.444673   -0.757177
 O    1.167431    1.887950    0.573523
 H   -3.689039   -0.855674    1.349606
 H   -1.851670    0.464759   -1.440447
 H   -2.332567   -1.861181   -1.346014
 H    0.544318    0.033513   -1.627222
 H    0.545499   -1.829400    0.133146
 H    0.675316   -0.567524    1.360603
 H    3.987267   -1.234318    0.817691
 H    1.145176    2.849437    0.704148
