33 
1gt3_ligand_xtb.xyz
 C    3.071575    1.930001    0.119524
 C    2.999516    0.584540   -0.593211
 C    2.592704   -0.576605    0.321405
 C    1.231114   -0.376351    1.003473
 C    0.059871   -0.130596    0.055064
 C   -1.250856    0.015040    0.826489
 C   -2.496459    0.057611   -0.081898
 C   -3.754667    0.135917    0.794208
 C   -2.457580    1.249568   -1.038453
 C    2.632257   -1.887832   -0.463381
 O   -2.549704   -1.102282   -0.898873
 H    2.087499    2.256803    0.444767
 H    3.718897    1.865211    0.991832
 H    3.474397    2.687664   -0.549289
 H    3.984445    0.355752   -1.008461
 H    2.303908    0.650744   -1.431496
 H    3.338832   -0.644388    1.123682
 H    1.302374    0.463734    1.697799
 H    1.021818   -1.267754    1.601674
 H   -0.039556   -0.960485   -0.645562
 H    0.238863    0.777817   -0.518392
 H   -1.354127   -0.834636    1.509606
 H   -1.226375    0.921879    1.433760
 H   -4.642325    0.087719    0.167732
 H   -3.784234   -0.693224    1.500092
 H   -3.770020    1.066915    1.353855
 H   -2.280843    2.170895   -0.491230
 H   -3.403878    1.323695   -1.567245
 H   -1.671562    1.106251   -1.773033
 H    1.958168   -1.849906   -1.315329
 H    2.342636   -2.723502    0.169917
 H    3.636951   -2.075145   -0.836505
 H   -2.603087   -1.875538   -0.326496
