129 
1gvx_ligand_ani.xyz
 N    6.065346   -2.239975   -2.115442
 C    6.315369   -2.586882   -0.704570
 C    4.975265   -2.406360    0.011034
 O    3.988867   -3.183079   -0.587148
 C    7.453870   -1.669747   -0.191301
 C    7.985798   -0.977333   -1.460502
 C    6.739619   -0.954325   -2.348362
 N    5.005718   -2.720823    1.427693
 C    3.916251   -1.921596    1.962407
 C    3.876263   -0.705476    1.023667
 O    4.574332   -1.005610   -0.097882
 C    4.045317   -1.552818    3.445796
 O    5.409561   -1.210354    3.659816
 C    3.595658   -2.691230    4.350172
 N    3.364503    0.422975    1.286931
 C    3.003710    1.401904    0.291079
 C    1.597103    1.169872   -0.335121
 O    0.751842    0.481921    0.536443
 C    3.908393    1.590820   -0.970553
 C    3.226684    0.838169   -2.140924
 C    1.893344    0.297413   -1.612889
 O    0.873350    0.457421   -2.561864
 O    2.038484   -1.055540   -1.253974
 N    1.049694    2.442358   -0.803106
 C    0.214112    3.243381    0.097759
 C   -0.891733    3.954013   -0.710725
 C    1.021736    4.289565    0.894847
 C    1.481846    5.512062    0.125045
 C    1.121644    6.786875    0.569883
 C    2.253380    5.410230   -1.036560
 C    1.522952    7.928465   -0.118576
 C    2.661073    6.548811   -1.723253
 C    2.296895    7.812411   -1.267517
 N   -1.947403    3.148106   -1.295891
 C   -2.912021    2.561449   -0.388162
 C   -2.611073    1.072596   -0.147849
 O   -1.727840    0.486278   -0.782402
 C   -4.356592    2.750798   -0.936165
 C   -5.421077    2.812892    0.138579
 C   -6.346204    1.779241    0.303089
 C   -5.477467    3.908037    1.005426
 C   -7.297979    1.832585    1.320250
 C   -6.433092    3.968405    2.014581
 C   -7.343632    2.928688    2.177600
 N   -3.354312    0.433999    0.786620
 C   -3.429032   -1.014239    0.775979
 C   -4.250731   -1.514446   -0.429874
 O   -4.917860   -0.781448   -1.143478
 C   -3.952585   -1.547151    2.113621
 C   -2.915431   -1.445645    3.242651
 C   -2.058155   -2.701165    3.443169
 N   -1.143487   -3.022165    2.347788
 C   -0.054661   -2.294310    2.038116
 N    0.439503   -1.376850    2.905077
 N    0.599791   -2.557855    0.908730
 N   -4.147545   -2.858136   -0.646473
 C   -4.552444   -3.476537   -1.880928
 C   -5.523845   -4.612871   -1.606421
 O   -6.164818   -4.979060   -2.733425
 C   -3.364380   -4.013648   -2.707365
 C   -2.306776   -2.952612   -3.005699
 C   -1.181491   -2.822326   -1.945219
 O   -0.281033   -2.009022   -2.245154
 O   -1.259623   -3.520411   -0.908418
 O   -5.691331   -5.162096   -0.547179
 H    6.489302   -2.948000   -2.706286
 H    3.963985   -2.856682   -1.502296
 H    6.567535   -3.648660   -0.621874
 H    7.033883   -0.914544    0.482717
 H    8.215567   -2.227783    0.360905
 H    8.779448   -1.571488   -1.929815
 H    8.380954    0.024194   -1.265217
 H    6.055469   -0.164529   -2.014436
 H    6.938395   -0.808951   -3.413894
 H    5.874821   -2.415239    1.863442
 H    2.984852   -2.487535    1.823119
 H    3.411203   -0.667538    3.607147
 H    5.498020   -0.881235    4.563403
 H    3.710563   -2.420574    5.406014
 H    4.188973   -3.591583    4.156909
 H    2.539066   -2.915402    4.169124
 H    0.952314   -0.620091    2.458693
 H    2.957691    2.353459    0.820719
 H    4.933524    1.254333   -0.800834
 H    3.947501    2.663788   -1.193713
 H    3.835726    0.001174   -2.496449
 H    3.035204    1.500625   -2.988860
 H   -0.072810    0.333606    0.032093
 H    0.565767    2.289335   -1.687031
 H   -0.237329    2.564326    0.833427
 H   -1.373786    4.699993   -0.064460
 H   -0.418659    4.520068   -1.524232
 H    0.381467    4.624110    1.720208
 H    1.876976    3.792791    1.364506
 H    0.513922    6.886435    1.467543
 H    2.523582    4.429416   -1.419674
 H    1.229754    8.911002    0.245137
 H    3.262227    6.448131   -2.622931
 H    2.614430    8.700911   -1.807629
 H    0.210655   -0.246614   -2.442251
 H   -1.586904    2.440911   -1.927955
 H   -2.844443    3.084412    0.578415
 H   -4.343952    3.689196   -1.499853
 H   -4.584152    1.947015   -1.645880
 H   -6.296905    0.913251   -0.354949
 H   -4.761471    4.719912    0.884912
 H   -8.003779    1.015380    1.444395
 H   -6.460917    4.827843    2.680298
 H   -8.086679    2.972341    2.969459
 H   -4.187262    0.917885    1.101468
 H   -2.406681   -1.377125    0.634897
 H   -4.263504   -2.592811    1.988313
 H   -4.863753   -0.992868    2.374479
 H   -3.423783   -1.243828    4.191806
 H   -2.252638   -0.591056    3.052687
 H   -1.483098   -2.613575    4.372630
 H   -2.702600   -3.575576    3.572707
 H   -1.515285   -3.565499    1.574677
 H   -0.189601   -1.054504    3.631196
 H    1.206878   -1.812827    0.572085
 H    0.068318   -3.051091    0.171699
 H   -3.501120   -3.384511   -0.078531
 H   -5.076994   -2.708575   -2.458400
 H   -6.743409   -5.720217   -2.488520
 H   -3.779052   -4.396357   -3.645034
 H   -2.899174   -4.860787   -2.190805
 H   -1.787983   -3.159610   -3.946954
 H   -2.746348   -1.952258   -3.118847
 H    1.316705   -1.567557   -1.667072
