129 
1gvx_ligand_xtb.xyz
 N    6.898509   -1.639660   -1.957507
 C    6.869565   -1.972872   -0.534438
 C    5.396051   -2.133212   -0.103503
 O    4.712114   -2.928545   -0.996163
 C    7.603577   -0.845543    0.232499
 C    8.063451    0.122831   -0.863510
 C    7.105750   -0.197653   -2.017271
 N    5.258023   -2.703340    1.204446
 C    4.016921   -2.156961    1.732396
 C    3.805459   -0.887476    0.903358
 O    4.745544   -0.837733   -0.047462
 C    4.128809   -1.860912    3.232333
 O    5.318591   -1.110238    3.410634
 C    4.150930   -3.155441    4.040490
 N    2.887973   -0.071884    1.175454
 C    2.599392    1.170609    0.500658
 C    1.302621    1.066077   -0.343830
 O    0.331320    0.302633    0.325322
 C    3.607804    1.676168   -0.537096
 C    3.198644    1.044218   -1.874891
 C    1.827948    0.373722   -1.653374
 O    0.983412    0.618489   -2.737434
 O    1.999067   -0.995062   -1.436527
 N    0.852932    2.383358   -0.731096
 C   -0.028751    3.129967    0.150516
 C   -1.141796    3.837296   -0.654162
 C    0.750422    4.201743    0.952705
 C    1.124261    5.414689    0.149537
 C    0.729256    6.682230    0.556809
 C    1.880629    5.294441   -1.011406
 C    1.085114    7.804760   -0.171123
 C    2.231812    6.413410   -1.743109
 C    1.839009    7.673850   -1.323539
 N   -2.170021    3.013290   -1.245272
 C   -3.112052    2.393170   -0.338175
 C   -2.843441    0.899135   -0.213940
 O   -2.043719    0.333457   -0.947517
 C   -4.564102    2.595731   -0.859382
 C   -5.552071    2.683601    0.266042
 C   -6.397360    1.622098    0.572795
 C   -5.612703    3.835476    1.044489
 C   -7.279516    1.713166    1.637747
 C   -6.495225    3.926278    2.104889
 C   -7.330650    2.862763    2.406408
 N   -3.499015    0.258251    0.770960
 C   -3.443293   -1.189251    0.821504
 C   -4.373088   -1.787000   -0.251639
 O   -5.402909   -1.239641   -0.599526
 C   -3.817244   -1.701168    2.211005
 C   -2.704590   -1.463751    3.237473
 C   -1.688079   -2.614659    3.289624
 N   -0.952568   -2.808236    2.063210
 C    0.179422   -2.185464    1.693819
 N    0.820930   -1.346391    2.511919
 N    0.720114   -2.545012    0.546945
 N   -3.924118   -2.952540   -0.726051
 C   -4.485763   -3.580436   -1.895500
 C   -5.255799   -4.826857   -1.495242
 O   -5.962362   -5.322150   -2.516490
 C   -3.347491   -3.958109   -2.860443
 C   -2.395821   -2.786889   -3.114983
 C   -1.231247   -2.649526   -2.114298
 O   -0.299123   -1.906553   -2.445326
 O   -1.288997   -3.283720   -1.024278
 O   -5.235780   -5.336217   -0.408094
 H    7.678105   -2.112235   -2.403429
 H    4.909356   -2.600443   -1.887038
 H    7.319088   -2.955843   -0.367187
 H    6.915164   -0.349162    0.916514
 H    8.439679   -1.237015    0.809800
 H    9.091370   -0.096548   -1.159939
 H    8.006117    1.163276   -0.553152
 H    6.142398    0.286026   -1.845390
 H    7.484423    0.097960   -2.994634
 H    6.026210   -2.397581    1.796389
 H    3.200241   -2.859683    1.542885
 H    3.262592   -1.250629    3.523769
 H    5.449453   -0.959463    4.352415
 H    4.288297   -2.942348    5.099521
 H    4.963044   -3.790895    3.697637
 H    3.212457   -3.684750    3.909205
 H    1.558881   -0.767653    2.062961
 H    2.453621    1.890379    1.311675
 H    4.624823    1.418938   -0.251829
 H    3.528349    2.760837   -0.587509
 H    3.898366    0.276131   -2.197211
 H    3.095461    1.787269   -2.662551
 H   -0.418444    0.172348   -0.289159
 H    0.470125    2.323266   -1.671092
 H   -0.488660    2.443427    0.881169
 H   -1.635625    4.562835   -0.000526
 H   -0.668655    4.392209   -1.468905
 H    0.136534    4.508245    1.803228
 H    1.660474    3.745101    1.344385
 H    0.138605    6.795920    1.455898
 H    2.168472    4.309470   -1.343250
 H    0.771231    8.783566    0.162492
 H    2.816147    6.303289   -2.645313
 H    2.117093    8.548617   -1.893090
 H    0.315577   -0.090911   -2.778526
 H   -1.763565    2.294269   -1.840908
 H   -3.032257    2.854481    0.653668
 H   -4.562019    3.526050   -1.428906
 H   -4.825912    1.780626   -1.535274
 H   -6.370393    0.722305   -0.025127
 H   -4.967173    4.669191    0.806364
 H   -7.931519    0.881715    1.862506
 H   -6.536665    4.830245    2.695243
 H   -8.022182    2.934292    3.233069
 H   -4.318527    0.700048    1.167323
 H   -2.416656   -1.463050    0.565090
 H   -4.045297   -2.766425    2.145886
 H   -4.729973   -1.190078    2.524895
 H   -3.141259   -1.368499    4.232797
 H   -2.197058   -0.526908    3.000265
 H   -0.979485   -2.444632    4.105774
 H   -2.219255   -3.545542    3.502302
 H   -1.372062   -3.388228    1.349953
 H    0.307706   -0.929136    3.268274
 H    1.435605   -1.946239    0.138022
 H    0.067250   -2.978002   -0.147567
 H   -2.946618   -3.226998   -0.563629
 H   -5.185514   -2.882056   -2.372024
 H   -6.436966   -6.123651   -2.243308
 H   -3.788584   -4.297267   -3.798278
 H   -2.781415   -4.786075   -2.424666
 H   -1.939468   -2.880817   -4.102016
 H   -2.935430   -1.836316   -3.098351
 H    1.217151   -1.465364   -1.823198
