45 
1gwv_ligand_xtb.xyz
 C    1.131129   -0.630010    0.059653
 C    2.288524   -1.308574   -0.683271
 C    3.586746   -1.045103    0.088409
 C    3.786629    0.471388    0.257889
 C    2.531441    1.095413    0.881739
 C    2.592386    2.629359    0.890315
 O   -0.029070   -0.845153   -0.672177
 O    2.106551   -2.697610   -0.780835
 O    4.698002   -1.544437   -0.611511
 O    4.038283    1.068234   -0.984717
 O    1.366824    0.752890    0.148309
 O    1.497759    3.193069    1.553976
 C   -4.064519   -0.032089   -0.439989
 C   -3.160018    1.203921   -0.320858
 C   -1.752171    0.864584   -0.815648
 C   -1.233131   -0.373771   -0.069346
 C   -2.269123   -1.513190   -0.126916
 C   -1.863412   -2.661281    0.810211
 O   -5.332631    0.218262    0.050949
 O   -3.742787    2.239002   -1.069119
 O   -0.951830    2.002629   -0.614629
 O   -3.535241   -1.082699    0.319015
 O   -1.804315   -2.230519    2.139522
 H    1.039518   -1.055991    1.080376
 H    2.360361   -0.849658   -1.681177
 H    3.507335   -1.524967    1.076168
 H    4.638085    0.636823    0.937074
 H    2.425071    0.719890    1.912002
 H    2.659541    2.972243   -0.148485
 H    3.483955    2.949265    1.431813
 H    1.238799   -2.855196   -1.170529
 H    4.497825   -2.456283   -0.856339
 H    4.690530    0.509171   -1.430769
 H    0.688680    2.936838    1.092220
 H   -4.110376   -0.333546   -1.509140
 H   -3.098855    1.487692    0.742715
 H   -1.796517    0.622133   -1.891171
 H   -1.050640   -0.112798    0.980174
 H   -2.327276   -1.874502   -1.165936
 H   -2.587720   -3.477461    0.693357
 H   -0.867370   -3.022173    0.547189
 H   -5.560320    1.124845   -0.194613
 H   -3.080188    2.936121   -1.156103
 H   -0.022634    1.724001   -0.663117
 H   -2.667058   -1.849682    2.350895
