65 
1gz9_ligand_dft.xyz
 C    2.754264    0.299957   -0.849702
 C    4.084985    0.079052   -0.141920
 C    3.990972   -1.140904    0.773537
 C    3.482280   -2.351082   -0.023241
 C    2.187341   -1.996452   -0.759273
 C    1.654278   -3.104142   -1.643632
 O    1.808799    0.603102    0.138049
 O    4.422774    1.250694    0.572543
 O    5.250434   -1.392631    1.360653
 O    4.510839   -2.775831   -0.912214
 O    2.416485   -0.844831   -1.586773
 C   -0.499025    1.240595    0.361385
 C    0.876427    1.610825   -0.172186
 C    1.315577    2.922825    0.480215
 C    0.284375    4.016969    0.194073
 C   -1.125025    3.524584    0.536394
 C   -2.205349    4.458837    0.030315
 O   -0.895369    0.046861   -0.186563
 O    2.551084    3.368397   -0.026459
 O    0.334693    4.374922   -1.168082
 O   -1.398809    2.254219   -0.038290
 O   -3.441290    3.959386    0.500462
 C   -3.738905   -2.791075   -0.282261
 C   -4.330439   -1.402610   -0.081490
 C   -3.290882   -0.332431   -0.373985
 C   -2.007891   -0.607320    0.417654
 C   -1.613812   -2.093724    0.432222
 C   -0.615742   -2.386222    1.541451
 O   -4.671540   -3.786980   -0.039441
 O   -5.453768   -1.281059   -0.926354
 O   -3.905380    0.892247   -0.058134
 O   -2.707986   -2.960135    0.659818
 O    0.000992   -3.642973    1.384409
 H    2.827332    1.113992   -1.577560
 H    4.845677   -0.115073   -0.912917
 H    3.295804   -0.912065    1.587335
 H    3.299473   -3.185168    0.660563
 H    1.430340   -1.738324   -0.017457
 H    1.334949   -3.939604   -1.015145
 H    0.790352   -2.736352   -2.203879
 H    2.409043   -3.456364   -2.352232
 H    5.113179    1.002483    1.203516
 H    5.736484   -1.910864    0.699165
 H    4.411807   -2.256138   -1.722741
 H   -0.485985    1.178694    1.467132
 H    0.779968    1.742006   -1.255411
 H    1.377320    2.757861    1.567624
 H    0.507660    4.887858    0.831502
 H   -1.206912    3.446309    1.633218
 H   -2.156530    4.480665   -1.064235
 H   -2.006858    5.472971    0.407289
 H    3.247285    2.749345    0.264165
 H    1.276647    4.433835   -1.386912
 H   -4.148839    4.345997   -0.025839
 H   -3.317744   -2.882887   -1.302051
 H   -4.626056   -1.329388    0.976547
 H   -3.030492   -0.385645   -1.443923
 H   -2.152081   -0.242217    1.445682
 H   -1.148082   -2.318100   -0.541089
 H   -1.144294   -2.313204    2.504367
 H    0.176400   -1.633409    1.530444
 H   -5.525625   -3.431116   -0.323866
 H   -5.738637   -0.358890   -0.865494
 H   -3.253804    1.614160   -0.114228
 H   -0.714041   -4.290560    1.320092
