65 
1gz9_ligand_xtb.xyz
 C    2.736368    0.139531   -0.913437
 C    4.152423    0.032777   -0.316245
 C    4.175476   -1.099777    0.722302
 C    3.652759   -2.391663    0.064512
 C    2.256799   -2.131283   -0.518766
 C    1.669491   -3.356158   -1.200757
 O    1.867770    0.546090    0.110509
 O    4.508446    1.267203    0.258230
 O    5.477587   -1.265345    1.224974
 O    4.562494   -2.807829   -0.930747
 O    2.358386   -1.078384   -1.483111
 C   -0.440695    1.193528    0.389576
 C    0.928809    1.553114   -0.204550
 C    1.398031    2.894334    0.391729
 C    0.326522    3.971537    0.155965
 C   -1.031667    3.474668    0.667154
 C   -2.163596    4.431870    0.297669
 O   -0.876046    0.025866   -0.203633
 O    2.581582    3.343021   -0.214700
 O    0.233077    4.278744   -1.208082
 O   -1.363558    2.218231    0.109548
 O   -3.269585    4.136660    1.115870
 C   -3.906725   -2.711903   -0.250203
 C   -4.396608   -1.262902   -0.362758
 C   -3.221907   -0.341390   -0.706621
 C   -2.080576   -0.543076    0.305392
 C   -1.797131   -2.042262    0.524997
 C   -0.879405   -2.267893    1.732099
 O   -4.935507   -3.580688    0.064853
 O   -5.402103   -1.207221   -1.342124
 O   -3.723525    0.969646   -0.725667
 O   -2.962010   -2.794889    0.781646
 O   -0.399495   -3.581726    1.774004
 H    2.737633    0.860726   -1.741365
 H    4.857631   -0.207742   -1.129008
 H    3.535633   -0.816044    1.563961
 H    3.613842   -3.191046    0.811410
 H    1.592569   -1.800083    0.285553
 H    1.351431   -4.066275   -0.443635
 H    0.812827   -3.053532   -1.794907
 H    2.401457   -3.825305   -1.853243
 H    5.171373    1.080963    0.937968
 H    5.939202   -1.868734    0.624528
 H    4.282929   -2.403726   -1.763262
 H   -0.344206    1.075656    1.490377
 H    0.801698    1.648360   -1.288804
 H    1.545067    2.751403    1.473281
 H    0.611290    4.872037    0.724985
 H   -0.986947    3.382704    1.763630
 H   -2.388604    4.291472   -0.763594
 H   -1.822855    5.463379    0.458260
 H    3.286235    2.693669   -0.043700
 H    1.142532    4.342713   -1.534158
 H   -4.058998    4.537272    0.738394
 H   -3.432066   -3.005465   -1.211619
 H   -4.801838   -0.960914    0.617153
 H   -2.835006   -0.610769   -1.704632
 H   -2.359345   -0.068907    1.254843
 H   -1.299307   -2.415087   -0.384729
 H   -1.446081   -2.029403    2.642960
 H   -0.010071   -1.611983    1.662754
 H   -5.741667   -3.226765   -0.333365
 H   -5.525978   -0.274312   -1.559874
 H   -2.991247    1.586563   -0.560030
 H   -1.169445   -4.164161    1.738948
