45 
1gzc_ligand_ani.xyz
 C    1.133883   -0.660434    0.068264
 C    2.325502   -1.291692   -0.632706
 C    3.608813   -0.973171    0.121256
 C    3.768243    0.538847    0.285961
 C    2.496689    1.123172    0.897670
 C    2.459334    2.643504    0.929206
 O   -0.021563   -0.887466   -0.686485
 O    2.216991   -2.701731   -0.697164
 O    4.732670   -1.432107   -0.606937
 O    3.978227    1.132238   -0.974448
 O    1.354786    0.730298    0.139096
 O    1.286183    3.101629    1.565149
 C   -4.053309    0.002531   -0.409605
 C   -3.106453    1.199416   -0.328005
 C   -1.724556    0.834948   -0.837675
 C   -1.220982   -0.409120   -0.091668
 C   -2.259247   -1.532410   -0.177090
 C   -1.886437   -2.711726    0.713583
 O   -5.288550    0.262415    0.172044
 O   -3.685067    2.230300   -1.094614
 O   -0.898967    1.969247   -0.652510
 O   -3.521443   -1.080643    0.300492
 O   -1.769729   -2.303377    2.057131
 H    1.006017   -1.073800    1.084929
 H    2.399359   -0.846355   -1.634214
 H    3.571422   -1.450038    1.114654
 H    4.617172    0.740051    0.961905
 H    2.379673    0.743276    1.926040
 H    3.304403    3.023070    1.514305
 H    2.552768    3.028277   -0.096184
 H    1.453953   -2.889921   -1.258601
 H    4.509434   -2.320444   -0.922833
 H    4.626126    0.566844   -1.421839
 H    0.524217    2.775995    1.060293
 H   -4.174782   -0.276997   -1.478520
 H   -3.027452    1.489837    0.733078
 H   -1.792095    0.587388   -1.911891
 H   -1.064108   -0.151438    0.966418
 H   -2.347396   -1.860825   -1.226173
 H   -2.645826   -3.499759    0.595664
 H   -0.916817   -3.125296    0.419691
 H   -5.632548    1.063600   -0.250811
 H   -3.055041    2.963701   -1.083546
 H    0.015392    1.668300   -0.787589
 H   -2.621038   -1.905091    2.286060
