45 
1gzc_ligand_xtb.xyz
 C    1.131118   -0.630053    0.059668
 C    2.288557   -1.308539   -0.683304
 C    3.586770   -1.045058    0.088374
 C    3.786578    0.471417    0.257880
 C    2.531395    1.095361    0.881750
 C    2.592256    2.629325    0.890475
 O   -0.029037   -0.845181   -0.672180
 O    2.106571   -2.697566   -0.780917
 O    4.698053   -1.544305   -0.611589
 O    4.038215    1.068348   -0.984696
 O    1.366818    0.752831    0.148307
 O    1.497579    3.193000    1.554136
 C   -4.064478   -0.032166   -0.439935
 C   -3.160026    1.203914   -0.320935
 C   -1.752186    0.864507   -0.815735
 C   -1.233094   -0.373787   -0.069350
 C   -2.269075   -1.513190   -0.126855
 C   -1.863393   -2.661203    0.810350
 O   -5.332603    0.218250    0.050963
 O   -3.742809    2.238913   -1.069312
 O   -0.951833    2.002562   -0.614773
 O   -3.535202   -1.082739    0.319098
 O   -1.804182   -2.230363    2.139609
 H    1.039557   -1.056094    1.080377
 H    2.360386   -0.849601   -1.681193
 H    3.507471   -1.524985    1.076085
 H    4.638054    0.636892    0.937038
 H    2.425063    0.719816    1.912009
 H    3.483814    2.949242    1.431955
 H    2.659488    2.972357   -0.148266
 H    1.238857   -2.855246   -1.170671
 H    4.497877   -2.456136   -0.856489
 H    4.690424    0.509335   -1.430856
 H    0.688547    2.936717    1.092324
 H   -4.110404   -0.333616   -1.509067
 H   -3.098818    1.487726    0.742649
 H   -1.796437    0.622050   -1.891255
 H   -1.050566   -0.112733    0.980163
 H   -2.327242   -1.874643   -1.165835
 H   -2.587752   -3.477323    0.693539
 H   -0.867403   -3.022113    0.547241
 H   -5.560289    1.124819   -0.194699
 H   -3.080184    2.935996   -1.156382
 H   -0.022626    1.723916   -0.663137
 H   -2.666912   -1.849534    2.351013
