16 
1gzg_ligand_ani.xyz
 C   -1.028676   -0.198632    0.245185
 C   -2.401488   -0.271015   -0.401772
 C   -0.067687   -1.331495   -0.077862
 C    1.343294   -1.055417    0.436766
 C    2.025275    0.203428   -0.082329
 O   -0.725053    0.712278    0.978135
 O    1.704073    0.627881   -1.325315
 O    2.863868    0.782791    0.552243
 F   -3.182077    0.774145    0.004193
 H   -2.888065   -1.219480   -0.134232
 H   -2.287009   -0.241039   -1.494331
 H   -0.071098   -1.531510   -1.160101
 H   -0.447613   -2.247851    0.389419
 H    2.002437   -1.899810    0.197129
 H    1.336970   -0.957605    1.524103
 H    1.025657    0.065184   -1.720163
