52 
1h1d_ligand_xtb.xyz
 N    2.830250   -0.381727    0.491978
 C   -4.476199    1.515184   -1.002990
 C    4.217318    0.965414    2.001779
 O   -7.846611    1.458206    0.271907
 C   -2.614260   -0.088354   -1.040311
 C   -5.761382    1.905035   -0.691958
 O   -1.866456    0.703593   -1.569873
 O   -6.204955    3.115912   -1.041158
 C    5.443189    1.530687    2.304189
 C   -3.990383    0.243660   -0.651880
 C    1.665195   -1.974832   -0.904510
 N   -6.924120   -1.188280    1.085628
 C    0.475369   -0.091870    0.043407
 O   -8.072090   -0.862638    1.350267
 O   -6.425267   -2.242489    1.395906
 C   -4.819835   -0.629220    0.033046
 C    1.597089    0.086107    1.068775
 C   -2.135554   -1.520625   -0.762723
 N    0.360084   -1.514622   -0.365249
 C    6.389009    0.532230    0.361421
 C    2.751984   -1.780151    0.150734
 C    5.164194   -0.028467    0.037504
 C   -0.739990   -1.769118   -1.331148
 C   -6.118627   -0.246747    0.363135
 C    4.061717    0.175797    0.863459
 C   -6.622579    1.013876    0.007182
 C    7.536749    0.259367   -0.572589
 F    8.685286    0.809905   -0.183840
 F    7.757312   -1.064190   -0.702025
 F    7.282076    0.710492   -1.815004
 C    6.544248    1.316942    1.493483
 H   -3.834790    2.199393   -1.535490
 H    3.388344    1.135263    2.670576
 H   -8.360117    0.763928    0.751476
 H   -7.126036    3.227094   -0.757242
 H    5.543073    2.136257    3.190879
 H    1.895198   -1.378065   -1.788728
 H    1.591653   -3.026209   -1.187190
 H    0.683042    0.500009   -0.849352
 H   -0.470459    0.244673    0.465895
 H   -4.512879   -1.616212    0.338739
 H    1.679786    1.149592    1.291984
 H    1.338340   -0.448776    1.999883
 H   -2.837450   -2.199265   -1.248738
 H   -2.176266   -1.722179    0.308946
 H    0.172960   -2.059853    0.486404
 H    2.514467   -2.394604    1.037922
 H    3.705637   -2.126645   -0.243486
 H    5.079882   -0.607908   -0.868953
 H   -0.590532   -1.104045   -2.187125
 H   -0.652306   -2.804705   -1.663471
 H    7.502401    1.748621    1.731969
