52 
1h1d_ligand_ani.xyz
 N    2.863025   -0.157792    0.126215
 C   -4.673892    1.297281   -1.259480
 C    4.141227    1.233965    1.718319
 O   -7.918468    1.442253    0.310003
 C   -2.745134   -0.267546   -1.185632
 C   -5.941559    1.698823   -0.885502
 O   -2.132441    0.442650   -1.959223
 O   -6.489854    2.826176   -1.396311
 C    5.368655    1.734092    2.139028
 C   -4.112997    0.126479   -0.727016
 C    1.666765   -2.007157   -0.929838
 N   -6.860006   -1.037816    1.502267
 C    0.458661    0.029411   -0.301978
 O   -7.997840   -0.678774    1.823844
 O   -6.332194   -2.039501    1.936271
 C   -4.840949   -0.625226    0.185103
 C    1.614572    0.404825    0.614657
 C   -2.148765   -1.576615   -0.680003
 N    0.352476   -1.473964   -0.438804
 C    6.471885    0.519219    0.393692
 C    2.780064   -1.610163    0.023351
 C    5.257114    0.005236   -0.031108
 C   -0.790121   -1.926311   -1.283857
 C   -6.122640   -0.216738    0.556642
 C    4.071628    0.360065    0.623968
 C   -6.696182    0.943326    0.034028
 C    7.736350    0.134820   -0.322081
 F    8.628421   -0.427326    0.516913
 F    7.509451   -0.741962   -1.315918
 F    8.344325    1.208912   -0.862869
 C    6.542221    1.384102    1.482899
 H   -4.110942    1.888508   -1.973659
 H    3.237170    1.510900    2.252185
 H   -8.354115    0.841736    0.947278
 H   -7.372040    2.911951   -1.003314
 H    5.405233    2.410592    2.988637
 H    1.850390   -1.585868   -1.922921
 H    1.602602   -3.095506   -1.020848
 H    0.613974    0.449941   -1.298409
 H   -0.479594    0.416281    0.094138
 H   -4.456422   -1.532570    0.631496
 H    1.694314    1.495047    0.644398
 H    1.377888    0.049765    1.637567
 H   -2.866354   -2.376511   -0.895412
 H   -2.055574   -1.532067    0.414565
 H    0.203398   -1.872394    0.513072
 H    2.575775   -2.068716    1.009071
 H    3.732821   -2.008431   -0.327975
 H    5.210480   -0.648101   -0.897594
 H   -0.697876   -1.479516   -2.274969
 H   -0.697890   -3.010396   -1.399237
 H    7.503485    1.771998    1.803246
