78 
1h22_ligand_xtb.xyz
 C   -0.082408   -2.315840   -1.656487
 N    1.019689   -3.058008   -1.245432
 C    2.235710   -2.561822   -0.908448
 C    2.456796   -1.218568   -0.994962
 C    1.386059   -0.393080   -1.421643
 C    0.172874   -0.903945   -1.740697
 O   -1.130340   -2.891812   -1.903564
 C    3.282318   -3.542273   -0.478301
 C    3.761907   -0.577298   -0.586029
 C    4.877678   -1.624210   -0.444305
 C    4.379668   -2.846012    0.320395
 N    3.510755    0.195124    0.624708
 C    4.346537    1.360602    0.850443
 C   -0.390135   -1.034063    1.674344
 N   -1.309985   -2.062400    1.556369
 C   -2.584129   -1.718571    1.079239
 C   -3.039060   -0.474343    1.225297
 C   -2.238039    0.536199    2.009077
 C   -0.776727    0.225263    1.864997
 O    0.909732   -1.457844    1.569521
 C   -3.365071   -2.829295    0.446560
 C   -4.370184   -0.015413    0.684503
 C   -5.039322   -1.105612   -0.172475
 C   -4.849935   -2.482202    0.448853
 N   -4.197888    1.260974   -0.008475
 C   -3.414445    1.213201   -1.229853
 C    3.605743    2.364760    1.738799
 C    2.298323    2.837440    1.099557
 C    2.507001    3.852745   -0.025630
 C    1.283109    3.983440   -0.933384
 C    0.098341    4.701268   -0.285404
 C   -1.203923    4.432150   -1.046176
 C   -1.813485    3.089062   -0.645043
 C   -2.891293    2.602077   -1.607102
 H    0.863832   -4.057623   -1.177665
 H    1.564903    0.670633   -1.481915
 H   -0.644923   -0.279031   -2.061663
 H    2.823662   -4.334352    0.118347
 H    3.716602   -4.007732   -1.369995
 H    4.044834    0.143154   -1.363748
 H    5.211972   -1.931170   -1.437349
 H    5.728519   -1.172829    0.070722
 H    5.202670   -3.538931    0.503019
 H    3.975475   -2.542437    1.288420
 H    3.540315   -0.414013    1.435640
 H    1.480461   -0.679175    1.522923
 H    4.554097    1.819907   -0.118723
 H    5.316497    1.112775    1.311653
 H   -0.932106   -2.937438    1.224507
 H   -2.540426    0.500380    3.067972
 H   -0.057709    1.024546    1.937378
 H   -3.189557   -3.754091    1.003415
 H   -3.011135   -2.984284   -0.577704
 H   -5.021803    0.208732    1.543811
 H   -6.101904   -0.876386   -0.289188
 H   -4.582283   -1.115931   -1.162708
 H   -5.411609   -3.230459   -0.114013
 H   -5.222602   -2.475433    1.475951
 H   -5.105099    1.675215   -0.196618
 H   -2.460768    1.537406    1.644781
 H   -2.571602    0.542676   -1.043202
 H   -3.983831    0.815369   -2.087301
 H    3.384358    1.885128    2.695066
 H    4.258323    3.217355    1.934726
 H    1.664251    3.276017    1.871491
 H    1.787757    1.959203    0.700150
 H    2.758931    4.827661    0.397768
 H    3.351768    3.535577   -0.640549
 H    1.565308    4.525990   -1.839602
 H    0.971695    2.982606   -1.239137
 H    0.303262    5.773787   -0.261029
 H   -0.024560    4.365442    0.744839
 H   -1.923895    5.227528   -0.842798
 H   -0.999901    4.442944   -2.120000
 H   -1.029523    2.331123   -0.593847
 H   -2.248221    3.180561    0.350218
 H   -3.723431    3.309753   -1.620098
 H   -2.479173    2.553304   -2.618536
