15 
1h2k_ligand_ani.xyz
 C   -2.382657    0.194399    0.073520
 C   -1.030643   -0.523723   -0.154192
 C    1.309872   -0.678446    0.479549
 C    2.555524    0.083351    0.040175
 O   -2.343568    1.543362    0.119872
 O   -3.401838   -0.413306    0.209215
 O   -0.975237   -1.545978   -0.793875
 O    3.659072   -0.251111    0.379201
 N    0.078064    0.109446    0.399164
 O    2.343574    1.121618   -0.780324
 H    1.488579   -1.068244    1.484608
 H    1.180740   -1.527081   -0.196897
 H   -1.462789    1.867636   -0.117704
 H   -0.105352    0.659125    1.230895
 H    1.383761    1.212276   -0.902070
