38 
1h46_ligand_dft.xyz
 C   -1.252734   -0.991035   -0.142337
 C   -1.922872   -2.187422   -0.220491
 C   -3.338853   -2.202190   -0.196794
 C   -4.056826   -1.043264   -0.097265
 C   -4.091851    1.429452    0.130632
 C   -3.423359    2.620552    0.252852
 C   -2.010572    2.645398    0.264706
 C   -1.296014    1.480905    0.139930
 C   -1.965546    0.240782   -0.004555
 C   -3.385611    0.205615    0.005209
 O    0.100572   -0.865225   -0.192176
 C    0.886832   -2.029548   -0.084885
 C    2.345970   -1.592011   -0.097887
 O    3.085263   -2.775139    0.152813
 C    2.595544   -0.569260    0.995988
 N    3.110221    0.586308    0.924584
 C    3.556767    1.145643   -0.350925
 C    4.719288    2.094340   -0.066743
 C    2.387069    1.870927   -1.018851
 H   -1.388033   -3.125746   -0.310266
 H   -3.850030   -3.157649   -0.266288
 H   -5.142965   -1.061552   -0.085960
 H   -5.178613    1.404720    0.133144
 H   -3.977815    3.549304    0.350275
 H   -1.490276    3.591470    0.380187
 H   -0.212703    1.490461    0.169196
 H    0.707751   -2.717008   -0.920869
 H    0.671331   -2.556854    0.854635
 H    2.576312   -1.181008   -1.088348
 H    4.022329   -2.547621    0.141995
 H    2.291349   -0.915529    1.990451
 H    3.915758    0.364016   -1.038599
 H    5.542286    1.565107    0.423776
 H    4.392319    2.899649    0.598748
 H    5.096143    2.534897   -0.996123
 H    1.980404    2.627690   -0.338812
 H    2.717756    2.371261   -1.934867
 H    1.585086    1.169859   -1.270971
