38 
1h46_ligand_ani.xyz
 C   -1.262268   -0.952647   -0.108845
 C   -1.881190   -2.180229   -0.102621
 C   -3.292500   -2.258508   -0.031682
 C   -4.058273   -1.129818    0.036074
 C   -4.216037    1.343644    0.118468
 C   -3.611940    2.572311    0.137704
 C   -2.203028    2.674042    0.087139
 C   -1.429857    1.542829    0.013014
 C   -2.030845    0.257200   -0.019882
 C   -3.443462    0.153138    0.043969
 O    0.086623   -0.784362   -0.212381
 C    0.893751   -1.951333   -0.148885
 C    2.352714   -1.526821   -0.203701
 O    3.104806   -2.730636   -0.139880
 C    2.726191   -0.650428    0.968460
 N    3.346710    0.453830    0.969851
 C    3.672229    1.156734   -0.267340
 C    4.794105    2.137788    0.066350
 C    2.449076    1.878309   -0.825435
 H   -1.311241   -3.102065   -0.154306
 H   -3.759694   -3.241047   -0.032515
 H   -5.142366   -1.193130    0.088127
 H   -5.299679    1.258802    0.161751
 H   -4.211814    3.477347    0.194922
 H   -1.733470    3.653420    0.108441
 H   -0.347381    1.615185   -0.014545
 H    0.685402   -2.612683   -0.998592
 H    0.708895   -2.507534    0.778904
 H    2.518508   -1.007781   -1.160979
 H    4.033327   -2.490605   -0.023223
 H    2.473307   -1.085639    1.940850
 H    4.048503    0.455166   -1.029977
 H    5.662351    1.600250    0.456265
 H    4.439622    2.817205    0.845931
 H    5.094701    2.719408   -0.811761
 H    2.084055    2.622161   -0.105739
 H    2.705630    2.397147   -1.755011
 H    1.640954    1.170287   -1.036131
