20 
1h4n_ligand_ani.xyz
 C   -0.000017    0.000610   -0.158189
 C   -1.455864    0.128211   -0.618508
 C    0.838903    1.197951   -0.616499
 C    0.617688   -1.324144   -0.617729
 N   -0.000541    0.000126    1.334562
 O   -2.032062    1.161255    0.175514
 O    2.023191    1.175769    0.175083
 O    0.007919   -2.339542    0.174096
 H   -1.981474   -0.823845   -0.462426
 H   -1.492390    0.376526   -1.691492
 H    0.279039    2.129465   -0.455736
 H    1.069645    1.108822   -1.690297
 H    1.704479   -1.304411   -0.458388
 H    0.423871   -1.479180   -1.691335
 H   -0.810893    0.569857    1.624130
 H   -0.089223   -0.986667    1.623595
 H    0.898099    0.416603    1.624664
 H   -2.985270    1.160801    0.033270
 H    2.502706    1.999359    0.031635
 H    0.488556   -3.163840    0.038455
