17 
1h4w_ligand_dft.xyz
 C   -0.213865   -0.035491   -0.021844
 C    0.464733    1.174309   -0.189070
 C    1.856209    1.209486   -0.168510
 C    2.580668    0.036949    0.019497
 C    1.908669   -1.174035    0.176561
 C    0.520590   -1.211247    0.152663
 C   -1.705486   -0.111092   -0.035806
 N   -2.353697    1.078501    0.275450
 N   -2.266912   -1.212735   -0.364034
 H   -0.091570    2.089216   -0.371417
 H    2.373237    2.154156   -0.308557
 H    3.666240    0.064513    0.037834
 H    2.469900   -2.092892    0.318177
 H   -0.019123   -2.145425    0.264629
 H   -3.348093    1.001903    0.439842
 H   -1.890470    1.675549    0.946371
 H   -3.284970   -1.140658   -0.307742
