28 
1h8l_ligand_xtb.xyz
 C   -0.639138   -0.488280   -0.152180
 S    0.308373   -2.051264   -0.423249
 C    1.876997   -1.435204   -1.125201
 C    2.877170   -0.936464   -0.081016
 N    2.456271    0.249012    0.617198
 C    2.363429    1.431892   -0.071471
 N    1.606324    2.396240    0.566927
 N    2.917374    1.551979   -1.211661
 C   -0.871654   -0.420404    1.337224
 O   -2.003430   -1.004706    1.718331
 O   -0.084337    0.046724    2.122734
 C   -1.928813   -0.498779   -0.957678
 C   -2.751890    0.728520   -0.649544
 O   -2.516477    1.519509    0.223315
 O   -3.800515    0.839780   -1.468072
 H    0.007046    0.337928   -0.449004
 H    2.288120   -2.291447   -1.657849
 H    1.649600   -0.641249   -1.834073
 H    3.071230   -1.717782    0.656571
 H    3.801239   -0.688092   -0.610415
 H    1.758847    0.118273    1.340333
 H    1.780804    3.356661    0.321887
 H    1.353498    2.236091    1.528776
 H    2.839734    2.483805   -1.605555
 H   -2.091948   -0.965427    2.683813
 H   -2.525457   -1.378535   -0.706227
 H   -1.718651   -0.533965   -2.027435
 H   -4.326345    1.625213   -1.247355
