39 
1h9z_ligand_xtb.xyz
 C    2.422385   -0.057146   -0.375282
 C   -1.356523    0.632067   -0.445349
 C   -1.927503    1.781139    0.388561
 C   -1.273196    3.093687    0.041359
 C   -1.592207    4.227362    0.972910
 C   -2.183146   -0.637881   -0.427077
 C   -3.162328   -0.904962    0.517516
 C   -3.856731   -2.102655    0.483807
 C   -3.582289   -3.047187   -0.488499
 C   -2.603713   -2.789595   -1.433453
 C    0.171799   -0.392606    1.282296
 C   -1.910839   -1.594389   -1.400005
 C    0.048188    0.269770   -0.001886
 C    1.155791    0.526840   -0.758100
 C    3.580700    0.070704   -1.147354
 C    4.748200   -0.539491   -0.749760
 C    4.782652   -1.284266    0.425865
 C    3.654213   -1.414238    1.207182
 C    2.468104   -0.799520    0.810810
 O    1.390853   -0.917933    1.615983
 O   -0.713359   -0.486543    2.102616
 O   -0.547513    3.229656   -0.919770
 O    1.156500    1.281873   -1.864751
 H   -1.315765    0.965682   -1.490206
 H   -1.803373    1.573368    1.452185
 H   -2.997728    1.887412    0.189822
 H   -2.660120    4.274175    1.169407
 H   -1.085077    4.051728    1.920454
 H   -1.245751    5.169807    0.556872
 H   -3.378720   -0.196284    1.299426
 H   -4.613359   -2.299546    1.229079
 H   -4.123701   -3.981513   -0.508216
 H   -2.377962   -3.520715   -2.196039
 H   -1.143589   -1.398849   -2.137232
 H    3.529297    0.650008   -2.055535
 H    5.639949   -0.441540   -1.349532
 H    5.700603   -1.762483    0.732103
 H    3.661859   -1.980931    2.124343
 H    0.420249    1.927464   -1.830812
