39 
1h9z_ligand_ani.xyz
 C    2.453855   -0.068388   -0.404770
 C   -1.344404    0.559613   -0.419417
 C   -1.983434    1.727615    0.340938
 C   -1.380558    3.065835   -0.036141
 C   -1.696730    4.248121    0.845476
 C   -2.194240   -0.714017   -0.389620
 C   -3.201518   -0.959865    0.542169
 C   -3.926216   -2.148836    0.507325
 C   -3.647788   -3.110688   -0.457864
 C   -2.633230   -2.880793   -1.383009
 C    0.263011   -0.226758    1.383989
 C   -1.910510   -1.693200   -1.341741
 C    0.078769    0.299757    0.038287
 C    1.182531    0.512379   -0.748342
 C    3.587832   -0.007283   -1.236344
 C    4.770669   -0.596710   -0.834906
 C    4.843549   -1.252661    0.402479
 C    3.740273   -1.316624    1.238235
 C    2.551278   -0.719439    0.827285
 O    1.495298   -0.771655    1.688000
 O   -0.576662   -0.239734    2.249750
 O   -0.684610    3.190485   -1.029711
 O    1.138028    1.228573   -1.887755
 H   -1.300095    0.853537   -1.476934
 H   -1.891380    1.573518    1.419207
 H   -3.056371    1.782320    0.110265
 H   -2.780963    4.373741    0.945756
 H   -1.293849    4.084659    1.851211
 H   -1.259514    5.149519    0.416109
 H   -3.421383   -0.227633    1.316280
 H   -4.713301   -2.318858    1.238159
 H   -4.214612   -4.037772   -0.487474
 H   -2.405343   -3.628613   -2.139092
 H   -1.110457   -1.522505   -2.060714
 H    3.503581    0.506947   -2.187603
 H    5.646500   -0.552590   -1.476390
 H    5.777092   -1.714028    0.713172
 H    3.775196   -1.812315    2.203670
 H    0.449629    1.920359   -1.792072
