39 
1ha2_ligand_dft.xyz
 C    1.486003    4.290332    0.918184
 C    1.181768    3.102288    0.041053
 O    0.432911    3.211176   -0.917124
 C    1.858213    1.799654    0.407270
 C    1.325737    0.604263   -0.384291
 C    2.247054   -0.610932   -0.382393
 C    2.133562   -1.523351   -1.434565
 C    2.945287   -2.650094   -1.494745
 C    3.890586   -2.879842   -0.498247
 C    4.008100   -1.979976    0.555708
 C    3.189169   -0.855603    0.615501
 C   -0.083245    0.217304    0.031906
 C   -1.175522    0.452341   -0.750177
 O   -1.151145    1.184644   -1.870294
 C   -2.461654   -0.124727   -0.405853
 C   -3.603089   -0.001168   -1.209453
 C   -4.787609   -0.608821   -0.832320
 C   -4.849079   -1.341715    0.358830
 C   -3.734280   -1.463951    1.172146
 C   -2.544153   -0.851679    0.783464
 O   -1.483290   -0.967199    1.621837
 C   -0.252971   -0.417162    1.331265
 O    0.595550   -0.487409    2.190537
 H    1.107475    5.205433    0.460872
 H    2.561571    4.374349    1.104881
 H    1.001502    4.144957    1.891154
 H    2.932386    1.940622    0.217908
 H    1.759890    1.631702    1.485866
 H    1.271070    0.921502   -1.430762
 H    1.394856   -1.346534   -2.213697
 H    2.842397   -3.347406   -2.321112
 H    4.528816   -3.757492   -0.541721
 H    4.735226   -2.155895    1.343045
 H    3.271820   -0.181880    1.461335
 H   -0.461458    1.876578   -1.769549
 H   -3.533030    0.572252   -2.127064
 H   -5.668779   -0.515808   -1.458643
 H   -5.779320   -1.817160    0.654150
 H   -3.759894   -2.017880    2.103994
