46 
1hbj_ligand_dft.xyz
 N    0.424903   -0.694028    1.629009
 C    1.356328   -1.407988    0.940133
 C    2.423722   -0.790990    0.237013
 C    2.469676    0.646796    0.221380
 C    1.497494    1.347722    0.938987
 C    0.507480    0.623526    1.647418
 C    3.323220   -1.655507   -0.433167
 C    3.203312   -3.016075   -0.428589
 C    2.128268   -3.601704    0.269973
 C    1.226259   -2.818327    0.939974
 N    3.438446    1.319676   -0.461354
 C    1.490869    2.848403    0.929924
 S    1.162049    3.653812   -0.711566
 C    0.134953    2.428912   -1.600864
 C   -1.162298    2.036987   -0.935281
 C   -1.427868    0.689091   -0.699508
 C   -2.597330    0.280404   -0.055529
 C   -3.522298    1.250635    0.327540
 C   -3.279196    2.598502    0.079488
 C   -2.100306    2.993255   -0.542641
 C   -2.858186   -1.166082    0.339694
 C   -2.491382   -2.178068   -0.749262
 F   -1.158068   -2.298968   -0.918294
 F   -2.955066   -3.395433   -0.440041
 F   -3.017730   -1.831365   -1.935904
 O   -2.280238   -1.534560    1.559197
 F    4.362801   -1.121771   -1.120881
 C   -0.539525    1.324069    2.474610
 H    3.930256   -3.614711   -0.965109
 H    2.020432   -4.681393    0.269595
 H    0.383782   -3.244355    1.473114
 H    4.042952    0.794993   -1.070553
 H    3.239769    2.272198   -0.739861
 H    0.763380    3.238660    1.638806
 H    2.472077    3.244342    1.217839
 H    0.734984    1.537891   -1.806961
 H   -0.051919    2.920656   -2.562070
 H   -0.691669   -0.049224   -0.999908
 H   -4.434881    0.950759    0.835828
 H   -4.008469    3.344008    0.381443
 H   -1.897782    4.047252   -0.713192
 H   -3.939001   -1.290163    0.468279
 H   -1.322873   -1.298651    1.569553
 H   -0.081390    1.823448    3.336182
 H   -1.081545    2.076722    1.894336
 H   -1.258982    0.589984    2.838894
