28 
1hdq_ligand_ani.xyz
 N    1.143919   -0.353703    0.241026
 C    0.547146    0.851761    0.764903
 C    0.257176    1.922052   -0.283110
 O   -0.278738    2.975081   -0.025574
 C   -0.725582    0.553147    1.575754
 C   -1.807097   -0.123793    0.763183
 C   -2.718756    0.625602    0.014340
 C   -1.893674   -1.517367    0.727256
 C   -3.702554   -0.005711   -0.740075
 C   -2.876663   -2.151928   -0.028053
 C   -3.784809   -1.395581   -0.762430
 O    0.643469    1.589235   -1.524504
 C    2.507768   -0.408823    0.119628
 O    3.274435    0.425742    0.584692
 N    2.978997   -1.499645   -0.605641
 O    4.370203   -1.631197   -0.529254
 H    0.597127   -0.878022   -0.429481
 H    1.288545    1.300467    1.435032
 H   -1.091033    1.499457    1.987294
 H   -0.436905   -0.087018    2.416017
 H   -2.644420    1.711535    0.018208
 H   -1.176394   -2.109623    1.293824
 H   -4.408536    0.589985   -1.312677
 H   -2.930772   -3.237362   -0.042654
 H   -4.554092   -1.887840   -1.352295
 H    0.413997    2.345166   -2.089720
 H    2.564538   -2.385478   -0.331796
 H    4.624851   -0.854891    0.009290
