75 
1hdt_ligand_ani.xyz
 C   -1.275941    2.306328    0.873732
 O   -1.716513    2.117958    2.005963
 C   -0.183523    3.310532    0.575237
 C    0.657706    3.639504    1.803924
 C    2.008212    4.257912    1.425636
 N    1.926624    5.456095    0.609574
 C    2.013775    5.451369   -0.754110
 N    1.786021    6.698935   -1.318398
 N    2.260497    4.388371   -1.444919
 N   -1.763401    1.641500   -0.211406
 C   -2.760352    0.587051   -0.027497
 C   -1.998770   -0.714144    0.290992
 O   -1.823503   -1.577173   -0.571319
 C   -3.655386    0.459146   -1.261549
 C   -4.905739   -0.359068   -1.019345
 C   -6.082863    0.258013   -0.589116
 C   -4.903003   -1.743922   -1.202693
 C   -7.232480   -0.487649   -0.345176
 C   -6.052869   -2.490511   -0.964905
 C   -7.220020   -1.865675   -0.534987
 N   -1.505393   -0.779702    1.551991
 C   -0.257875   -1.468831    1.925705
 C   -0.279030   -2.995267    1.675388
 C    0.787144   -3.695270    2.505770
 O   -0.075798   -3.367023    0.319454
 C    0.918490   -0.666172    1.335124
 O    1.245859    0.406678    1.833078
 N    1.502847   -1.162281    0.226254
 C    2.561325   -0.438707   -0.431976
 C    2.051677    0.913188   -0.942384
 O    0.942463    1.077621   -1.408469
 C    3.111324   -1.259060   -1.613352
 C    3.663459   -2.596842   -1.172070
 C    2.970328   -3.784504   -1.417617
 C    4.862321   -2.659200   -0.457472
 C    3.467269   -5.007607   -0.971249
 C    5.363320   -3.877902   -0.010372
 C    4.665496   -5.055263   -0.266016
 O    2.991348    1.841721   -0.872205
 H    0.453392    2.913400   -0.220879
 H   -0.657052    4.213243    0.162577
 H    0.860399    2.715533    2.355360
 H    0.099348    4.297076    2.481275
 H    2.565381    4.500148    2.338401
 H    2.597975    3.524467    0.869003
 H    1.396671    6.219618    1.002314
 H    2.159857    7.472538   -0.783517
 H    2.059345    6.764272   -2.289369
 H    2.302047    4.609496   -2.436522
 H   -1.138024    1.554599   -1.008237
 H   -3.355004    0.879408    0.843435
 H   -3.934661    1.473747   -1.565668
 H   -3.065729    0.017158   -2.072204
 H   -6.105037    1.337647   -0.449418
 H   -3.985426   -2.230588   -1.520667
 H   -8.139529    0.009669   -0.009907
 H   -6.037889   -3.567185   -1.117041
 H   -8.116580   -2.451755   -0.348361
 H   -1.658580    0.066866    2.095533
 H   -0.189367   -1.321968    3.007554
 H   -1.278622   -3.330075    1.987601
 H    1.782991   -3.315230    2.250234
 H    0.765902   -4.770567    2.313046
 H    0.618294   -3.531673    3.575406
 H   -0.784088   -2.915206   -0.187265
 H    1.170747   -2.059571   -0.119124
 H    3.362243   -0.226792    0.284634
 H    3.892544   -0.670466   -2.110104
 H    2.303980   -1.397480   -2.343914
 H    2.024242   -3.751697   -1.956805
 H    5.405597   -1.739006   -0.245664
 H    2.912836   -5.921441   -1.171533
 H    6.298971   -3.908154    0.542439
 H    5.055615   -6.007269    0.085028
 H    2.632045    2.743861   -1.159071
