48 
1hgi_ligand_dft.xyz
 C    0.956997   -2.469369    1.025973
 C    0.699837   -1.957370   -0.420443
 C   -0.768300   -2.027329   -0.838161
 C   -1.594000   -0.988196   -0.099337
 C   -0.965446    0.395649   -0.256278
 C    0.503002    0.328581    0.223109
 C    1.216920    1.670674    0.067401
 C    2.656109    1.725515    0.596755
 C    3.647641    0.718096    0.006581
 C   -1.948230    2.639758   -0.020287
 C   -2.937758    3.482371    0.752850
 C    2.813794   -2.701504   -1.258424
 C   -3.959798   -0.754941    0.116968
 C   -5.254477   -0.921767   -0.628253
 N   -1.747850    1.385455    0.457361
 O    0.148998   -3.490428    1.353545
 O    1.814174   -2.048429    1.762761
 O    1.391839   -2.783037   -1.293797
 O   -2.910527   -1.025133   -0.675525
 O    1.185483   -0.651476   -0.539864
 O    1.242185    2.107105   -1.274472
 O    3.140547    3.039303    0.347343
 O    4.955197    1.070558    0.393886
 O   -1.346773    3.086167   -0.995178
 O   -3.863982   -0.409269    1.275499
 H   -1.168158   -3.028360   -0.670833
 H   -0.790166   -1.816835   -1.911155
 H   -1.681450   -1.239082    0.964421
 H   -0.955790    0.664266   -1.317846
 H    0.522169    0.063925    1.292216
 H    0.655375    2.387889    0.682342
 H    2.644492    1.602887    1.685396
 H    3.538730    0.698226   -1.089793
 H    3.441974   -0.281985    0.391607
 H   -3.618906    2.885792    1.365468
 H   -3.509738    4.086822    0.046551
 H   -2.384808    4.166050    1.404690
 H    3.162380   -3.478050   -1.940006
 H    3.157541   -1.723230   -1.601841
 H    3.210607   -2.890907   -0.254585
 H   -5.309895   -0.176321   -1.427549
 H   -6.088882   -0.787320    0.059303
 H   -5.300234   -1.908726   -1.095320
 H   -2.352869    1.043896    1.193945
 H    0.427518   -3.791812    2.234244
 H    0.382639    2.541747   -1.434613
 H    2.819729    3.241937   -0.547523
 H    4.977829    2.037100    0.325027
