80 
1hkm_ligand_ani.xyz
 C   -3.574544   -0.649826   -0.182128
 C   -4.226617    0.147265    0.959930
 C   -5.585197   -0.446123    1.311103
 C   -6.442776   -0.636381    0.058896
 C   -5.659664   -1.391643   -1.022987
 C   -6.403756   -1.442174   -2.347714
 C   -2.421301    1.096467    2.327649
 C   -1.464972    0.834298    3.467840
 N   -3.373785    0.149151    2.126474
 O   -5.346973   -1.699453    1.931313
 O   -7.579872   -1.385650    0.469858
 O   -4.433322   -0.705633   -1.295072
 O   -6.728951   -0.145392   -2.794875
 O   -2.341352    2.095097    1.617083
 C    1.026469    0.494638    0.114602
 C    0.315230    1.178711   -1.059654
 C   -0.463923    0.148165   -1.903228
 C   -1.331475   -0.777619   -1.040508
 C   -0.535234   -1.377626    0.124797
 C    0.374684   -2.523962   -0.316435
 C    0.036331    3.516842   -0.422541
 C   -0.918225    4.562381    0.101176
 N   -0.503117    2.285894   -0.600636
 O   -1.244527    0.747566   -2.907898
 O   -2.408626    0.019832   -0.559431
 O    0.190965   -0.371585    0.852345
 O    1.128706   -3.018208    0.758803
 O    1.213263    3.762450   -0.698870
 C    5.710864    0.454843    0.431618
 C    5.497813   -0.987130    1.012357
 C    3.999447   -1.318132    0.808132
 C    3.362737    0.006216    0.398134
 C    4.445423    0.729843   -0.389963
 C    4.109094    2.190782   -0.648202
 C    7.143873   -0.997108   -0.425690
 C    8.533238   -2.548132   -1.339898
 N    6.403162   -1.806451    0.256921
 N    8.203120   -1.319026   -1.241205
 O    3.342969   -1.803004    1.974723
 O    2.176178   -0.162345   -0.368090
 O    3.604173    2.795045    0.527431
 O    6.884722    0.335321   -0.363432
 H   -3.345960   -1.673390    0.162844
 H   -4.331513    1.180001    0.621564
 H   -6.114679    0.227142    2.002552
 H   -6.728930    0.346671   -0.336592
 H   -5.448467   -2.412181   -0.668248
 H   -5.790825   -1.982869   -3.083481
 H   -7.349371   -1.984201   -2.237555
 H   -1.087320    1.789763    3.835872
 H   -0.622918    0.253518    3.081348
 H   -1.930175    0.282409    4.289879
 H   -3.446931   -0.650245    2.742689
 H   -6.200779   -2.157564    1.931490
 H   -8.304680   -1.214552   -0.143085
 H   -5.888389    0.325581   -2.877611
 H    1.331888    1.268606    0.829482
 H    1.087078    1.620125   -1.695998
 H    0.279731   -0.463943   -2.428685
 H   -1.734644   -1.576221   -1.682580
 H   -1.225899   -1.775015    0.878804
 H   -0.251979   -3.345883   -0.686165
 H    1.022433   -2.194239   -1.142454
 H   -1.656913    4.806555   -0.670288
 H   -0.359003    5.464851    0.353635
 H   -1.456496    4.181152    0.971508
 H   -1.384490    2.086291   -0.137003
 H   -2.042669    1.074094   -2.464133
 H    1.586593   -2.262074    1.163831
 H    5.879754    1.217212    1.202884
 H    5.744692   -1.026533    2.082533
 H    3.907275   -2.040580   -0.014211
 H    3.146300    0.565830    1.319855
 H    4.569720    0.226985   -1.355445
 H    5.009469    2.724668   -0.987552
 H    3.361883    2.251531   -1.450467
 H    8.038755   -3.395206   -0.821132
 H    9.379454   -2.785032   -1.993251
 H    3.608106   -2.723224    2.101008
 H    2.820284    3.303075    0.258476
