29 
1hlf_ligand_dft.xyz
 C    0.570697   -0.027763   -0.213276
 C   -0.037711    1.325222   -0.601832
 O    0.854074    2.332974   -0.208258
 C   -1.406324    1.493270    0.034299
 O   -1.909261    2.730079   -0.428800
 C   -2.309446    0.331182   -0.341487
 O   -3.527693    0.542489    0.330782
 C   -1.631201   -0.985238    0.062822
 C   -2.352545   -2.210828   -0.482509
 O   -3.694451   -2.165927   -0.020678
 O   -0.322572   -1.079930   -0.504590
 N    1.803772   -0.283976   -0.900718
 C    2.881002   -0.420950   -0.092422
 S    4.451671   -0.650333   -0.524467
 N    2.397764   -0.334286    1.203143
 C    1.049286   -0.078055    1.263266
 O    0.373966    0.034403    2.257499
 H   -0.168562    1.316546   -1.697787
 H    0.348262    3.157999   -0.211729
 H   -1.296120    1.505351    1.127288
 H   -2.796525    2.821788   -0.056176
 H   -2.452480    0.334901   -1.436236
 H   -4.047890   -0.270742    0.233754
 H   -1.583838   -1.033915    1.156927
 H   -2.305011   -2.181890   -1.580396
 H   -1.840461   -3.117283   -0.136332
 H   -4.183593   -2.895080   -0.416223
 H    1.915013   -0.195834   -1.898853
 H    2.998664   -0.422416    2.009456
