29 
1hlf_ligand_ani.xyz
 C    0.541796   -0.181601   -0.253518
 C    0.092607    1.253907   -0.535248
 O    1.075615    2.108372   -0.010259
 C   -1.264897    1.525423    0.078807
 O   -1.661567    2.819032   -0.320337
 C   -2.267209    0.476143   -0.374464
 O   -3.477114    0.772820    0.284328
 C   -1.721269   -0.914660   -0.016436
 C   -2.591915   -2.047020   -0.544340
 O   -3.890123   -1.915935    0.028987
 O   -0.441125   -1.106142   -0.640337
 N    1.788258   -0.487841   -0.923828
 C    2.867654   -0.475909   -0.100836
 S    4.465964   -0.496778   -0.507097
 N    2.347292   -0.465899    1.176707
 C    0.984683   -0.340073    1.220149
 O    0.291659   -0.321287    2.211050
 H    0.008349    1.361049   -1.629327
 H    0.741181    3.010995   -0.115130
 H   -1.172488    1.457860    1.174684
 H   -2.552459    2.951462    0.034508
 H   -2.388041    0.544299   -1.471961
 H   -4.005435   -0.043872    0.287520
 H   -1.622476   -0.984777    1.074550
 H   -2.634386   -1.969000   -1.639794
 H   -2.139612   -3.010081   -0.276683
 H   -4.505192   -2.481022   -0.451193
 H    1.908712   -0.359415   -1.916553
 H    2.930100   -0.485014    2.000647
