54 
1hms_ligand_ani.xyz
 C    2.884855   -1.262245   -1.067176
 C    4.253674   -0.647785   -0.832371
 O    4.647071   -0.243834    0.231097
 O    5.050289   -0.562460   -1.921206
 C    2.064609   -1.396954    0.210407
 C    0.729533   -2.097556   -0.018631
 C   -0.085857   -2.284450    1.262779
 C   -1.262912   -3.257748    1.110214
 C   -2.284255   -2.884267    0.032959
 C   -3.103663   -1.630522    0.349844
 C   -4.048352   -1.237250   -0.754633
 C   -4.633741   -0.043909   -0.871478
 C   -4.544765    1.085046    0.117445
 C   -3.578000    2.197859   -0.316339
 C   -2.102468    1.794338   -0.298715
 C   -1.181017    2.936203   -0.726346
 C    0.316241    2.620131   -0.657393
 C    0.827427    2.304950    0.749644
 C    2.352067    2.317529    0.848378
 C    2.869185    1.898761    2.221456
 H    2.351124   -0.642916   -1.804642
 H    3.026931   -2.245678   -1.538629
 H    4.599604   -0.926178   -2.695751
 H    1.898072   -0.399817    0.634156
 H    2.655040   -1.946247    0.953931
 H    0.917600   -3.085620   -0.465201
 H    0.144416   -1.532710   -0.758154
 H   -0.436517   -1.305090    1.620022
 H    0.578125   -2.669748    2.048993
 H   -1.776911   -3.361237    2.076434
 H   -0.858351   -4.252155    0.875556
 H   -2.977080   -3.724115   -0.111489
 H   -1.769525   -2.749819   -0.928855
 H   -2.440060   -0.783277    0.572099
 H   -3.672820   -1.799675    1.278503
 H   -4.277206   -2.002689   -1.497878
 H   -5.209303    0.164503   -1.774620
 H   -4.247443    0.706618    1.105936
 H   -5.544138    1.523435    0.241072
 H   -3.715463    3.061573    0.348725
 H   -3.852742    2.538226   -1.324695
 H   -1.941911    0.925918   -0.954451
 H   -1.838022    1.465392    0.717211
 H   -1.384658    3.814130   -0.093819
 H   -1.437351    3.234739   -1.752332
 H    0.870542    3.485075   -1.047371
 H    0.554279    1.776901   -1.325532
 H    0.449626    1.324037    1.073076
 H    0.417762    3.035201    1.463879
 H    2.715999    3.326468    0.611409
 H    2.779312    1.661408    0.079582
 H    2.478808    2.552218    3.010496
 H    2.565830    0.871548    2.461495
 H    3.962187    1.937155    2.261452
