26 
1hn2_ligand_xtb.xyz
 C   -0.900117   -1.047823    0.005996
 C   -2.040724   -1.887391   -0.005123
 C   -1.069532    0.375052    0.001364
 C   -3.292080   -1.349776   -0.020197
 C   -2.404061    0.903500    0.007954
 C   -3.474287    0.040929   -0.008085
 C    3.753388    0.923234   -0.012881
 C    3.918870   -0.477990    0.008418
 C    2.506591    1.469656   -0.022816
 C    2.834588   -1.300478    0.017880
 C    1.351793    0.647848   -0.009533
 C    1.519257   -0.770275    0.009400
 C    0.387688   -1.578845    0.013730
 C    0.064396    1.181114   -0.013205
 N   -2.614815    2.266826   -0.039543
 H   -1.894971   -2.957309   -0.005272
 H   -4.163446   -1.988395   -0.031464
 H   -4.477638    0.443968   -0.009575
 H    4.629116    1.556002   -0.021505
 H    4.918221   -0.888587    0.016298
 H    2.375610    2.542923   -0.040299
 H    2.954922   -2.374660    0.031772
 H    0.508585   -2.653611    0.019958
 H   -0.028526    2.257942   -0.042095
 H   -3.553873    2.564108    0.172622
 H   -1.898911    2.857293    0.348957
