27 
1hnn_ligand_xtb.xyz
 C    0.735715    1.872482   -0.054621
 C   -0.610094    1.558525   -0.006281
 C   -0.989436    0.231502    0.049990
 C   -0.051967   -0.776651    0.062468
 S   -2.728012   -0.212919    0.148883
 C    1.301892   -0.463759    0.020692
 C    1.701023    0.869372   -0.034897
 O   -3.391143    0.776632    0.933975
 O   -2.792707   -1.598500    0.496162
 N   -3.165757   -0.037868   -1.455282
 C    2.307882   -1.587698    0.084139
 C    4.054600    0.096874    0.362740
 C    3.161898    1.239570   -0.095015
 N    3.649401   -1.135274   -0.364201
 H    1.049839    2.903830   -0.096364
 H   -1.367863    2.323999    0.008927
 H   -0.396679   -1.796505    0.126122
 H   -3.820792    0.714935   -1.595239
 H   -3.507548   -0.897875   -1.852948
 H    1.975283   -2.421564   -0.538229
 H    2.391527   -1.948269    1.114222
 H    3.931895   -0.082460    1.432237
 H    5.103729    0.316180    0.158723
 H    3.344301    2.111011    0.534400
 H    3.417606    1.530374   -1.118839
 H    3.607274   -0.916421   -1.367623
 H    4.335840   -1.884897   -0.227520
