33 
1hp0_ligand_ani.xyz
 O    2.759158   -2.189356    0.606308
 C    3.546503   -1.710903   -0.470949
 C    3.116725   -0.295773   -0.810079
 O    1.752507   -0.319846   -1.245640
 C    3.182968    0.698096    0.352208
 O    3.540070    1.954984   -0.179088
 C    1.744181    0.716216    0.857445
 O    1.477138    1.946654    1.490788
 C    0.943062    0.501183   -0.432194
 N   -0.327161   -0.146549   -0.199944
 C   -0.500212   -1.473196    0.134817
 N   -1.747296   -1.813199    0.304235
 C   -2.449205   -0.645477    0.068912
 C   -3.839331   -0.390242    0.092556
 N   -4.703330   -1.386070    0.433754
 N   -4.319072    0.818005   -0.183703
 C   -3.456075    1.808023   -0.483815
 C   -2.075788    1.682697   -0.536567
 C   -1.591895    0.405940   -0.248693
 H    3.024894   -3.098435    0.788639
 H    4.616197   -1.698907   -0.208529
 H    3.417376   -2.335341   -1.365921
 H    3.732430    0.074025   -1.637119
 H    3.886537    0.386069    1.139503
 H    3.139521    2.620477    0.399603
 H    1.577860   -0.137595    1.524229
 H    0.590729    1.910977    1.874005
 H    0.749147    1.450250   -0.942216
 H    0.365832   -2.121582    0.248134
 H   -5.681162   -1.243332    0.235587
 H   -4.344429   -2.328392    0.424918
 H   -3.915256    2.769915   -0.697769
 H   -1.438233    2.527674   -0.784243
