33 
1hp0_ligand_xtb.xyz
 O    2.633943   -2.027925    0.985983
 C    3.420291   -1.795791   -0.162928
 C    3.121811   -0.397543   -0.713483
 O    1.837427   -0.358831   -1.323568
 C    3.132609    0.684376    0.374259
 O    3.633612    1.879755   -0.151423
 C    1.645179    0.800334    0.738251
 O    1.360862    2.093314    1.199794
 C    0.952629    0.452012   -0.602988
 N   -0.300958   -0.218049   -0.402688
 C   -0.504422   -1.552742   -0.177489
 N   -1.741998   -1.862639    0.042902
 C   -2.427175   -0.673807   -0.024176
 C   -3.793717   -0.375670    0.138497
 N   -4.690319   -1.336462    0.474503
 N   -4.219627    0.874548    0.014463
 C   -3.351904    1.848929   -0.251446
 C   -1.992341    1.687709   -0.420197
 C   -1.534971    0.375396   -0.306420
 H    2.801697   -2.921567    1.304686
 H    4.489401   -1.855542    0.080210
 H    3.189119   -2.525698   -0.948763
 H    3.861190   -0.154079   -1.483930
 H    3.726678    0.368551    1.242006
 H    3.199737    2.603646    0.321557
 H    1.390191    0.034658    1.482319
 H    0.425512    2.152553    1.422749
 H    0.752345    1.380644   -1.164913
 H    0.308527   -2.249276   -0.192488
 H   -5.665074   -1.104693    0.399077
 H   -4.402177   -2.292928    0.366094
 H   -3.798153    2.831181   -0.331950
 H   -1.343360    2.521040   -0.638492
