64 
1hpo_ligand_dft.xyz
 C    0.999870    1.297520   -0.135285
 C    0.912837    0.611739   -1.398504
 O    0.129537    0.804916   -2.305658
 O    1.839676   -0.404111   -1.616049
 C    2.720905   -0.828993   -0.690445
 C    2.767668   -0.280969    0.545786
 C    1.882694    0.827346    0.799411
 O    1.924449    1.446418    1.997833
 C   -1.282630    2.109086    0.585436
 C   -1.717332    2.317911    1.894765
 C   -2.999615    1.940575    2.286960
 C   -3.870621    1.342873    1.383069
 C   -3.429274    1.118288    0.080786
 C   -2.153642    1.502053   -0.317351
 C    0.123330    2.505054    0.160538
 C    0.121571    3.522124   -0.970377
 C    1.272986    4.482878   -1.077145
 C   -0.081635    4.970758   -0.629747
 C    3.606022   -1.919120   -1.219169
 C    4.993996   -1.439376   -1.685797
 C    5.999095   -1.039280   -0.594537
 C    5.706037    0.274612    0.160358
 C    5.070562    0.111967    1.546448
 C    3.784253   -0.731950    1.560865
 N   -4.266786    0.424707   -0.847513
 S   -4.492835   -1.220431   -0.597394
 O   -5.347961   -1.394177    0.560383
 O   -4.835895   -1.761750   -1.899919
 C   -2.868179   -1.823343   -0.129383
 C   -2.611273   -2.081640    1.212435
 C   -1.346804   -2.511329    1.589266
 C   -0.353400   -2.670797    0.618100
 C   -0.616187   -2.390527   -0.727898
 C   -1.882164   -1.962151   -1.101994
 C    0.941917   -3.151895    1.015081
 N    1.976781   -3.555798    1.346921
 H    2.592221    1.031455    2.557323
 H   -1.042891    2.772944    2.615273
 H   -3.326094    2.118651    3.307223
 H   -4.871628    1.041227    1.671066
 H   -1.811704    1.292704   -1.326891
 H    0.582445    2.999522    1.022537
 H   -0.304756    3.172332   -1.904098
 H    1.622514    4.760004   -2.066828
 H    2.058537    4.413763   -0.328645
 H   -0.208792    5.229476    0.418403
 H   -0.662968    5.583224   -1.311728
 H    3.087074   -2.365627   -2.072800
 H    3.714472   -2.706169   -0.465965
 H    5.433885   -2.259563   -2.265111
 H    4.865287   -0.603756   -2.385675
 H    6.972868   -0.943586   -1.087866
 H    6.111034   -1.866324    0.120622
 H    5.070634    0.918430   -0.460668
 H    6.643492    0.824803    0.298295
 H    4.868825    1.113713    1.950311
 H    5.792240   -0.355599    2.227878
 H    3.349512   -0.742309    2.570942
 H    4.027540   -1.781026    1.377973
 H   -4.011408    0.571408   -1.819854
 H   -3.399571   -1.951784    1.944667
 H   -1.127832   -2.727834    2.629033
 H    0.163278   -2.501239   -1.472955
 H   -2.097198   -1.745165   -2.142776
