21 
1i2s_ligand_xtb.xyz
 C    2.430390   -0.718753    0.030834
 O    3.274551    0.218072   -0.365863
 O    2.602522   -1.354521    1.039383
 C    1.183797   -0.942905   -0.820058
 C   -0.001564   -0.245748   -0.117807
 O   -0.182712   -0.710990    1.195553
 C   -1.311017   -0.525082   -0.896681
 C   -2.557849   -0.230834   -0.070963
 O   -2.606015    0.561807    0.827835
 O   -3.648064   -0.904483   -0.434657
 C    0.285478    1.288442   -0.117762
 O    1.102844    1.754945   -0.876957
 O   -0.382957    1.999026    0.746170
 H    2.864725    0.846714   -0.989983
 H    0.992008   -2.016623   -0.858236
 H    1.303097   -0.545703   -1.827468
 H    0.664184   -1.014611    1.562176
 H   -1.317990   -1.576803   -1.194837
 H   -1.342677    0.093551   -1.798344
 H   -3.506452   -1.527877   -1.159370
 H   -1.113662    1.479799    1.168976
