24 
1i48_ligand_ani.xyz
 C   -1.751569   -0.491052   -0.024584
 C   -2.196296   -1.735831    0.417078
 C   -3.546404   -1.930059    0.681674
 C   -4.455745   -0.891228    0.504892
 C   -3.995266    0.343674    0.058922
 C   -2.651874    0.560816   -0.209542
Cl   -5.132745    1.643083   -0.163531
 O    1.547699    0.587471   -0.762235
 C    1.707227   -0.700976   -0.461611
 S    3.303857   -1.404825   -0.521257
 N    0.607510   -1.313662   -0.156741
 C   -0.316919   -0.297992   -0.284361
 N    0.180530    0.851703   -0.645936
 C    4.297019    0.108837   -0.625946
 C    4.284473    1.048744    0.583289
 O    4.675147    2.178788    0.474430
 O    3.879632    0.552783    1.759322
 H   -1.473549   -2.535343    0.548506
 H   -3.896783   -2.897525    1.029920
 H   -5.512165   -1.031808    0.709376
 H   -2.307634    1.530945   -0.555555
 H    4.019511    0.692340   -1.504489
 H    5.325877   -0.233182   -0.769625
 H    3.655711   -0.388858    1.669744
