34 
1i9l_ligand_dft.xyz
 C   -0.968712    0.317302    0.531518
 C   -2.255341    0.843654    0.524863
 C   -3.273084    0.125230   -0.091150
 C   -3.025300   -1.087701   -0.727661
 C   -1.735257   -1.598437   -0.723132
 C   -0.705982   -0.911860   -0.076553
 C    0.666807   -1.527526   -0.120187
 O    1.005558   -2.255074   -1.043755
 N    1.479503   -1.243802    0.932438
 C    2.861674   -1.694908    0.983875
 S   -4.930160    0.783010   -0.079625
 N   -5.611036    0.081657    1.281498
 O   -5.627007    0.241425   -1.234787
 O   -4.833721    2.211435    0.175501
 C    3.841933   -0.646967    0.503287
 C    3.850683   -0.269558   -0.843817
 C    4.725255    0.706143   -1.303207
 C    5.596567    1.299835   -0.399520
 C    5.617428    0.947420    0.939444
 C    4.730071   -0.030741    1.382458
 F    6.445159    2.242325   -0.838390
 H   -0.166546    0.898776    0.977235
 H   -2.466615    1.809707    0.970065
 H   -3.830072   -1.609120   -1.234494
 H   -1.502437   -2.529624   -1.228000
 H    1.145444   -0.643844    1.669612
 H    2.916997   -2.588430    0.357536
 H    3.090888   -1.989738    2.012719
 H   -6.398839   -0.503042    1.020916
 H   -5.872798    0.795632    1.953802
 H    3.164125   -0.751399   -1.534573
 H    4.745194    1.007421   -2.344779
 H    6.314829    1.432586    1.613301
 H    4.737590   -0.316593    2.431632
