34 
1i9p_ligand_dft.xyz
 C   -1.702837    0.949678    1.118639
 C   -3.022225    0.514132    1.086456
 C   -3.561201    0.088301   -0.122175
 C   -2.820959    0.117309   -1.300441
 C   -1.506377    0.559942   -1.257603
 C   -0.935761    0.960387   -0.048443
 C    0.495502    1.420046   -0.082432
 O    1.012549    1.833554   -1.107274
 N    1.172947    1.352909    1.104405
 C    2.598273    1.635529    1.129395
 S   -5.245385   -0.495814   -0.163837
 N   -5.085128   -2.143827    0.094947
 O   -5.739342   -0.316910   -1.519441
 O   -5.930754    0.052668    0.995533
 C    3.432810    0.515170    0.552636
 C    3.438916   -0.748737    1.133810
 C    4.148366   -1.828819    0.639491
 C    4.892355   -1.612551   -0.511944
 C    4.940617   -0.384174   -1.150194
 C    4.203254    0.654141   -0.598388
 F    4.256356    1.846261   -1.195082
 F    5.591145   -2.630868   -1.022363
 F    2.700285   -0.923976    2.246205
 H   -1.290124    1.317843    2.053128
 H   -3.636115    0.524646    1.980396
 H   -3.278043   -0.185913   -2.236110
 H   -0.904289    0.611502   -2.158249
 H    0.827233    0.722612    1.812501
 H    2.880642    1.823478    2.168658
 H    2.770718    2.546929    0.557923
 H   -5.573681   -2.416303    0.941929
 H   -5.408795   -2.662927   -0.715082
 H    4.122402   -2.795117    1.126331
 H    5.527389   -0.236667   -2.047712
