34 
1i9p_ligand_xtb.xyz
 C    0.109423   -2.271075    0.478472
 C   -1.210846   -1.870347    0.603033
 C   -1.713808   -0.931019   -0.272864
 C   -0.956648   -0.427612   -1.312441
 C    0.355324   -0.842697   -1.450245
 C    0.903228   -1.725258   -0.523161
 C    2.364443   -2.058940   -0.624074
 O    2.832939   -2.740456   -1.508125
 N    3.136894   -1.517506    0.349550
 C    2.707056   -0.622677    1.406147
 S   -3.317424   -0.222105    0.036267
 N   -4.016764   -0.233268   -1.491398
 O   -3.117064    1.152106    0.400168
 O   -4.066326   -1.071535    0.914424
 C    1.961329    0.579308    0.875682
 C    2.505745    1.384408   -0.120396
 C    1.826002    2.446658   -0.683861
 C    0.544410    2.707693   -0.229007
 C   -0.046958    1.963764    0.776283
 C    0.684730    0.921023    1.312950
 F    0.134120    0.194686    2.299590
 F   -0.137925    3.715179   -0.785199
 F    3.746343    1.111177   -0.557411
 H    0.525531   -2.992629    1.165226
 H   -1.849957   -2.249579    1.383966
 H   -1.397810    0.286809   -1.987969
 H    0.971159   -0.466551   -2.252999
 H    4.129169   -1.664996    0.231988
 H    3.602921   -0.289043    1.935840
 H    2.064562   -1.150810    2.117577
 H   -4.706225   -0.962429   -1.576424
 H   -4.402353    0.666045   -1.731125
 H    2.278973    3.045275   -1.456915
 H   -1.057899    2.157349    1.099845
