34 
1i9q_ligand_dft.xyz
 C    1.901955   -1.409107   -0.258230
 C    3.169955   -1.033394   -0.686621
 C    3.763727    0.091287   -0.126461
 C    3.120085    0.844606    0.851279
 C    1.859363    0.454476    1.279479
 C    1.239804   -0.664503    0.719857
 C   -0.128240   -1.021190    1.229709
 O   -0.489628   -0.709862    2.355677
 N   -0.923944   -1.713134    0.362442
 C   -2.293188   -2.058660    0.710808
 S    5.392544    0.575130   -0.669648
 N    6.403346   -0.166614    0.439519
 O    5.513788    2.009409   -0.466650
 O    5.626637   -0.054151   -1.959581
 C   -3.300173   -1.008121    0.291119
 C   -4.177683   -1.253032   -0.762927
 C   -5.078627   -0.271652   -1.149696
 C   -5.119697    0.956216   -0.505147
 C   -4.237303    1.187625    0.546208
 C   -3.332376    0.223443    0.951392
 F   -5.925443   -0.493534   -2.157491
 F   -5.986548    1.893570   -0.881983
 F   -4.288605    2.369879    1.161845
 H    1.447568   -2.304724   -0.671497
 H    3.691995   -1.597807   -1.451441
 H    3.597989    1.729191    1.258087
 H    1.335662    1.010472    2.049381
 H   -0.686649   -1.694783   -0.618320
 H   -2.313730   -2.192203    1.794362
 H   -2.533847   -3.019379    0.245627
 H    6.942082    0.526717    0.948635
 H    6.995420   -0.852113   -0.018254
 H   -4.181407   -2.199884   -1.293335
 H   -2.658218    0.430304    1.775857
