61 
1ikt_ligand_dft.xyz
 C    4.945516    1.003363    0.594044
 C    4.450062    2.219614   -0.236338
 C    4.368217    3.404169    0.744427
 C    5.448245    2.607586   -1.341120
 C    3.061762    2.010031   -0.855389
 C    4.820507   -0.466168    0.100691
 C    3.361471   -0.945607    0.092777
 C    5.499405   -0.663165   -1.261295
 C    5.592034   -1.338264    1.117635
 C    2.575926   -0.835822    1.241422
 C    1.251569   -1.263723    1.286748
 C    0.672141   -1.833758    0.153132
 C    1.441845   -1.970620   -1.002236
 C    2.759040   -1.536690   -1.023583
 O   -0.606033   -2.285759    0.077909
 C   -1.433469   -2.139067    1.211954
 C   -2.810911   -2.649983    0.858608
 O   -3.416939   -1.743830   -0.021115
 C   -4.671749   -2.177467   -0.475596
 C   -5.304587   -1.076058   -1.295215
 O   -5.715515   -0.044803   -0.436941
 C   -6.247483    1.055267   -1.126806
 C   -6.630581    2.128797   -0.133424
 O   -5.468139    2.716264    0.386286
 C   -5.747195    3.672327    1.371600
 H    6.009843    1.177968    0.810305
 H    4.444856    1.052841    1.569192
 H    5.332345    3.575991    1.238781
 H    4.090188    4.326192    0.220517
 H    3.617728    3.220323    1.522280
 H    5.140879    3.548911   -1.812305
 H    6.453887    2.754572   -0.928497
 H    5.515923    1.855854   -2.130866
 H    2.321229    1.728419   -0.099730
 H    2.724374    2.937589   -1.334023
 H    3.065484    1.224402   -1.616739
 H    6.513074   -0.249273   -1.234748
 H    5.581602   -1.728102   -1.506802
 H    4.959887   -0.172880   -2.076064
 H    5.490243   -2.399735    0.867596
 H    6.658816   -1.084272    1.114307
 H    5.216321   -1.196765    2.136614
 H    2.993622   -0.397875    2.143938
 H    0.690410   -1.145533    2.206743
 H    0.986148   -2.418264   -1.879461
 H    3.317159   -1.658904   -1.945597
 H   -1.504275   -1.084150    1.507830
 H   -1.032473   -2.717473    2.057238
 H   -3.402992   -2.751334    1.784083
 H   -2.723002   -3.650060    0.403433
 H   -5.334390   -2.423442    0.370058
 H   -4.566833   -3.082415   -1.097857
 H   -6.165984   -1.486882   -1.850748
 H   -4.572502   -0.708583   -2.031338
 H   -7.144138    0.758749   -1.699257
 H   -5.513612    1.464947   -1.838691
 H   -7.237547    1.678543    0.669195
 H   -7.254471    2.884842   -0.642009
 H   -6.364984    4.496552    0.978483
 H   -6.273064    3.228417    2.231900
 H   -4.791344    4.077284    1.710896
