18 
1il9_ligand_ani.xyz
 N   -1.969676    0.624117    0.001095
 C   -1.959757   -0.751007    0.000215
 N   -0.867709   -1.478404   -0.000874
 C    0.230296   -0.712988   -0.001002
 C    0.366629    0.656795   -0.000974
 C   -0.826708    1.466209   -0.000115
 O   -0.956515    2.670483   -0.000148
 N    1.710414    0.987267   -0.000782
 C    2.314756   -0.150367   -0.000519
 O    1.483830   -1.240239   -0.000770
 C    3.779231   -0.409622    0.001653
 N   -3.165366   -1.357758    0.000110
 H   -2.842745    1.139759    0.002072
 H    4.245830    0.055052   -0.871398
 H    4.240302    0.039418    0.885916
 H    3.980827   -1.481544   -0.006678
 H   -3.189699   -2.364535    0.001074
 H   -4.033371   -0.850782    0.003978
