32 
1inh_ligand_xtb.xyz
 C   -3.863411    0.165217    0.065860
 O   -4.022620    1.432360   -0.331739
 O   -4.783446   -0.488976    0.461519
 C   -2.472667   -0.398689   -0.008835
 C   -1.332040    0.386810    0.032427
 C   -0.057547   -0.175634    0.006400
 N    1.081709    0.645951    0.060277
 C    1.162664    1.951125    0.005136
 O    0.267768    2.802307   -0.124275
 C    2.590882    2.549115    0.111085
 N    2.352349    3.994629    0.012842
 C    0.084707   -1.572764   -0.061559
 N    1.277875   -2.321771   -0.094533
 C    2.602799   -2.061487    0.014359
 O    3.086919   -0.942212    0.158181
 C    3.459114   -3.290057   -0.054780
 C   -1.080406   -2.346505   -0.105052
 C   -2.335082   -1.782955   -0.071491
 H   -3.220762    1.836749   -0.687516
 H   -1.403143    1.459585    0.123399
 H    1.988888    0.099618    0.134849
 H    3.216476    2.173101   -0.697787
 H    3.043913    2.265514    1.060541
 H    2.764249    4.437912   -0.807129
 H    1.205544    3.914112   -0.094534
 H    2.599414    4.522561    0.848863
 H    1.069385   -3.309728   -0.190340
 H    4.505723   -3.002243   -0.009656
 H    3.239568   -3.949221    0.783550
 H    3.277819   -3.835148   -0.978994
 H   -0.991338   -3.421873   -0.157468
 H   -3.222302   -2.395512   -0.088672
