14 
1iup_ligand_dft.xyz
 C    0.606736   -0.000512   -0.483988
 C   -0.873241   -0.000102   -0.111580
 O   -1.154815    0.001592    1.213491
 O   -1.769321   -0.001192   -0.911847
 C    1.310067   -1.270096    0.015276
 C    1.310196    1.269984    0.012760
 H    0.613802   -0.001602   -1.576950
 H   -0.338865    0.002393    1.731117
 H    1.358733   -1.310150    1.110854
 H    0.798988   -2.172559   -0.332776
 H    2.339814   -1.296114   -0.354414
 H    0.799123    2.171822   -0.336921
 H    1.359049    1.312107    1.108254
 H    2.339894    1.295252   -0.357120
