14 
1iup_ligand_ani.xyz
 C    0.634403   -0.159923   -0.391853
 C   -0.863908   -0.042909   -0.102416
 O   -1.321298    1.085817    0.482116
 O   -1.629794   -0.933273   -0.363937
 C    1.211102   -1.284070    0.479473
 C    1.432432    1.134424   -0.252080
 H    0.682806   -0.488923   -1.438088
 H   -0.594428    1.699074    0.653263
 H    1.168853   -1.011374    1.540399
 H    0.639828   -2.205491    0.340084
 H    2.256495   -1.476926    0.217432
 H    1.028185    1.942800   -0.871969
 H    1.480125    1.474631    0.790386
 H    2.462702    0.960724   -0.575677
