17 
1j14_ligand_ani.xyz
 C   -0.212577   -0.039576   -0.025146
 C    0.522488   -1.210834    0.168557
 C    1.910884   -1.169412    0.201367
 C    2.579205    0.039600    0.022586
 C    1.852879    1.207588   -0.194505
 C    0.462550    1.167021   -0.216392
 C   -1.707407   -0.109155   -0.043468
 N   -2.348765    1.069928    0.326090
 N   -2.270864   -1.194808   -0.409231
 H   -0.015786   -2.146287    0.289663
 H    2.473989   -2.085024    0.361819
 H    3.665248    0.069691    0.047109
 H    2.368629    2.154157   -0.337888
 H   -0.105816    2.074771   -0.404022
 H   -3.337834    0.976812    0.514663
 H   -1.870625    1.628190    1.021055
 H   -3.288542   -1.109543   -0.388408
