17 
1j14_ligand_xtb.xyz
 C   -0.214543   -0.031983   -0.019042
 C    0.516909   -1.200143    0.175560
 C    1.897957   -1.164414    0.198446
 C    2.565309    0.036842    0.019949
 C    1.844574    1.199932   -0.191326
 C    0.461523    1.169213   -0.209675
 C   -1.690731   -0.106526   -0.032862
 N   -2.357631    1.035514    0.340531
 N   -2.235994   -1.183380   -0.419345
 H   -0.022493   -2.125054    0.303120
 H    2.458240   -2.074473    0.355058
 H    3.644930    0.066334    0.038477
 H    2.361888    2.136024   -0.345100
 H   -0.088219    2.079623   -0.401596
 H   -3.353240    0.972451    0.481254
 H   -1.878354    1.732679    0.883711
 H   -3.253357   -1.170048   -0.409512
