17 
1j15_ligand_ani.xyz
 C   -0.212469   -0.037931   -0.020799
 C    0.522858   -1.210334    0.165685
 C    1.911280   -1.170333    0.193074
 C    2.579692    0.039232    0.018777
 C    1.853240    1.209219   -0.186966
 C    0.462832    1.169662   -0.205092
 C   -1.707061   -0.110198   -0.041988
 N   -2.352956    1.072787    0.306690
 N   -2.267102   -1.202439   -0.393120
 H   -0.016217   -2.145450    0.284778
 H    2.474092   -2.087479    0.345453
 H    3.665853    0.068073    0.037924
 H    2.369278    2.156354   -0.325410
 H   -0.104434    2.079637   -0.385285
 H   -3.343197    0.979208    0.488732
 H   -1.882167    1.640674    0.998823
 H   -3.285020   -1.119355   -0.376141
