17 
1j16_ligand_ani.xyz
 C   -0.212440   -0.038155   -0.020900
 C    0.522576   -1.209913    0.169968
 C    1.910965   -1.169717    0.197306
 C    2.579533    0.039014    0.018033
 C    1.853180    1.208485   -0.191185
 C    0.462750    1.168990   -0.208145
 C   -1.706964   -0.109766   -0.043193
 N   -2.352229    1.070670    0.315320
 N   -2.267593   -1.198818   -0.403319
 H   -0.016361   -2.144611    0.292752
 H    2.473845   -2.086160    0.353358
 H    3.665747    0.067700    0.036119
 H    2.369489    2.154990   -0.333239
 H   -0.105211    2.078372   -0.389144
 H   -3.341671    0.974707    0.500648
 H   -1.879268    1.633039    1.010609
 H   -3.285409   -1.114635   -0.386412
