17 
1j16_ligand_xtb.xyz
 C   -0.214436   -0.031109   -0.016227
 C    0.517175   -1.199556    0.176754
 C    1.898228   -1.164334    0.196768
 C    2.565621    0.036789    0.017638
 C    1.844824    1.200459   -0.190141
 C    0.461633    1.170272   -0.205911
 C   -1.690419   -0.106804   -0.032196
 N   -2.360282    1.034962    0.336208
 N   -2.233767   -1.185116   -0.417659
 H   -0.022371   -2.124338    0.304291
 H    2.458439   -2.074842    0.351229
 H    3.645400    0.065645    0.032552
 H    2.362299    2.136517   -0.343711
 H   -0.088060    2.081203   -0.395708
 H   -3.356692    0.970564    0.471042
 H   -1.885283    1.734037    0.880590
 H   -3.251145   -1.172024   -0.410236
