61 
1j17_ligand_ani.xyz
 N    7.871988    3.109030   -1.116089
 C    8.155455    1.870562   -0.712620
 C    7.220360    0.949720   -0.259147
 C    5.558430    2.616483   -0.648366
 C    6.582229    3.450500   -1.069105
 C    5.866120    1.315440   -0.221001
 N    4.856630    0.469588    0.237796
 C    5.263769   -0.771586    0.882230
 C    4.116571   -1.396527    1.664920
 C    2.517274   -0.278930    0.127970
 C    3.693853    0.310695   -0.634361
 C    2.910436   -1.621030    0.757314
 C    1.739324   -2.196658    1.549036
 O    1.670758   -2.045776    2.760843
 N    0.755140   -2.856958    0.855342
 C    0.659633   -3.032875   -0.585777
 C   -0.606045   -2.370719   -1.126356
 C   -1.671694   -2.691737    1.074570
 C   -0.401968   -3.367058    1.579915
 N   -1.765904   -2.868987   -0.379928
 S   -3.266500   -2.648273   -1.077938
 O   -4.221972   -3.339455   -0.230776
 O   -3.122881   -2.966299   -2.487159
 C   -3.574378   -0.902130   -0.939444
 C   -4.083346   -0.397988    0.226950
 C   -3.253347   -0.061323   -2.030031
 C   -3.424585    1.292061   -1.911119
 C   -4.265048    1.005524    0.370932
 C   -3.927181    1.861285   -0.708091
 C   -4.102634    3.265157   -0.563261
 C   -4.939481    2.930341    1.691908
 C   -4.775381    1.577250    1.564796
 C   -4.593942    3.772986    0.607439
Cl   -4.808783    5.492532    0.789919
 H    9.207230    1.585896   -0.747711
 H    7.547122   -0.041727    0.033489
 H    4.536826    2.983229   -0.619400
 H    6.343486    4.460804   -1.399925
 H    6.086516   -0.548432    1.567353
 H    5.636785   -1.502382    0.137953
 H    3.818205   -0.747024    2.494089
 H    4.450412   -2.342134    2.104792
 H    2.216168    0.407979    0.927394
 H    1.655665   -0.380439   -0.542257
 H    3.943057   -0.335614   -1.497191
 H    3.422480    1.285984   -1.041088
 H    3.205898   -2.324239   -0.034177
 H    0.614915   -4.108013   -0.809044
 H    1.537908   -2.627901   -1.088630
 H   -0.740523   -2.627065   -2.179239
 H   -0.539197   -1.275238   -1.044706
 H   -2.552321   -3.147153    1.535252
 H   -1.653077   -1.621223    1.330288
 H   -0.246532   -3.175007    2.642182
 H   -0.478676   -4.451526    1.419174
 H   -4.349726   -1.059364    1.045881
 H   -2.879434   -0.509510   -2.945740
 H   -3.177980    1.952692   -2.737691
 H   -3.844368    3.927516   -1.384987
 H   -5.328118    3.369897    2.605206
 H   -5.038152    0.916193    2.388190
