46 
1jj9_ligand_ani.xyz
 N    2.429888   -1.950616    1.264066
 C    3.035254   -2.473213    0.122925
 O    3.938842   -3.272845    0.164515
 N    2.478444   -2.011917   -1.063818
 C    1.452409   -1.095696   -1.239803
 O    0.934714   -0.935240   -2.328346
 C    1.109692   -0.260868   -0.003262
 C    1.389937   -1.054551    1.285795
 O    0.705897   -0.842964    2.272833
 N   -0.422511   -0.009157    0.099438
 C   -0.974968    1.179730   -0.634378
 C   -2.390813    1.466792   -0.152265
 C   -3.332672    0.278357   -0.378797
 C   -2.718458   -0.975814    0.257220
 C   -1.293516   -1.219323   -0.233238
 C   -4.733995    0.595420    0.147930
 C   -5.793950   -0.441690   -0.188650
 O   -7.033735    0.046762    0.293891
 C    1.906524    1.057247    0.022695
 C    2.596395    1.520901   -1.098929
 C    1.909609    1.842414    1.180649
 C    3.280373    2.733162   -1.062972
 C    2.588534    3.055466    1.216284
 C    3.280388    3.504343    0.094279
 H    2.709646   -2.370836    2.141509
 H    2.829841   -2.453214   -1.903734
 H   -0.513502    0.122176    1.141306
 H   -0.956588    0.955401   -1.708332
 H   -0.327708    2.045064   -0.478886
 H   -2.773480    2.360954   -0.656418
 H   -2.351762    1.697634    0.922898
 H   -3.386577    0.103535   -1.466661
 H   -3.314681   -1.868129    0.041879
 H   -2.699363   -0.859024    1.351434
 H   -0.861678   -2.108322    0.233991
 H   -1.272469   -1.370653   -1.314675
 H   -5.068131    1.558363   -0.257055
 H   -4.693117    0.717844    1.238630
 H   -5.549081   -1.409522    0.276512
 H   -5.828936   -0.596004   -1.280161
 H   -7.719834   -0.582199    0.043196
 H    2.585371    0.936614   -2.015308
 H    1.359673    1.502611    2.055391
 H    3.812271    3.074918   -1.946980
 H    2.576443    3.651175    2.125165
 H    3.812728    4.451672    0.122460
