43 
1jr1_ligand_ani.xyz
 C   -4.086484   -0.798566    0.932888
 C    1.608860   -1.507340   -0.405911
 C    2.885512   -1.274734   -0.732631
 C    3.993551   -1.466420    0.276329
 C    4.658137   -0.165234    0.741761
 C    3.777024    0.653835    1.670530
 C   -1.821285    2.975775   -1.045298
 C    1.261698    1.790452   -0.764511
 C    3.285686   -0.826230   -2.118573
 C   -4.160213    1.454673    0.498151
 C   -2.871056    0.898644   -0.056812
 C   -1.818491    1.503456   -0.724316
 C   -0.749817    0.659600   -1.076693
 C   -0.735062   -0.729131   -0.858899
 C   -1.812038   -1.292782   -0.165997
 C   -2.857812   -0.456578    0.218725
 C    0.429443   -1.570317   -1.342325
 O   -4.424906   -1.887425    1.336988
 O   -4.823886    0.326530    1.083579
 O    0.355270    1.206814   -1.691681
 O   -1.831886   -2.610970    0.111589
 O    2.689921    0.309780    2.054793
 O    4.296105    1.833278    2.081665
 H    1.359872   -1.660117    0.645850
 H    4.765558   -2.109012   -0.163396
 H    3.607604   -1.988847    1.158063
 H    4.938963    0.454790   -0.119578
 H    5.587812   -0.393959    1.279888
 H   -2.818398    3.311004   -1.351694
 H   -1.538242    3.584451   -0.175395
 H   -1.116937    3.186611   -1.854248
 H    0.938602    2.801563   -0.482357
 H    1.348450    1.186626    0.145768
 H    2.236758    1.848039   -1.255299
 H    3.298469   -1.665975   -2.825849
 H    2.580706   -0.078672   -2.503750
 H    4.289169   -0.390808   -2.123684
 H   -4.815083    1.876547   -0.271138
 H   -4.002014    2.204237    1.280663
 H    0.101886   -2.612718   -1.414074
 H    0.717373   -1.246208   -2.346812
 H   -2.661159   -2.796917    0.592801
 H    5.169742    1.970693    1.690270
