15 
1k03_ligand_ani.xyz
 C   -2.470251    0.391250    0.000489
 O   -3.269457   -0.518343    0.002471
 C   -1.001691    0.216871   -0.001231
 C   -0.437103   -1.064283   -0.001878
 C    0.936506   -1.223765   -0.001410
 C    1.763898   -0.096900    0.000046
 C    1.213324    1.186375   -0.000532
 C   -0.168593    1.333102   -0.001311
 O    3.105253   -0.318161    0.001913
 H   -2.818001    1.448358    0.000218
 H   -1.100248   -1.925510   -0.002554
 H    1.393906   -2.208938   -0.001764
 H    1.860098    2.062479   -0.000293
 H   -0.605962    2.330319   -0.001813
 H    3.567293    0.529425    0.006091
