20 
1k2i_ligand_ani.xyz
 C    2.502895   -0.454199   -0.007005
 C    1.481528    0.417765   -0.005993
 C    0.055904    0.082083   -0.008421
 C   -0.905176    1.113727   -0.003256
 C   -2.265223    0.838079    0.003975
 C   -0.420159   -1.231477   -0.011761
 C   -1.774310   -1.527978   -0.005879
 C   -2.699481   -0.484825    0.003941
 O   -4.040981   -0.695119    0.013126
 O   -0.450347    2.396470   -0.004465
 C    3.895208    0.020695    0.009576
 O    4.858116   -0.712443    0.009983
 H    2.357403   -1.531738   -0.018775
 H    1.709051    1.483168   -0.000166
 H   -3.005633    1.636160    0.010846
 H    0.287085   -2.055699   -0.018271
 H   -2.108429   -2.563504   -0.008406
 H   -4.212011   -1.645309    0.016849
 H   -1.207421    2.995489   -0.005771
 H    4.018531    1.126951    0.023474
