34 
1k4h_ligand_dft.xyz
 C    3.824709   -0.528621    0.624599
 C    4.775342    0.215963   -0.311344
 C    6.049921   -0.584331   -0.580827
 S    2.304221    0.369970    1.064608
 C    1.462593    0.390375   -0.563599
 C    0.028867    0.802920   -0.382362
 C   -0.979500   -0.175439   -0.231575
 N   -0.627170   -1.516970   -0.269180
 C   -1.573270   -2.380644   -0.138078
 N   -2.895750   -2.046029    0.048892
 C   -3.365733   -0.733535    0.110118
 O   -4.553055   -0.510569    0.264863
 C   -2.300806    0.262747   -0.040037
 C   -2.628397    1.619775    0.008806
 C   -1.636362    2.578777   -0.136528
 N   -1.932728    3.943016   -0.147664
 C   -0.312090    2.143079   -0.335125
 N   -1.311164   -3.733638   -0.232200
 H    3.546342   -1.500170    0.197680
 H    4.321440   -0.730544    1.580522
 H    5.024638    1.187185    0.131074
 H    4.269224    0.424302   -1.261673
 H    6.595287   -0.782224    0.349111
 H    5.819803   -1.550584   -1.044346
 H    6.721374   -0.041867   -1.253990
 H    1.509641   -0.616889   -0.983729
 H    1.975302    1.087444   -1.232289
 H   -3.611799   -2.760514    0.062506
 H   -3.668259    1.895165    0.158431
 H   -2.803969    4.183816    0.304457
 H   -1.180340    4.539129    0.168695
 H    0.473775    2.886632   -0.454828
 H   -0.316477   -3.916226   -0.221229
 H   -1.823038   -4.330678    0.403749
