38 
1ke5_ligand_dft.xyz
 N    4.807285   -1.668850   -0.191067
 C    3.430622   -1.641490   -0.121701
 C    3.060611   -0.220507    0.006539
 C    4.595727    1.899890    0.105474
 C    5.929736    2.307086    0.074739
 C    6.955890    1.371591   -0.049433
 C    6.678873    0.006725   -0.146020
 C    5.350961   -0.383934   -0.113922
 C    4.300236    0.546191    0.010632
 O    2.689304   -2.623099   -0.159109
 C    1.768461    0.186016    0.101643
 N    0.732140   -0.687368    0.087607
 C   -0.627043   -0.400626    0.161449
 C   -1.137378    0.901950    0.126259
 C   -2.507610    1.113184    0.207201
 C   -3.371392    0.030210    0.313059
 C   -2.876193   -1.273140    0.345433
 C   -1.512854   -1.485517    0.269551
 S   -5.119677    0.305274    0.426636
 O   -5.327291    1.747810    0.465005
 O   -5.691006   -0.556851    1.449616
 N   -5.654214   -0.341554   -1.022120
 C   -5.521123    0.502744   -2.207017
 H    5.328349   -2.526879   -0.277540
 H    3.802249    2.635803    0.203362
 H    6.170110    3.362888    0.148855
 H    7.988568    1.705648   -0.071455
 H    7.478517   -0.721266   -0.242469
 H    1.527465    1.239256    0.203890
 H    1.022222   -1.665805    0.020575
 H   -0.481608    1.759444    0.027878
 H   -2.913094    2.119048    0.189323
 H   -3.558633   -2.111579    0.434971
 H   -1.117374   -2.496553    0.301378
 H   -6.589754   -0.708011   -0.869660
 H   -6.078374    1.443215   -2.133685
 H   -4.462332    0.729432   -2.361233
 H   -5.871145   -0.069741   -3.068702
