42 
1ke6_ligand_ani.xyz
 N    4.490972   -2.444521    0.330252
 C    3.121947   -2.540592    0.238202
 C    2.645908   -1.118275    0.071841
 C    4.046042    1.091423   -0.010476
 C    5.359037    1.590730    0.036103
 C    6.447188    0.708040    0.185037
 C    6.239157   -0.650901    0.290165
 C    4.927693   -1.128612    0.243784
 C    3.826542   -0.280637    0.090651
 O    2.469651   -3.573959    0.283889
 N    1.431954   -0.720950   -0.080260
 S    2.938290    2.410987   -0.195307
 C    4.307831    3.498870   -0.195133
 N    5.475470    2.975375   -0.073085
 N    0.481416   -1.653582   -0.075809
 C   -0.849324   -1.316512   -0.309703
 C   -1.805051   -2.334446   -0.380553
 C   -3.133021   -2.023794   -0.635491
 C   -3.534884   -0.700726   -0.819136
 C   -2.574291    0.308688   -0.732052
 C   -1.241915    0.011636   -0.480171
 C   -4.969264   -0.373428   -1.103988
 S   -5.879416    0.189060    0.343323
 O   -5.541833   -0.664491    1.470286
 O   -7.262951    0.377339   -0.071233
 N   -5.184949    1.676501    0.659537
 C   -5.975971    2.870199    0.361078
 H    5.082713   -3.254578    0.443538
 H    7.451189    1.121258    0.215408
 H    7.079462   -1.330997    0.405600
 H    4.138580    4.566886   -0.296013
 H    0.743593   -2.629910    0.046573
 H   -1.499169   -3.369164   -0.242437
 H   -3.865594   -2.826662   -0.694965
 H   -2.875592    1.347226   -0.851519
 H   -0.503304    0.800973   -0.416494
 H   -5.532493   -1.248277   -1.447820
 H   -5.083822    0.427106   -1.844102
 H   -4.808568    1.638992    1.602011
 H   -6.124521    2.940369   -0.719045
 H   -6.955872    2.869801    0.851282
 H   -5.397303    3.735383    0.690809
