43 
1ke7_ligand_xtb.xyz
 O   -0.818988   -3.896766   -0.102768
 C   -1.694757   -3.039733   -0.099066
 N   -3.040638   -3.280946   -0.194370
 C   -3.763298   -2.103847   -0.156825
 C   -5.127317   -1.904488   -0.221860
 C   -5.595778   -0.602946   -0.158368
 C   -4.723141    0.482338   -0.032294
 C   -5.254472    1.827293    0.032708
 O   -6.597062    2.040518   -0.029077
 C   -6.744374    3.365481    0.057271
 N   -5.635098    4.017237    0.167806
 C   -4.665860    3.061436    0.154952
 C   -3.342685    0.271728    0.031536
 C   -2.864708   -1.021672   -0.031212
 C   -1.535850   -1.585533    0.005599
 C   -0.320162   -0.979955    0.107087
 N    0.810255   -1.703163    0.122963
 C    2.118070   -1.273960    0.204899
 C    2.479583    0.072821    0.271737
 C    3.812963    0.431398    0.362449
 C    4.295545    1.835111    0.395187
 S    5.988253    1.641410   -0.281381
 O    6.898960    2.575311    0.319085
 O    5.936451    1.586812   -1.712711
 C    6.207233   -0.043182    0.404345
 C    4.812027   -0.547433    0.368939
 C    4.452478   -1.885691    0.281180
 C    3.123207   -2.246499    0.211037
 H   -3.441031   -4.200992   -0.280758
 H   -5.811093   -2.733775   -0.318934
 H   -6.656938   -0.414302   -0.206242
 H   -7.729890    3.784521    0.030393
 H   -3.632881    3.327016    0.233055
 H   -2.669517    1.107765    0.128406
 H   -0.246430    0.096280    0.177902
 H    0.647405   -2.714003    0.053405
 H    1.730482    0.848130    0.253654
 H    4.422124    2.228855    1.401065
 H    3.707628    2.516330   -0.211461
 H    6.598722    0.095333    1.409833
 H    6.897948   -0.624677   -0.197860
 H    5.218031   -2.646245    0.272607
 H    2.844625   -3.287692    0.150207
