39 
1kf6_ligand_ani.xyz
 C   -2.295560    0.964496   -1.431602
 O   -2.757657    1.190399   -2.545631
 C   -1.317614    1.816349   -0.789155
 C   -0.814688    1.559036    0.453256
 N   -1.209957    0.439388    1.160352
 O   -0.702228    0.176193    2.289097
 C   -2.152260   -0.451290    0.624844
 C   -2.521744   -1.588905    1.375984
 C   -3.441309   -2.464477    0.845913
 C   -4.003442   -2.235601   -0.422300
 C   -3.632800   -1.123948   -1.149548
 C   -2.700773   -0.214489   -0.640023
 C    0.247849    2.428484    1.083398
 C    2.090976    0.826552    0.326889
 C    1.616290    2.277904    0.390434
 C    3.530868    0.677777   -0.159343
 C    3.991815   -0.777780   -0.175335
 C    5.431523   -0.959085   -0.653436
 C    5.880926   -2.418316   -0.636224
 H   -0.974391    2.685329   -1.337051
 H   -2.064172   -1.734247    2.345493
 H   -3.735166   -3.344257    1.413813
 H   -4.727099   -2.937425   -0.827262
 H   -4.046207   -0.919995   -2.134679
 H    0.328193    2.168985    2.138795
 H   -0.082652    3.469938    1.012670
 H    1.427932    0.255835   -0.339559
 H    1.994855    0.371051    1.324003
 H    2.350198    2.883686    0.939664
 H    1.569456    2.695187   -0.626166
 H    4.200835    1.264410    0.487739
 H    3.628945    1.104856   -1.169137
 H    3.319137   -1.365459   -0.817840
 H    3.890411   -1.199902    0.835796
 H    6.099866   -0.360393   -0.019128
 H    5.526921   -0.553588   -1.670286
 H    5.818797   -2.835666    0.375815
 H    5.247185   -3.032935   -1.286430
 H    6.915401   -2.524106   -0.978961
