24 
1kmy_ligand_xtb.xyz
 C   -0.789128    1.707977    0.346151
 C   -0.295815    0.428014    0.097444
 C   -1.204079   -0.610171   -0.117528
 C   -2.578877   -0.343988   -0.086867
 C   -3.047322    0.931295    0.164824
 C   -2.144904    1.959727    0.384990
 C    1.156282    0.188139    0.053349
 C    1.985518    1.065017   -0.641779
 C    3.351567    0.856828   -0.684085
 C    3.910511   -0.226881   -0.027825
 C    3.094109   -1.101737    0.668807
 C    1.727137   -0.898661    0.708756
 O   -3.413313   -1.415223   -0.323065
 O   -0.777365   -1.873061   -0.383566
 H   -0.087518    2.507649    0.528254
 H   -4.112628    1.117562    0.187321
 H   -2.508394    2.955714    0.585867
 H    1.551280    1.903331   -1.167666
 H    3.982728    1.540933   -1.233193
 H    4.978016   -0.389348   -0.061107
 H    3.525656   -1.947641    1.184184
 H    1.095905   -1.580420    1.256513
 H   -4.328058   -1.118348   -0.281006
 H   -1.561567   -2.416516   -0.543544
