15 
1kqb_ligand_ani.xyz
 C    1.731157   -0.118966   -0.037343
 O    2.418688    0.987334    0.325851
 O    2.320655   -1.116685   -0.360321
 C    0.232447   -0.022247   -0.009580
 C   -0.448323    1.186237   -0.172475
 C   -1.839137    1.208110   -0.160107
 C   -2.553879    0.025532    0.018463
 C   -1.877299   -1.183711    0.163926
 C   -0.487902   -1.207396    0.137154
 H    1.821710    1.645683    0.706828
 H    0.096448    2.113924   -0.347734
 H   -2.365464    2.151990   -0.280578
 H   -3.640503    0.045482    0.036964
 H   -2.433306   -2.108525    0.292602
 H    0.063990   -2.139103    0.227452
