37 
1kr3_ligand_ani.xyz
 C   -3.270658   -1.749322   -0.086116
 C   -1.995517   -2.266989   -0.172327
 C   -0.908054   -1.403317   -0.066974
 C   -1.071089   -0.029798    0.126235
 C   -2.376088    0.509435    0.008877
 C   -3.467188   -0.353758    0.030503
 O    0.328857   -1.997585   -0.141530
 C    1.439022   -1.235513    0.009059
 C    1.387236    0.066853    0.363801
 C    0.119962    0.755330    0.568609
 C    2.706312   -1.982980   -0.182529
 C    3.878415   -1.006448   -0.305447
 O    3.754462   -0.013385    0.714903
 C    2.659901    0.842876    0.528592
 O   -4.761683    0.035345    0.131110
 O   -4.343151   -2.566431   -0.125964
 C   -2.676340    1.949804   -0.202497
 O   -1.754399    2.614581   -0.892469
 O    2.817389    1.676245   -0.585800
 C    3.944479    2.527347   -0.497671
 C    5.225823   -1.669963   -0.107805
 O   -3.720480    2.473538    0.158510
 O    0.036673    1.854086    1.091610
 H   -1.835639   -3.331006   -0.294674
 H    2.857997   -2.641154    0.685695
 H    2.636164   -2.637571   -1.058915
 H    3.838403   -0.518451   -1.291475
 H    2.611786    1.478237    1.426642
 H   -4.764830    1.007508    0.261705
 H   -5.132757   -2.009362   -0.047510
 H   -2.047002    3.539553   -0.940976
 H    4.882081    1.957776   -0.517830
 H    3.899614    3.189157   -1.363840
 H    3.918293    3.134596    0.419186
 H    6.028941   -0.936783   -0.224555
 H    5.289743   -2.095499    0.898982
 H    5.378570   -2.469497   -0.841254
