59 
1ksn_ligand_ani.xyz
 C   -5.841248   -1.137155   -0.113818
 C   -5.104195    0.048016   -0.023000
 C   -5.801988    1.235371   -0.264822
 C   -7.145814    1.222692   -0.565662
 N   -7.844811    0.052017   -0.661197
 C   -7.179486   -1.120666   -0.437587
 C   -1.812669   -0.786031    1.630106
 C   -0.920222    0.022371    0.922985
 C   -1.409847    0.837469   -0.101005
 C   -2.763732    0.852688   -0.397982
 C   -3.663042    0.044307    0.306964
 C   -3.163514   -0.776096    1.324961
 C    0.532342   -0.059067    1.270221
 N    1.271432    1.046324    1.003455
 C    2.692463    1.128615    1.285429
 C    2.958695    1.889736    2.584145
 C    3.448595    1.731158    0.089404
 C    2.973310    3.135035   -0.235754
 O    3.879248    3.792977   -0.975851
 C    3.363842    0.867589   -1.194200
 C    2.912878   -1.604688   -0.889306
 C    3.325109   -2.906356   -0.591977
 C    4.686005   -3.166976   -0.431261
 C    5.611294   -2.133969   -0.524225
 C    5.185153   -0.835281   -0.786149
 C    3.828903   -0.555197   -0.978491
 C    2.318716   -4.007998   -0.432419
 N    2.480837   -5.215765   -0.822671
 N    1.136120   -3.621327    0.154179
 O    1.912529    3.633323    0.083604
 O    1.016715   -1.075244    1.770620
 C    3.547201    5.145199   -1.303058
 O   -9.076590    0.053921   -0.949258
 H   -5.363458   -2.097628    0.044671
 H   -5.299967    2.194143   -0.195985
 H   -7.744684    2.103832   -0.754911
 H   -7.802782   -2.000138   -0.532892
 H   -1.426703   -1.427510    2.416271
 H   -0.733138    1.453476   -0.690105
 H   -3.129371    1.491270   -1.199063
 H   -3.849236   -1.402591    1.890920
 H    0.827912    1.917376    0.739695
 H    3.026142    0.095965    1.422318
 H    2.436219    1.399502    3.411182
 H    2.611413    2.925719    2.516238
 H    4.030591    1.892890    2.810932
 H    4.507119    1.818121    0.359955
 H    2.332265    0.869649   -1.561402
 H    3.977543    1.348466   -1.961950
 H    1.855344   -1.416766   -1.067685
 H    5.018044   -4.178004   -0.200112
 H    6.670264   -2.341602   -0.390806
 H    5.911972   -0.026230   -0.840632
 H    3.388973   -5.327926   -1.270234
 H    1.145827   -2.834972    0.796581
 H    0.547461   -4.398784    0.419078
 H    2.637099    5.184924   -1.908186
 H    4.398479    5.526421   -1.867789
 H    3.393916    5.737243   -0.396368
