40 
1kv1_ligand_ani.xyz
 C    0.449617    0.426087   -0.195108
 O    0.325527   -0.762872   -0.417698
 N    1.649336    1.089784   -0.050063
 C    2.944612    0.534151   -0.030326
 C    4.000136    1.373878    0.337282
 C    5.304138    0.900192    0.385651
 C    5.556778   -0.426138    0.056428
 C    4.517508   -1.269066   -0.316895
 C    3.211366   -0.796380   -0.362197
 N   -0.638818    1.279591   -0.074545
 C   -1.960273    0.814168   -0.074562
 C   -2.520702   -0.444620   -0.050821
 C   -3.915627   -0.208061   -0.018996
 N   -4.184498    1.091708   -0.041630
 N   -2.980649    1.704709   -0.082220
 C   -2.923000    3.148795   -0.161802
 C   -4.616890   -2.542745   -0.523856
 C   -6.309657   -0.702204   -0.538175
 C   -5.298780   -1.456481    1.627809
 C   -5.029803   -1.219293    0.128623
Cl    7.185434   -1.037027    0.111986
 H    1.621737    2.090665    0.072449
 H    3.802026    2.410453    0.598680
 H    6.119867    1.555018    0.676190
 H    4.726253   -2.303919   -0.572054
 H    2.398979   -1.448851   -0.650500
 H   -0.494663    2.214997    0.281639
 H   -1.968372   -1.369278   -0.064391
 H   -2.588505    3.601408    0.780976
 H   -2.257474    3.473113   -0.971853
 H   -3.938382    3.484115   -0.375928
 H   -4.413220   -2.402962   -1.590416
 H   -3.717894   -2.949294   -0.051809
 H   -5.417222   -3.284110   -0.419570
 H   -6.630528    0.243332   -0.093596
 H   -6.154183   -0.544471   -1.611364
 H   -7.112970   -1.437621   -0.415190
 H   -4.404865   -1.843282    2.128177
 H   -5.594875   -0.524489    2.121852
 H   -6.106429   -2.186640    1.755398
