30 
1kwq_ligand_ani.xyz
 S    3.573002   -0.374766   -0.223306
 C    1.802389   -0.311104   -0.190568
 C    1.064245   -1.483278   -0.332005
 C   -0.317162   -1.420335   -0.259059
 C   -0.987388   -0.200636   -0.084735
 N   -2.400418   -0.227206   -0.043639
 C   -3.064600   -1.125638    0.775020
 O   -2.562888   -1.745391    1.688990
 C   -4.513208   -1.163814    0.315419
 C   -4.440285   -0.630584   -1.116733
 C   -3.265919    0.356287   -1.066473
 C   -0.213184    0.967388    0.028931
 N   -0.766774    2.306613    0.239379
 O   -1.855094    2.578509   -0.239474
 O   -0.085716    3.099144    0.867188
 C    1.175412    0.908699   -0.000270
 N    3.988956   -0.430184    1.395119
 O    4.060436    0.895201   -0.737687
 O    3.956853   -1.648451   -0.810693
 H    1.576776   -2.427043   -0.490007
 H   -0.900767   -2.330409   -0.340370
 H   -5.095018   -0.506640    0.973557
 H   -4.920211   -2.173056    0.403836
 H   -5.367523   -0.156351   -1.450234
 H   -4.208149   -1.443973   -1.812912
 H   -2.718876    0.436146   -2.009671
 H   -3.582654    1.354850   -0.763890
 H    1.735542    1.827311    0.118108
 H    4.567997    0.368507    1.632592
 H    4.441976   -1.311661    1.612128
