23 
1kwr_ligand_ani.xyz
 S    3.041766    0.073338   -0.090525
 C    1.301203   -0.247291   -0.135450
 C    0.853208   -1.570285   -0.247300
 C   -0.503801   -1.845037   -0.260297
 C   -1.410307   -0.782713   -0.160821
 N   -2.802861   -0.898309   -0.207174
 C   -3.462854   -1.961096    0.529593
 S   -3.568235    0.648839   -0.075751
 C   -2.004779    1.534505   -0.003412
 O   -1.914117    2.730887    0.076520
 C   -0.942828    0.528773   -0.068662
 C    0.417494    0.812995   -0.054100
 N    3.366953    0.215340    1.543548
 O    3.275485    1.382985   -0.677872
 O    3.723478   -1.120667   -0.564951
 H    1.580757   -2.371953   -0.326353
 H   -0.852211   -2.869039   -0.363220
 H   -3.502050   -1.742770    1.605134
 H   -4.480692   -2.089548    0.151664
 H   -2.927025   -2.901575    0.375946
 H    0.758992    1.840783    0.007803
 H    3.757169    1.131187    1.739887
 H    3.977113   -0.535884    1.848061
