47 
1kyv_ligand_dft.xyz
 N    0.974780   -2.448742   -0.389797
 C    1.791529   -3.532240   -0.114175
 O    1.398849   -4.676462   -0.147560
 N    3.134668   -3.268228    0.215619
 C    3.743947   -2.041803    0.382703
 O    4.904884   -1.917907    0.699024
 C    2.807951   -0.899985    0.134862
 N    3.231697    0.307595    0.315720
 C    2.349431    1.335930    0.119668
 C    2.772760    2.648770    0.397988
 C    1.925812    3.725960    0.258375
 C    2.395353    5.123265    0.566517
 C    0.589666    3.488672   -0.163656
 C   -0.378391    4.635425   -0.280884
 C    0.158670    2.205667   -0.458384
 C    1.034564    1.116234   -0.339792
 N    0.656995   -0.186189   -0.638054
 C    1.457665   -1.237005   -0.294119
 C   -0.617274   -0.472949   -1.306165
 C   -1.749631   -0.870172   -0.341629
 O   -1.876017   -2.257492   -0.197991
 C   -3.076718   -0.337328   -0.873706
 O   -2.999540    1.076654   -0.876158
 C   -4.290071   -0.782604   -0.052261
 O   -5.368542    0.005617   -0.536120
 C   -4.126798   -0.551555    1.444872
 O   -5.424611   -0.710969    2.001739
 H    3.705899   -4.085446    0.392026
 H    3.796154    2.773901    0.738283
 H    2.287541    5.782695   -0.302373
 H    1.815335    5.569928    1.382586
 H    3.447536    5.126653    0.861888
 H   -1.364339    4.289980   -0.600540
 H   -0.024651    5.377237   -1.006357
 H   -0.492371    5.155174    0.677461
 H   -0.880857    2.050213   -0.728008
 H   -0.890297    0.411755   -1.878841
 H   -0.443526   -1.295641   -2.003429
 H   -1.550642   -0.374237    0.624473
 H   -0.973604   -2.633292   -0.190628
 H   -3.219477   -0.711350   -1.899945
 H   -3.924312    1.366425   -0.942530
 H   -4.478227   -1.847325   -0.231528
 H   -6.040011   -0.020585    0.162301
 H   -3.419155   -1.282273    1.855438
 H   -3.744952    0.464787    1.618020
 H   -5.403990   -0.430888    2.922531
