52 
1kz8_ligand_ani.xyz
 O   -4.220111    3.420880   -1.638670
 C   -5.381554    3.231764   -0.870648
 C   -5.482916    1.781393   -0.494815
 S   -7.021441    1.005106   -0.257045
 C   -6.199369   -0.442137    0.169173
 N   -4.462291    1.022359   -0.267391
 C   -4.852123   -0.248219    0.111253
 C   -3.792684   -1.235641    0.399550
 C   -2.467216   -0.836350    0.272850
 C   -4.080019   -2.544581    0.796536
 C   -3.036694   -3.424737    1.050012
 C   -1.708200   -3.033738    0.911660
 C   -1.421559   -1.724522    0.515037
 N   -0.108304   -1.214708    0.408223
 C    1.044295   -1.826843   -0.011924
 N    1.022246   -3.084036   -0.399859
 C    2.184840   -3.593724   -0.872145
 C    2.262110   -1.055018   -0.023293
 C    2.389334    0.285569    0.443374
 C    3.589389    0.945296    0.362641
 O    3.807384    2.225208    0.754614
 C    2.702113    2.952773    1.266427
 C    3.177797    4.357162    1.570290
 C    3.391889   -1.715344   -0.535581
 N    3.347993   -3.007400   -0.970808
 C    4.624431   -1.023887   -0.605001
 C    4.736624    0.268175   -0.172935
 O    5.876483    0.997542   -0.203197
 C    7.041354    0.361063   -0.704171
 C    8.179166    1.355836   -0.622956
 H   -4.164064    4.357699   -1.861526
 H   -6.294871    3.527190   -1.406822
 H   -5.346074    3.818201    0.064522
 H   -6.744020   -1.337950    0.433710
 H   -2.264458    0.186129   -0.031930
 H   -5.106601   -2.881510    0.910353
 H   -3.258339   -4.442548    1.358752
 H   -0.899032   -3.728515    1.103012
 H   -0.056767   -0.208460    0.458171
 H    2.131654   -4.628254   -1.206579
 H    1.530701    0.775197    0.894749
 H    2.326530    2.462867    2.175801
 H    1.892132    2.966330    0.523682
 H    3.980394    4.338433    2.312820
 H    3.551413    4.840982    0.663455
 H    2.350908    4.954313    1.967186
 H    5.465386   -1.572724   -1.013629
 H    6.870859    0.044535   -1.742668
 H    7.260326   -0.533259   -0.104169
 H    7.957228    2.243561   -1.221785
 H    8.345771    1.665278    0.412658
 H    9.100390    0.902511   -1.002186
