52 
1kz8_ligand_xtb.xyz
 O   -6.855863    3.553064   -0.181163
 C   -5.531940    3.109128   -0.333084
 C   -5.511954    1.631484   -0.153053
 S   -7.010382    0.761782    0.036514
 C   -6.083864   -0.679851    0.145064
 N   -4.457426    0.904104   -0.131340
 C   -4.743849   -0.421944    0.034813
 C   -3.653657   -1.388765    0.076390
 C   -2.344092   -0.923976    0.035096
 C   -3.881325   -2.762854    0.151181
 C   -2.809360   -3.634591    0.181446
 C   -1.505282   -3.174564    0.138641
 C   -1.265435   -1.804325    0.064584
 N    0.005905   -1.243112    0.028460
 C    1.233288   -1.824916   -0.018742
 N    1.330338   -3.143156   -0.067548
 C    2.548472   -3.676887   -0.133690
 C    2.407685   -1.002651   -0.020403
 C    2.430068    0.405049    0.056078
 C    3.615085    1.094179    0.049656
 O    3.744304    2.442334    0.125832
 C    2.585308    3.239593    0.242713
 C    3.034589    4.689705    0.328909
 C    3.636330   -1.700827   -0.099586
 N    3.688854   -3.051528   -0.159462
 C    4.848097   -0.983434   -0.113400
 C    4.855693    0.384456   -0.041802
 O    5.954653    1.169366   -0.044126
 C    7.227055    0.556169   -0.123731
 C    8.270828    1.661505   -0.102960
 H   -6.896194    4.504183   -0.320830
 H   -4.862680    3.569025    0.410449
 H   -5.139518    3.350228   -1.333912
 H   -6.577657   -1.618490    0.287696
 H   -2.182350    0.142585   -0.022859
 H   -4.888472   -3.146790    0.180860
 H   -2.989333   -4.697939    0.238834
 H   -0.671507   -3.854573    0.157875
 H    0.001978   -0.233568    0.014058
 H    2.578589   -4.758985   -0.173735
 H    1.504435    0.955452    0.128865
 H    2.023838    2.962474    1.147020
 H    1.935324    3.095683   -0.632859
 H    3.679271    4.824955    1.192619
 H    3.593706    4.955903   -0.563553
 H    2.170542    5.341840    0.419752
 H    5.753497   -1.562633   -0.178477
 H    7.305327   -0.026840   -1.051570
 H    7.370724   -0.121945    0.728579
 H    8.119334    2.329708   -0.946029
 H    8.181774    2.237384    0.813917
 H    9.266577    1.231456   -0.160767
