27 
1l2s_ligand_dft.xyz
 N   -0.264813    1.722048    0.943728
 C    0.993199    1.086626    0.711260
 C    1.289845   -0.128745    1.327637
 C    1.915393    1.685337   -0.144601
 C    2.516226   -0.741580    1.101942
 C    3.132205    1.062486   -0.392715
 C    3.424997   -0.143373    0.235932
 S   -1.382486    1.754548   -0.296052
 C   -1.514348    0.073404   -0.854376
 O   -2.644563    2.119329    0.349532
 O   -0.852049    2.531436   -1.393519
 C   -1.901208   -0.995685   -0.072816
 C   -1.114250   -0.289949   -2.165775
 S   -1.756137   -2.462650   -0.961472
 C   -2.281749   -1.121360    1.367649
 C   -1.215218   -1.637451   -2.361042
 O   -2.760968   -0.042137    1.992749
 O   -2.127726   -2.165402    1.952023
Cl    4.959426   -0.918973   -0.066569
 H   -0.723008    1.460753    1.813338
 H    0.564917   -0.606214    1.981736
 H    1.674499    2.633194   -0.611932
 H    2.756341   -1.683032    1.582770
 H    3.855673    1.518133   -1.059355
 H   -0.773700    0.425287   -2.902772
 H   -0.992402   -2.187721   -3.265090
 H   -2.989009    0.693355    1.382416
