27 
1l2s_ligand_ani.xyz
 N   -0.080348    1.549375    0.700753
 C    1.188749    0.913884    0.537969
 C    1.276881   -0.472833    0.558970
 C    2.347449    1.678831    0.406173
 C    2.509545   -1.098679    0.414635
 C    3.583214    1.059491    0.259978
 C    3.655447   -0.327170    0.262820
 S   -1.125723    1.697148   -0.617746
 C   -1.609743    0.031615   -0.858485
 O   -2.265390    2.444622   -0.081971
 O   -0.430451    2.167098   -1.799605
 C   -2.191946   -0.771465    0.098018
 C   -1.292584   -0.665632   -2.062175
 S   -2.263917   -2.407179   -0.452070
 C   -2.724236   -0.544819    1.486990
 C   -1.598777   -1.988839   -1.971244
 O   -3.047096    0.685050    1.875515
 O   -2.877239   -1.495990    2.216425
Cl    5.201054   -1.109393    0.079505
 H   -0.041739    2.450983    1.167206
 H    0.371333   -1.056288    0.702687
 H    2.285497    2.764402    0.401548
 H    2.578271   -2.181568    0.422438
 H    4.485711    1.651616    0.147127
 H   -0.842290   -0.170953   -2.916733
 H   -1.457365   -2.743969   -2.734083
 H   -2.903241    1.367794    1.185210
