32 
1l6s_ligand_dft.xyz
 C    3.831129   -1.143224   -0.040099
 O    4.133696   -2.023696   -0.797923
 C    2.475396   -0.456779   -0.020745
 C    2.555643    1.060901   -0.253482
 C    0.229428    1.572735    0.707309
 O    4.727128   -0.695463    0.871049
 C   -1.069932    2.369242    0.545434
 C   -2.269027    0.517285   -0.807738
 C   -3.054923   -0.009113    0.403343
 C   -3.593740   -1.415609    0.204838
 O   -2.663022   -2.371145   -0.032259
 O   -4.757471   -1.708419    0.241036
 C   -1.906363    2.001025   -0.687431
 C    1.184619    1.702925   -0.481090
 H    1.990337   -0.670134    0.940967
 H    1.877195   -0.927254   -0.805459
 H    3.192027    1.254193   -1.124577
 H    3.039460    1.555972    0.601011
 H   -0.008604    0.513841    0.879743
 H    0.740229    1.916461    1.617081
 H    4.336750    0.003318    1.411985
 H   -0.827463    3.438150    0.490303
 H   -1.675970    2.245178    1.451637
 H   -2.868896    0.371413   -1.713172
 H   -1.351457   -0.070482   -0.954997
 H   -3.915967    0.633029    0.603172
 H   -2.422572   -0.000280    1.301409
 H   -1.776838   -1.986611   -0.024567
 H   -1.374325    2.302269   -1.597827
 H   -2.832015    2.589698   -0.669086
 H    0.733304    1.257370   -1.377465
 H    1.328767    2.767330   -0.707420
