24 
1l7x_ligand_ani.xyz
 N   -1.266290    1.083149   -0.000002
 C   -1.861675   -0.190393    0.000084
 C   -2.159995    2.244168    0.001912
 C    0.111945    1.369529   -0.001501
 N   -0.996304   -1.284861   -0.000825
 O   -3.068975   -0.335342    0.000989
 C   -1.537371   -2.635297   -0.000417
 C    0.362810   -1.083222   -0.000744
 C    0.913712    0.175762   -0.001024
 N    1.324868   -2.042843    0.000129
 O    0.501968    2.527820   -0.002793
 N    2.272275   -0.008279    0.000058
 C    2.451167   -1.354934    0.000647
 C    3.273614    1.042539    0.001751
 H   -1.973766    2.856095    0.886401
 H   -1.976732    2.856910   -0.882627
 H   -3.182971    1.874515    0.003483
 H   -1.199819   -3.175814   -0.888997
 H   -1.197794   -3.175983    0.887288
 H   -2.622074   -2.548778    0.000790
 H    3.446729   -1.782932    0.001608
 H    3.159460    1.669488   -0.884984
 H    3.155640    1.670009    0.887628
 H    4.260307    0.577589    0.004090
