12 
1l83_ligand_dft.xyz
 C    1.311554   -0.468720   -0.000043
 C    0.249891   -1.370092    0.000026
 C    1.061654    0.901442    0.000005
 C   -1.061707   -0.901392    0.000043
 C   -0.249824    1.370117    0.000066
 C   -1.311569    0.468648   -0.000085
 H    2.334450   -0.834122   -0.000136
 H    0.444660   -2.438691    0.000051
 H    1.889633    1.604520   -0.000002
 H   -1.889538   -1.604629    0.000100
 H   -0.444767    2.438681    0.000146
 H   -2.334427    0.834231   -0.000225
