27 
1laf_ligand_xtb.xyz
 N   69.947049   15.054384   90.184249
 C   70.042171   14.548631   91.535371
 C   71.506652   14.129578   91.698556
 O   71.932078   13.069293   91.322379
 C   69.164382   13.319944   91.866894
 C   67.691869   13.513246   91.511012
 C   66.848063   12.306596   91.912457
 N   67.269944   11.134917   91.156290
 C   66.903636    9.885757   91.391052
 N   66.028020    9.600693   92.353376
 N   67.408078    8.895730   90.651956
 O   72.238067   15.069855   92.265341
 H   69.053365   15.483106   89.988734
 H   70.154057   14.340822   89.496972
 H   69.831277   15.375630   92.217892
 H   69.589598   12.469653   91.327429
 H   69.259923   13.115929   92.934675
 H   67.304747   14.388840   92.033992
 H   67.576729   13.688236   90.439023
 H   66.981418   12.114566   92.981814
 H   65.790311   12.510766   91.712936
 H   67.925034   11.313104   90.408226
 H   65.752337    8.651386   92.539518
 H   65.605462   10.327731   92.904511
 H   68.099501    9.068277   89.941919
 H   67.145247    7.938349   90.814888
 H   73.178985   14.826981   92.296536
