80 
1lee_ligand_dft.xyz
 C    3.795399    2.354790   -0.465999
 C    4.106969    1.006473   -0.663331
 C    5.187889    0.584362   -1.441213
 C    5.989254    1.564145   -2.025215
 C    5.716281    2.915087   -1.833317
 C    4.626180    3.304025   -1.063482
 C    5.451072   -0.887509   -1.625706
 C    2.598910    2.759541    0.357615
 C   -4.543344   -0.020938   -0.421908
 C   -5.451216   -0.099255    0.636873
 C   -6.789572   -0.360538    0.360716
 C   -7.225722   -0.538195   -0.945114
 C   -6.317641   -0.474849   -2.011558
 N   -6.753690   -0.608927   -3.325955
 C   -4.971810   -0.221036   -1.730348
 O    3.286639    0.035401   -0.124274
 C    3.462762   -0.236035    1.252072
 C    2.149836   -0.685985    1.873222
 O    2.119702   -0.974536    3.070117
 N    1.104349   -0.718089    1.031929
 C   -0.951382   -0.841968    2.485886
 O   -0.545768   -1.362850    3.727628
 C   -0.943462    0.692986    2.515219
 C   -1.399813    1.374555    1.221516
 C   -1.276114    2.899294    1.312596
 C   -1.737734    3.676619    0.071730
 C   -1.541894    5.177606    0.300136
 C   -1.020863    3.224139   -1.203745
 N   -2.760968    0.983236    0.875749
 C   -3.080175    0.250721   -0.222108
 O   -2.238540   -0.162863   -1.017238
 C   -0.160925   -1.411995    1.286058
 C    0.057954   -2.933976    1.396508
 C    0.906879   -3.433956    0.254119
 C    2.264880   -3.698671    0.443819
 C    3.080224   -4.054164   -0.627493
 C    2.544278   -4.152923   -1.908471
 C    1.189982   -3.895582   -2.109054
 C    0.379950   -3.537435   -1.036000
 H    6.834956    1.262065   -2.637580
 H    6.349516    3.666808   -2.294686
 H    4.406055    4.359863   -0.927871
 H    6.210874   -1.053451   -2.394608
 H    4.539113   -1.421438   -1.909256
 H    5.811449   -1.344923   -0.696453
 H    1.781752    2.039519    0.250833
 H    2.233023    3.744711    0.053466
 H    2.841583    2.818606    1.426256
 H   -5.121781   -0.006524    1.667529
 H   -7.504454   -0.435695    1.174681
 H   -8.276491   -0.731857   -1.145536
 H   -7.606753   -1.136113   -3.446491
 H   -6.042437   -0.886058   -3.987567
 H   -4.236564   -0.176712   -2.528441
 H    4.195951   -1.039213    1.397808
 H    3.815585    0.646849    1.795798
 H    1.343628   -0.548506    0.063327
 H   -1.983936   -1.185757    2.348284
 H    0.421613   -1.235120    3.772097
 H    0.072510    1.032936    2.749383
 H   -1.579961    1.011242    3.350845
 H   -0.781127    1.023444    0.393514
 H   -0.221066    3.134003    1.512130
 H   -1.836737    3.253714    2.190956
 H   -2.812239    3.491771   -0.064436
 H   -1.915225    5.758095   -0.550330
 H   -0.477123    5.413328    0.424397
 H   -2.066242    5.519855    1.199716
 H   -1.232471    2.178642   -1.447810
 H    0.065376    3.336761   -1.098033
 H   -1.335307    3.835231   -2.056984
 H   -3.513358    1.385626    1.415018
 H   -0.756658   -1.217699    0.389958
 H    0.527372   -3.161454    2.356425
 H   -0.926411   -3.415844    1.398798
 H    2.686416   -3.613437    1.443133
 H    4.135263   -4.253299   -0.461206
 H    3.177663   -4.431254   -2.745835
 H    0.762830   -3.971329   -3.104852
 H   -0.672499   -3.318131   -1.202431
