80 
1lf2_ligand_ani.xyz
 C   -4.622384    0.508181   -1.568050
 C   -4.327637   -0.670332   -0.867940
 C   -5.174370   -1.784469   -0.876853
 C   -6.357720   -1.693578   -1.609498
 C   -6.685301   -0.534399   -2.303991
 C   -5.820557    0.555277   -2.281230
 C   -4.820733   -3.044252   -0.126273
 C   -3.648965    1.656665   -1.549015
 C    4.902439    0.054260   -0.749478
 C    5.301848    0.763782   -1.882743
 C    6.630448    1.094095   -2.090438
 C    7.603117    0.734819   -1.148259
 C    7.202159    0.043497    0.004356
 N    8.929752    1.115758   -1.319939
 C    5.870615   -0.290103    0.196450
 O   -3.128054   -0.718852   -0.179816
 C   -3.245395   -0.622163    1.236438
 C   -1.974559   -0.018108    1.808654
 O   -1.876145    0.186398    3.019346
 N   -1.016756    0.220505    0.898929
 C    1.175065    0.025222    2.129643
 O    0.838522    0.172401    3.489001
 C    1.221842   -1.464119    1.771873
 C    1.765518   -1.801129    0.378380
 C    1.746692   -3.313652    0.104520
 C    0.406157   -4.046133    0.261321
 C    0.584622   -5.518449   -0.112984
 C   -0.705351   -3.413134   -0.576294
 N    3.127461   -1.310457    0.202916
 C    3.448577   -0.267095   -0.614558
 O    2.599782    0.374165   -1.224984
 C    0.267652    0.859550    1.191958
 C    0.085723    2.277351    1.765391
 C   -0.869223    3.133886    0.965338
 C   -0.584980    3.486548   -0.356386
 C   -1.468781    4.276650   -1.084260
 C   -2.653547    4.719861   -0.500487
 C   -2.953805    4.367105    0.812362
 C   -2.069294    3.570603    1.533424
 H   -7.025977   -2.552139   -1.634129
 H   -7.613055   -0.480409   -2.868179
 H   -6.077470    1.460779   -2.826899
 H   -3.756400   -3.278459   -0.229918
 H   -5.032601   -2.951074    0.945711
 H   -5.398835   -3.895063   -0.497987
 H   -2.792851    1.472838   -2.210821
 H   -4.129846    2.584996   -1.876797
 H   -3.246664    1.817521   -0.542797
 H    4.540473    1.052750   -2.601596
 H    6.925912    1.644581   -2.981331
 H    7.944487   -0.232102    0.750663
 H    9.605762    0.554496   -0.821645
 H    9.210166    1.279711   -2.276483
 H    5.595243   -0.799998    1.118217
 H   -3.382508   -1.613982    1.682944
 H   -4.090704    0.011517    1.529323
 H   -1.282027    0.086318   -0.067027
 H    2.187997    0.439230    2.030825
 H   -0.134900    0.096121    3.554365
 H    1.836283   -1.951622    2.539304
 H    0.212123   -1.878499    1.881102
 H    1.171713   -1.279951   -0.380650
 H    2.483487   -3.788670    0.770821
 H    2.106625   -3.465675   -0.923581
 H    0.103895   -4.008560    1.318232
 H    0.871902   -5.614395   -1.167766
 H   -0.344436   -6.080905    0.031622
 H    1.365074   -5.995775    0.490550
 H   -0.962942   -2.405615   -0.234731
 H   -0.407429   -3.348709   -1.630829
 H   -1.619850   -4.015619   -0.527734
 H    3.872753   -1.888883    0.559509
 H    0.770375    0.927952    0.220966
 H   -0.267579    2.196900    2.796241
 H    1.076437    2.752558    1.804481
 H    0.335456    3.138834   -0.822522
 H   -1.235601    4.546048   -2.111369
 H   -3.353238    5.319841   -1.077878
 H   -3.881011    4.705004    1.268881
 H   -2.315491    3.267141    2.548953
