54 
1lfo_ligand_ani.xyz
 C   -8.155268    1.580670    0.074426
 O   -8.627982    0.335955   -0.181311
 O   -8.746030    2.540524   -0.340999
 C   -6.890167    1.681448    0.914741
 C   -5.872668    0.550944    0.750185
 C   -5.385108    0.360077   -0.687967
 C   -4.404359   -0.802469   -0.862863
 C   -3.096524   -0.649201   -0.085827
 C   -2.087973   -1.750634   -0.405655
 C   -0.778533   -1.622442    0.377364
 C    0.179159   -2.747605    0.100521
 C    1.509854   -2.660944    0.063971
 C    2.303668   -1.398251    0.271564
 C    3.794526   -1.566366   -0.029006
 C    4.611418   -0.304091    0.234676
 C    6.100343   -0.477743   -0.058976
 C    6.918547    0.783914    0.209564
 C    8.407802    0.605173   -0.085501
 C    9.265429    1.826041    0.261413
 C    8.907472    3.075387   -0.542113
 H   -8.067215   -0.329500    0.240845
 H   -7.205369    1.756987    1.965446
 H   -6.441342    2.645836    0.661016
 H   -6.292722   -0.393396    1.131067
 H   -5.021854    0.775864    1.401643
 H   -4.909365    1.290937   -1.027921
 H   -6.247175    0.199900   -1.348398
 H   -4.169840   -0.906047   -1.931270
 H   -4.895141   -1.741062   -0.565110
 H   -3.298324   -0.647807    0.994533
 H   -2.652116    0.330608   -0.316354
 H   -1.870314   -1.745846   -1.482926
 H   -2.537312   -2.730235   -0.186670
 H   -1.018105   -1.614064    1.452678
 H   -0.307875   -0.651687    0.165511
 H   -0.283113   -3.725277   -0.042255
 H    2.085369   -3.571807   -0.109204
 H    2.182504   -1.054764    1.311987
 H    1.892630   -0.586721   -0.350488
 H    3.916872   -1.871864   -1.078001
 H    4.189609   -2.391328    0.581174
 H    4.480390    0.001100    1.283908
 H    4.215393    0.521522   -0.375246
 H    6.230090   -0.780215   -1.109147
 H    6.496263   -1.306123    0.547625
 H    6.790497    1.083523    1.260668
 H    6.512906    1.607472   -0.394614
 H    8.535208    0.362716   -1.151234
 H    8.779270   -0.264725    0.474113
 H   10.321250    1.578114    0.094059
 H    9.168691    2.042008    1.334754
 H    8.969351    2.880514   -1.619484
 H    7.889980    3.417638   -0.324798
 H    9.587310    3.902449   -0.312528
