14 
1lgw_ligand_dft.xyz
 C   -1.951257    0.553649    0.006859
 C   -1.824061   -0.831578    0.005148
 C   -0.803553    1.345009    0.002237
 C   -0.567322   -1.430031   -0.005144
 C    0.433717    0.733787   -0.006754
 C    0.596204   -0.655074   -0.011385
 N    1.871380   -1.208119   -0.078203
 F    1.556372    1.488961    0.003145
 H   -2.930705    1.019848    0.013589
 H   -2.710065   -1.458946    0.009845
 H   -0.853890    2.428599    0.008730
 H   -0.477434   -2.513214   -0.015444
 H    1.954664   -2.127437    0.331408
 H    2.608061   -0.587236    0.225220
