44 
1lhu_ligand_dft.xyz
 C    2.649283   -1.505117   -0.338427
 C    4.018380   -1.467069   -0.105365
 C    4.629108   -0.249273    0.182321
 O    5.965004   -0.128079    0.420169
 C    3.856343    0.905045    0.231759
 C    2.482774    0.863958    0.000319
 C    1.706792    2.161794    0.109801
 C    0.294829    2.077272   -0.462666
 C   -0.386320    0.793768    0.005032
 C    0.357060   -0.420931   -0.594252
 C    1.851691   -0.359141   -0.290906
 C   -0.307548   -1.753806   -0.198272
 C   -1.817578   -1.781163   -0.489171
 C   -2.533581   -0.578058    0.128268
 C   -1.855821    0.708773   -0.382389
 C   -2.821043    1.833287    0.023808
 C   -4.221158    1.166330   -0.056813
 C   -3.962943   -0.329539   -0.375608
 O   -4.882716   -1.221488    0.220232
 C   -2.549438   -0.693692    1.661905
 H    2.200413   -2.466820   -0.563626
 H    4.604122   -2.383121   -0.149244
 H    6.374370   -0.998722    0.352933
 H    4.345904    1.848808    0.456539
 H    2.270662    2.967624   -0.374388
 H    1.641776    2.432747    1.173106
 H   -0.279305    2.958019   -0.152675
 H    0.327316    2.088293   -1.561338
 H   -0.301935    0.751296    1.101739
 H    0.242347   -0.328651   -1.688252
 H   -0.117507   -1.949365    0.864445
 H    0.155318   -2.580392   -0.747386
 H   -1.969674   -1.762972   -1.578189
 H   -2.251952   -2.719248   -0.124295
 H   -1.884312    0.651749   -1.484523
 H   -2.736155    2.704281   -0.632402
 H   -2.608533    2.179869    1.041793
 H   -4.858433    1.634045   -0.814514
 H   -4.751516    1.231990    0.898768
 H   -3.964595   -0.474396   -1.469113
 H   -5.756068   -1.028102   -0.138594
 H   -3.003914    0.179623    2.139636
 H   -3.137392   -1.567855    1.954075
 H   -1.544230   -0.806796    2.076227
