13 
1li2_ligand_ani.xyz
 C   -0.938169   -0.022398    0.000264
 C   -0.263570    1.198051    0.001079
 C    1.128515    1.214434   -0.000292
 C    1.850854    0.026928   -0.000751
 C    1.166495   -1.187412    0.000355
 C   -0.220993   -1.219889    0.000431
 O   -2.297729   -0.112370   -0.000770
 H   -0.823446    2.132553    0.003252
 H    1.648921    2.168887   -0.001115
 H    2.936997    0.043259   -0.001873
 H    1.721574   -2.122445    0.001163
 H   -0.767930   -2.158571    0.000356
 H   -2.673081    0.777001   -0.002145
