13 
1li2_ligand_xtb.xyz
 C   -0.935111   -0.034095    0.000170
 C   -0.268153    1.184853    0.000598
 C    1.115023    1.216264    0.000018
 C    1.840451    0.038241   -0.000589
 C    1.174284   -1.176832    0.000151
 C   -0.205965   -1.219268    0.000326
 O   -2.294184   -0.114189   -0.000324
 H   -0.834698    2.107425    0.001368
 H    1.625359    2.168121    0.000172
 H    2.919522    0.065891   -0.001643
 H    1.734413   -2.099974    0.000660
 H   -0.740487   -2.155821    0.000434
 H   -2.673808    0.772892   -0.002441
