30 
1ljt_ligand_dft.xyz
 C   -5.269846   -1.860980   -0.670803
 C   -3.569140   -0.385469   -0.029147
 O   -3.553149   -0.878759    1.075703
 O   -4.388954   -0.788979   -1.009197
 C   -2.686877    0.750740   -0.487276
 N    0.250001    2.090424   -0.163591
 O   -1.066090    2.410949    0.127218
 C   -1.755183    1.240109    0.616371
 C   -0.639201    0.254713    0.966786
 C    0.523411    0.916080    0.270709
 O    5.603854   -1.436659   -0.289906
 C    2.864596    0.985561   -0.596264
 C    1.854597    0.320839    0.109532
 C    2.143979   -0.930063    0.665482
 C    3.398415   -1.506108    0.527073
 C    4.393329   -0.832051   -0.178958
 C    4.120587    0.418234   -0.741259
 H   -4.702675   -2.742399   -0.361860
 H   -5.939005   -1.565929    0.141072
 H   -5.837487   -2.069998   -1.576876
 H   -3.320494    1.574140   -0.833121
 H   -2.104661    0.425021   -1.357950
 H   -2.331841    1.547813    1.490619
 H   -0.838500   -0.754619    0.596145
 H   -0.461509    0.178205    2.044820
 H    6.197967   -0.868920   -0.795281
 H    2.653585    1.955888   -1.033315
 H    1.380619   -1.467615    1.220607
 H    3.623045   -2.474795    0.960050
 H    4.893650    0.948197   -1.293799
