61 
1lnm_ligand_ani.xyz
 O    7.131281    0.968638    0.475326
 C    6.094905    0.450411    0.156888
 C    4.896798    1.042753   -0.475004
 O    5.842807   -0.879481    0.350780
 C    4.551758   -1.208940   -0.136059
 C    3.962772    0.097869   -0.627902
 C    2.564204    0.297316   -1.132584
 C    2.021245   -0.914185   -1.935192
 C    1.451499    0.609372   -0.048621
 C    0.521297    1.706010   -0.617872
 C   -0.806584    1.843419    0.130051
 C    2.007967    1.054401    1.309424
 C    0.645162   -0.729089    0.047909
 C    0.619061   -1.235226   -1.392338
 O    1.422596   -1.701525    0.752135
 C   -0.746128   -0.593893    0.721678
 C   -1.489135   -1.936525    0.745095
 C   -1.606202    0.532581    0.102861
 C   -3.019675    0.645800    0.764174
 C   -3.930602    1.646867    0.013994
 C   -2.917000    1.145746    2.216553
 C   -3.733518   -0.739550    0.751601
 C   -2.864911   -1.822467    1.408255
 C   -4.174301   -1.175833   -0.657360
 C   -5.060343   -0.141565   -1.347872
 C   -4.354755    1.207157   -1.388281
 O   -6.278855    0.051168   -0.636613
 H    4.840655    2.092619   -0.738846
 H    3.971359   -1.665956    0.671688
 H    4.667801   -1.946818   -0.938441
 H    2.619036    1.179577   -1.782576
 H    2.673506   -1.777019   -1.794089
 H    1.998152   -0.701575   -3.008732
 H    0.316252    1.492181   -1.676894
 H    1.065272    2.659478   -0.602481
 H   -1.384380    2.656456   -0.320504
 H   -0.607032    2.139798    1.167097
 H    1.225637    1.114345    2.073528
 H    2.784778    0.374108    1.672106
 H    2.458654    2.051104    1.233026
 H    0.398816   -2.305773   -1.420194
 H   -0.150004   -0.719476   -1.978946
 H    1.519673   -1.385152    1.660650
 H   -0.548841   -0.315084    1.770523
 H   -1.620157   -2.302698   -0.281159
 H   -0.877258   -2.685698    1.258510
 H   -1.773464    0.278903   -0.957350
 H   -4.838536    1.773959    0.615034
 H   -3.449398    2.629977   -0.029778
 H   -2.539467    2.173327    2.256739
 H   -2.266184    0.528111    2.842353
 H   -3.909833    1.149618    2.681329
 H   -4.653379   -0.614159    1.339514
 H   -3.385171   -2.787147    1.354420
 H   -2.743630   -1.605662    2.477888
 H   -4.716476   -2.130905   -0.588277
 H   -3.305116   -1.362750   -1.297973
 H   -5.277529   -0.473860   -2.376892
 H   -3.482018    1.135134   -2.050724
 H   -5.028638    1.949007   -1.829542
 H   -6.726798   -0.802949   -0.590418
