39 
1lox_ligand_ani.xyz
 C   -0.263711    3.090885    0.451707
 O   -1.422451    2.489461    0.083784
 O   -0.282789    4.216062    0.875441
 C    1.002033    2.320842    0.311781
 C    1.126901    1.034349   -0.037395
 C    2.399555    0.306165   -0.183148
 C    3.621858    0.972537   -0.321541
 C    4.808764    0.271125   -0.458169
 C    4.802278   -1.121442   -0.460485
 C    3.600523   -1.802916   -0.328401
 C    2.399470   -1.108987   -0.190472
 C    1.168031   -1.837985   -0.029105
 C    0.116652   -2.412698    0.129982
 C   -1.160156   -3.098516    0.356752
 C   -2.063155   -2.393287    1.386072
 C   -2.564658   -1.009591    0.962520
 C   -3.555798   -1.036736   -0.201222
 C   -4.003257    0.353955   -0.648876
 C   -5.201702    0.320371   -1.592975
 H   -1.234621    1.612011   -0.276065
 H    1.866702    2.918841    0.579932
 H    0.238332    0.433967   -0.230302
 H    3.647785    2.059782   -0.346175
 H    5.745844    0.812565   -0.562744
 H    5.732019   -1.673164   -0.565880
 H    3.588455   -2.889825   -0.330555
 H   -0.956925   -4.119356    0.703547
 H   -1.685367   -3.205232   -0.600712
 H   -1.515409   -2.309729    2.332598
 H   -2.926289   -3.041475    1.585216
 H   -1.706908   -0.367168    0.713304
 H   -3.049477   -0.529689    1.824371
 H   -4.436933   -1.621687    0.101712
 H   -3.121845   -1.565602   -1.060806
 H   -3.165816    0.863405   -1.145716
 H   -4.242354    0.961896    0.235210
 H   -4.974544   -0.254298   -2.498362
 H   -6.069038   -0.147289   -1.112502
 H   -5.493464    1.329444   -1.902017
