24 
1lrh_ligand_ani.xyz
 C    0.809121   -0.275383   -0.133050
 C   -0.572650    0.099132   -0.270312
 C   -0.888944    1.432463   -0.384662
 C    0.094617    2.442082   -0.263069
 C    1.403013    2.108689   -0.046181
 C    1.791794    0.742001    0.015960
 C    3.150309    0.374780    0.208736
 C    3.532748   -0.938708    0.222558
 C    2.569121   -1.952946    0.036315
 C    1.247613   -1.629112   -0.140115
 C   -1.645310   -0.968350   -0.338355
 C   -3.045566   -0.537341    0.093033
 O   -3.106834    0.199556    1.223666
 O   -4.047235   -0.849813   -0.490333
 H   -1.918859    1.733652   -0.560851
 H   -0.206214    3.484265   -0.327914
 H    2.164531    2.877219    0.064050
 H    3.885978    1.165572    0.339050
 H    4.575930   -1.207627    0.368801
 H    2.876558   -2.995306    0.038520
 H    0.525509   -2.425831   -0.299688
 H   -1.384317   -1.819455    0.309393
 H   -1.750950   -1.370021   -1.351881
 H   -2.210805    0.375749    1.548708
