36 
1lt6_ligand_ani.xyz
 C    0.803502   -0.530973   -0.828740
 C    2.216217   -1.057810   -1.008838
 C    2.986870   -0.961820    0.306303
 C    2.982736    0.484888    0.784909
 C    1.536768    0.988476    0.868597
 C    1.438190    2.474719    1.172340
 C   -1.224013   -1.197152    0.238637
 C   -1.935140   -0.112912   -0.269833
 C   -3.298490   -0.061108   -0.023534
 C   -3.979930   -1.032774    0.691983
 C   -3.247910   -2.105509    1.186802
 C   -1.878791   -2.195518    0.967959
 N   -4.050370    1.083356   -0.563316
 O    0.130451   -1.365889    0.082306
 O    2.171442   -2.388290   -1.456770
 O    4.300505   -1.445696    0.109046
 O    3.764654    1.203026   -0.151137
 O    0.847656    0.801722   -0.379010
 O    2.003743    3.262944    0.131187
 O   -5.251563    1.118529   -0.355643
 O   -3.429405    1.928007   -1.185440
 H    0.258644   -0.541543   -1.780456
 H    2.724568   -0.407685   -1.739407
 H    2.514677   -1.607405    1.052748
 H    3.442452    0.546180    1.786711
 H    1.021426    0.428367    1.659743
 H    0.386331    2.745371    1.333634
 H    2.002216    2.708998    2.080391
 H   -1.477042    0.684445   -0.838243
 H   -5.047835   -0.940098    0.848126
 H   -3.755353   -2.882407    1.751253
 H   -1.304060   -3.033294    1.351032
 H    3.065425   -2.727605   -1.302275
 H    4.781146   -0.727303   -0.332586
 H    3.479343    2.135086   -0.124496
 H    1.560739    2.965536   -0.678784
