91 
1m13_ligand_dft.xyz
 C    5.799253   -1.868502    0.751995
 C    3.973827    3.937837   -0.733532
 C    2.335920    5.817626   -0.267356
 C   -1.833155   -3.886094   -1.575138
 C   -1.445067   -3.076793   -0.330322
 C   -1.443876   -3.978771    0.913252
 C   -0.048627   -2.481873   -0.528304
 O    0.904196   -3.220921   -0.666591
 C    1.705563    3.478152    0.252762
 C    2.616306    4.338060   -0.216583
 C    1.848155    1.981003    0.347304
 C    1.757787   -0.834574   -2.369669
 C   -4.368254   -0.381353   -3.060661
 C   -5.733261   -0.225182   -0.937047
 C   -4.518522    0.241722   -1.698850
 C   -3.682337    1.136438   -1.159093
 C   -2.416757    1.703625   -1.748391
 C   -0.948902   -0.290926   -1.294625
 O   -1.426153   -0.880623   -2.240829
 O   -1.613770    2.598804    0.817531
 O    0.324658   -1.446928    1.967838
 C   -3.587493   -1.078770    2.197359
 C   -5.132800    0.715846    3.131537
 C   -3.720543    0.274484    2.849981
 C   -2.680065    1.060266    3.141545
 C   -1.220442    0.737233    2.892879
 C    0.117442   -0.933216   -0.418043
 C   -0.179162   -0.603154    1.036546
 C   -0.913686    0.450944    1.444256
 C   -1.269499    1.482212    0.466072
 C   -1.164934    1.169234   -1.030812
 C    0.145900    1.786611   -1.596003
 C    1.453206    1.248078   -0.968524
 C    1.512953   -0.331614   -0.931246
 C    2.663407   -0.820556   -0.020430
 C    4.082814   -0.472391   -0.503943
 C    5.097950   -0.744432    0.572907
 C    6.769268   -2.008174    1.896902
 C    5.705761   -3.080105   -0.139056
 H    4.065015    4.176538   -1.801033
 H    4.765013    4.497110   -0.218227
 H    4.183248    2.872078   -0.611916
 H    1.330199    6.052407    0.092526
 H    2.432269    6.200787   -1.291641
 H    3.057454    6.373981    0.345191
 H   -1.874121   -3.246918   -2.458934
 H   -1.101986   -4.682578   -1.745906
 H   -2.815658   -4.345101   -1.424725
 H   -2.170247   -2.270592   -0.185949
 H   -0.708716   -4.781193    0.795734
 H   -1.210307   -3.421995    1.825108
 H   -2.432309   -4.431512    1.038640
 H    0.748272    3.877801    0.585316
 H    2.886100    1.727835    0.580764
 H    1.263063    1.629655    1.198109
 H    2.641551   -0.345063   -2.788259
 H    1.928472   -1.912948   -2.380344
 H    0.919132   -0.622844   -3.037271
 H   -3.507279   -0.007031   -3.613796
 H   -4.244793   -1.467342   -2.964293
 H   -5.274261   -0.212188   -3.656522
 H   -5.818253    0.266528    0.036011
 H   -5.695485   -1.309897   -0.769635
 H   -6.652791   -0.025262   -1.502070
 H   -3.913039    1.505510   -0.159050
 H   -2.325973    1.485749   -2.815062
 H   -2.417615    2.791787   -1.625226
 H    0.908662   -2.099612    1.556305
 H   -3.754002   -0.994957    1.114012
 H   -2.600248   -1.522544    2.350291
 H   -4.337295   -1.777252    2.587100
 H   -5.628434    0.023542    3.824589
 H   -5.733590    0.722561    2.212792
 H   -5.168184    1.719370    3.565053
 H   -2.878369    2.034325    3.581912
 H   -0.614552    1.592008    3.214699
 H   -0.906147   -0.117638    3.500354
 H    0.149491    1.590700   -2.674865
 H    0.095945    2.871968   -1.471963
 H    2.236597    1.543261   -1.678056
 H    2.529687   -0.424414    0.992107
 H    2.614792   -1.910627    0.052409
 H    4.144321    0.584200   -0.791311
 H    4.311959   -1.042268   -1.408897
 H    5.228738    0.057757    1.300559
 H    7.781589   -2.215963    1.526566
 H    6.492112   -2.849423    2.545395
 H    6.810404   -1.103387    2.510513
 H    6.673615   -3.285853   -0.614109
 H    4.954305   -2.982961   -0.925919
 H    5.451416   -3.968109    0.453311
