14 
1m1b_ligand_xtb.xyz
 C    1.563243   -0.574545   -0.125163
 O    2.611863   -0.522454    0.653461
 O    1.069611   -1.585219   -0.561543
 C    1.016282    0.831014   -0.468526
 C   -0.297596    0.819021   -1.153100
 O    1.627170    1.794071   -0.075904
 S   -1.301837    0.056276    0.192814
 O   -0.414148   -0.020567    1.317310
 O   -1.594178   -1.383120   -0.366752
 O   -2.535597    0.738562    0.323204
 H    2.804333    0.414481    0.874556
 H   -0.331392    0.157386   -2.010909
 H   -0.678610    1.810398   -1.373517
 H   -0.774280   -1.905808   -0.412645
