87 
1m21_ligand_xtb.xyz
 C    1.953033    3.633862   -1.783533
 C    2.922207    3.881894   -0.826025
 C    3.888977    2.930412   -0.554021
 C    3.914220    1.718663   -1.235872
 C    2.929892    1.475370   -2.185658
 C    1.955888    2.422718   -2.454180
 C    5.035807    0.746698   -0.964716
 C    4.650850   -0.725584   -1.087536
 C    5.826125   -1.666055   -0.750545
 C    2.719962   -2.054578   -0.362058
 C    1.500405   -2.028568    0.577175
 C    0.666412   -3.298030    0.439933
 C    1.328408   -4.521364    1.087165
 C    0.666116   -5.798511    0.575417
 C    1.245537   -4.463178    2.610723
 C    0.942464    0.333173    0.814695
 C   -0.010222    1.453990    0.368472
 C    0.268371    2.740880    1.160780
 C    0.014186    2.588092    2.660367
 C    0.222265    3.941444    3.326482
 C   -0.801907    4.961187    1.324857
 C   -2.081208    0.417040   -0.490933
 C   -4.263896   -0.108718   -1.445758
 C   -5.121123    0.892420   -2.198018
 C   -5.189925   -1.123163   -0.732972
 C   -4.362727   -2.098611    0.054014
 C   -4.061620   -1.850667    1.386286
 C   -3.284162   -2.738399    2.108372
 C   -2.797682   -3.883553    1.502508
 C   -3.077251   -4.129101    0.168587
 C   -3.852314   -3.239004   -0.551731
 N    3.517227   -0.989234   -0.215274
 N    0.686303   -0.860786    0.289087
 N   -0.612429    3.773019    0.656009
 N   -1.224531    5.953218    0.651222
 N   -0.635651    4.921012    2.693239
 N   -1.426673    1.139368    0.464913
 N   -3.429075    0.588070   -0.502118
 O    2.935806   -2.952903   -1.157143
 O    1.905816    0.562455    1.537897
 O   -1.519832   -0.378679   -1.231906
 O   -5.713750    0.353761   -3.261644
 O   -5.281373    2.032922   -1.854497
 O    5.741667   -2.887083   -1.428645
 H    1.205232    4.381662   -2.004569
 H    2.926950    4.823432   -0.295871
 H    4.642867    3.133964    0.193101
 H    2.915884    0.545082   -2.731842
 H    1.202956    2.215073   -3.201147
 H    5.426651    0.924142    0.040406
 H    5.845109    0.949406   -1.672591
 H    4.350153   -0.961177   -2.116690
 H    6.773269   -1.212503   -1.057304
 H    5.854097   -1.822578    0.340160
 H    1.878672   -1.909014    1.600073
 H   -0.314960   -3.128687    0.887475
 H    0.527305   -3.491623   -0.625120
 H    2.380547   -4.540892    0.788520
 H   -0.394616   -5.800491    0.815736
 H    0.777446   -5.875741   -0.502846
 H    1.124052   -6.673773    1.030391
 H    1.720354   -5.338890    3.047228
 H    0.206506   -4.440498    2.933275
 H    1.743486   -3.580743    3.004602
 H    0.249573    1.636011   -0.688453
 H    1.330394    2.989165    1.007498
 H    0.707753    1.857850    3.071435
 H   -1.007814    2.250851    2.836607
 H   -0.041540    3.889063    4.386603
 H    1.282624    4.228670    3.251464
 H   -3.607249   -0.643541   -2.140233
 H   -5.779463   -1.639526   -1.491072
 H   -5.863705   -0.577156   -0.069097
 H   -4.447264   -0.961982    1.865151
 H   -3.061715   -2.538139    3.146314
 H   -2.207063   -4.586323    2.071642
 H   -2.690507   -5.015546   -0.311533
 H   -4.069829   -3.433448   -1.591770
 H    3.292014   -0.301784    0.496033
 H   -0.077155   -0.947568   -0.387260
 H   -0.600313    3.912837   -0.344572
 H   -1.424078    6.779940    1.203691
 H   -0.665541    5.824892    3.142254
 H   -1.951547    1.891232    0.892544
 H   -3.851800    1.380004   -0.041751
 H   -6.274593    1.006206   -3.712149
 H    4.811464   -3.178878   -1.412046
