87 
1m21_ligand_ani.xyz
 C    2.956255    3.212584   -1.919987
 C    3.870474    3.195758   -0.868870
 C    4.522500    2.012284   -0.535646
 C    4.277495    0.827868   -1.238291
 C    3.342405    0.857605   -2.277472
 C    2.696554    2.040168   -2.623368
 C    5.080903   -0.419230   -0.906788
 C    4.344394   -1.750908   -1.029766
 C    5.291595   -2.938889   -0.787706
 C    2.155031   -2.594075   -0.290957
 C    0.930073   -2.305457    0.602508
 C   -0.152215   -3.364384    0.419146
 C    0.159306   -4.730584    1.047654
 C   -0.819959   -5.783425    0.522593
 C    0.119633   -4.684695    2.577792
 C    0.938538    0.126665    0.839105
 C    0.325224    1.469082    0.403170
 C    0.910058    2.639458    1.220527
 C    0.630315    2.568626    2.721051
 C    1.151500    3.842485    3.364371
 C    0.467015    5.095034    1.361051
 C   -1.927222    0.974902   -0.516478
 C   -4.181789    0.836116   -1.425582
 C   -4.819058    1.987607   -2.179033
 C   -5.290646   -0.023753   -0.771639
 C   -4.748756   -1.198229    0.012871
 C   -4.323943   -1.029742    1.334193
 C   -3.842109   -2.106723    2.069616
 C   -3.760203   -3.368148    1.483922
 C   -4.168140   -3.546573    0.165401
 C   -4.662242   -2.468100   -0.563185
 N    3.204923   -1.770639   -0.116520
 N    0.398327   -0.983225    0.307287
 N    0.338705    3.883186    0.703671
 N    0.465684    6.177794    0.675406
 N    0.501508    4.994981    2.750694
 N   -1.135468    1.512547    0.464535
 N   -3.245991    1.367147   -0.465384
 O    2.156354   -3.515074   -1.111350
 O    1.911834    0.080084    1.596795
 O   -1.510035    0.165878   -1.345390
 O   -5.476239    1.574011   -3.275093
 O   -4.787590    3.142805   -1.826485
 O    4.850615   -4.126506   -1.385517
 H    2.459161    4.139117   -2.198272
 H    4.065678    4.101956   -0.297219
 H    5.239374    2.014342    0.281765
 H    3.121180   -0.044598   -2.842351
 H    1.976526    2.040220   -3.439118
 H    5.479271   -0.332854    0.114484
 H    5.959507   -0.460231   -1.566180
 H    3.964206   -1.878147   -2.052017
 H    6.268367   -2.705453   -1.231110
 H    5.443804   -3.053581    0.299057
 H    1.279908   -2.268568    1.642808
 H   -1.088120   -2.976168    0.841830
 H   -0.319993   -3.496755   -0.656952
 H    1.168832   -5.022643    0.729881
 H   -1.857027   -5.525804    0.776167
 H   -0.757860   -5.871093   -0.567814
 H   -0.607624   -6.767649    0.954583
 H    0.348852   -5.668402    3.002935
 H   -0.880040   -4.394839    2.931335
 H    0.839022   -3.970557    2.994421
 H    0.647552    1.595382   -0.642943
 H    1.998866    2.625863    1.071749
 H    1.112666    1.688303    3.149541
 H   -0.448211    2.490034    2.896286
 H    0.921986    3.853205    4.433264
 H    2.248727    3.888385    3.254633
 H   -3.619749    0.209394   -2.125390
 H   -5.958289   -0.371308   -1.566679
 H   -5.888250    0.618518   -0.112581
 H   -4.364830   -0.040814    1.784080
 H   -3.527759   -1.961521    3.100236
 H   -3.363806   -4.204528    2.056203
 H   -4.115307   -4.528744   -0.299848
 H   -4.993569   -2.621267   -1.588369
 H    3.118401   -1.036556    0.584240
 H   -0.275686   -0.874105   -0.448792
 H    0.433834    4.016995   -0.293282
 H    0.521549    6.990976    1.285442
 H    0.724497    5.876294    3.190493
 H   -1.499238    2.337841    0.922120
 H   -3.470877    2.280837   -0.092391
 H   -5.873410    2.367155   -3.672448
 H    3.876626   -4.140709   -1.326518
