30 
1m2r_ligand_ani.xyz
 C    2.505123   -1.406844    0.005579
 C    1.280399   -0.709894    0.000659
 C    1.280576    0.710646   -0.002018
 C    2.505762    1.406837   -0.004096
 C    3.695506    0.693156   -0.001054
 C    3.695260   -0.693971    0.004239
 C   -0.004211    1.479809   -0.001944
 C   -1.292508    0.708896    0.000454
 C   -1.292303   -0.708398   -0.001780
 C   -0.004158   -1.478952   -0.002410
 C   -2.518285   -1.433115   -0.003617
 C   -3.708375   -0.691300   -0.000032
 C   -3.708633    0.690238    0.004735
 C   -2.518929    1.432829    0.005068
 O   -0.006392   -2.698743   -0.005693
 O   -0.006658    2.699589   -0.003761
 O    2.521627   -2.758554    0.011893
 N   -2.585220   -2.785233   -0.008480
 N   -2.587089    2.784953    0.010164
 O    2.523282    2.758545   -0.009000
 H    4.644409    1.227843   -0.002434
 H    4.643778   -1.229372    0.007230
 H   -4.658823   -1.221555   -0.000825
 H   -4.659358    1.219978    0.008052
 H    3.444826   -3.042014    0.015369
 H   -1.719684   -3.306127   -0.010272
 H   -3.478624   -3.245106   -0.011051
 H   -1.722271    3.307029    0.006920
 H   -3.481089    3.243787    0.014058
 H    3.446777    3.041184   -0.009040
