63 
1m48_ligand_ani.xyz
 N   -4.081815    1.839816    0.099819
 C   -5.257361    1.999252   -0.403012
 N   -5.981942    3.194110   -0.367793
 N   -5.911622    0.958186   -1.012819
 C   -5.183246   -0.214340   -1.480324
 C   -7.360460    0.803699   -0.993266
 C   -7.759892   -0.412059   -0.156948
 C   -7.038085   -1.666772   -0.651415
 C   -5.514389   -1.482506   -0.677629
 C   -4.910984   -1.447468    0.738836
 C   -3.412646   -1.701928    0.699711
 O   -2.951463   -2.823402    0.529317
 N   -2.637810   -0.597529    0.847758
 C   -1.203655   -0.677068    0.830947
 C   -0.652635    0.478028    1.645545
 O   -1.141380    1.585960    1.677146
 O    0.477721    0.139986    2.276116
 C    1.177666    1.228049    2.888773
 C   -0.651830   -0.609458   -0.618626
 C    0.850009   -0.503866   -0.682660
 C    1.476065    0.736608   -0.820276
 C    2.858348    0.846465   -0.786852
 C    1.647688   -1.634806   -0.507246
 C    3.032018   -1.538165   -0.476193
 C    3.657809   -0.292073   -0.611535
 C    5.092824   -0.178594   -0.561127
 C    6.298594   -0.080392   -0.503601
 C    7.730105    0.041494   -0.420159
 C    8.386600    1.128029   -1.013564
 C    9.768515    1.248409   -0.921470
 C    8.485721   -0.921171    0.262668
 C    9.867354   -0.795596    0.351263
 C   10.511014    0.288646   -0.238949
 H   -3.695619    2.697931    0.484493
 H   -5.425640    3.984971   -0.071231
 H   -6.478575    3.400579   -1.226367
 H   -4.118461    0.014510   -1.432125
 H   -5.447297   -0.387615   -2.534942
 H   -7.822060    1.712328   -0.601727
 H   -7.710639    0.662096   -2.026878
 H   -7.512137   -0.222457    0.894851
 H   -8.846671   -0.547465   -0.204838
 H   -7.384786   -1.904481   -1.668115
 H   -7.296693   -2.530557   -0.026050
 H   -5.061898   -2.342440   -1.189039
 H   -5.352977   -2.250285    1.339057
 H   -5.122326   -0.490807    1.226785
 H   -3.065122    0.333110    0.733962
 H   -0.891417   -1.621277    1.288269
 H    0.567139    1.696037    3.664645
 H    2.076531    0.786425    3.318433
 H    1.438157    1.974824    2.132070
 H   -1.002747   -1.513198   -1.130958
 H   -1.116356    0.254263   -1.114164
 H    0.869694    1.633679   -0.937183
 H    3.331631    1.818158   -0.892615
 H    1.177846   -2.609795   -0.382373
 H    3.637028   -2.430245   -0.342340
 H    7.808293    1.877928   -1.546282
 H   10.267816    2.095875   -1.383983
 H    7.984731   -1.767524    0.724475
 H   10.443876   -1.547230    0.884270
 H   11.591086    0.385737   -0.166812
