72 
1m7d_ligand_ani.xyz
 C    3.024322   -0.303998   -0.712382
 C    4.366529   -0.373876   -1.445220
 O    4.635371   -1.701845   -1.878152
 C    5.502609   -0.010847   -0.496634
 O    6.769208   -0.184254   -1.099846
 C    5.411384   -0.860355    0.768154
 O    6.411761   -0.457283    1.678063
 C    4.047778   -0.699572    1.420781
 O    3.028523   -1.060096    0.471701
 C    3.866670   -1.598548    2.627171
 C   -0.589016    1.424176    1.211988
 C    0.884526    1.042254    1.125359
 C    1.360171    1.343892   -0.287530
 O    2.747498    1.056256   -0.476870
 C    1.159758    2.831736   -0.565877
 O    1.481775    3.152164   -1.903304
 C   -0.307590    3.212571   -0.350551
 O   -0.770491    2.795908    0.946588
 C   -0.536101    4.710125   -0.428186
 C   -4.061862   -1.810163   -0.036613
 C   -2.661869   -1.219626   -0.183666
 C   -2.535554    0.084389    0.612467
 C   -3.679239    1.052768    0.278841
 C   -5.011894    0.319432    0.398329
 C   -6.196946    1.157560   -0.062834
 C   -0.422348   -2.251941   -0.382163
 C    0.519837   -3.292704    0.185188
 C   -5.344806   -3.684455   -0.612379
 N   -1.647555   -2.173573    0.211845
 O   -4.169653   -2.932543   -0.834272
 O   -1.284438    0.647697    0.266473
 O   -3.703650    2.143278    1.170957
 O   -5.017067   -0.846255   -0.427491
 O   -7.395104    0.425520    0.050167
 O   -0.086615   -1.530125   -1.312301
 H    2.229195   -0.736164   -1.332886
 H    4.362917    0.323415   -2.294623
 H    3.847979   -2.051047   -2.315379
 H    5.428857    1.044961   -0.216918
 H    6.738353   -1.043094   -1.549012
 H    5.537410   -1.919080    0.484507
 H    7.226848   -0.409972    1.157338
 H    3.922207    0.356938    1.703087
 H    4.632578   -1.390566    3.380241
 H    3.946301   -2.648783    2.325561
 H    2.879201   -1.440354    3.071353
 H   -0.996383    1.247919    2.217023
 H    1.457246    1.625433    1.854807
 H    1.011809   -0.017058    1.364974
 H    0.782106    0.758705   -1.014859
 H    1.788887    3.403536    0.137794
 H    2.385804    2.841641   -2.047735
 H   -0.893101    2.695189   -1.126538
 H   -0.191100    5.098745   -1.390447
 H    0.012689    5.215518    0.373709
 H   -1.600396    4.936399   -0.314773
 H   -4.251241   -2.079168    1.024835
 H   -2.499537   -0.985958   -1.240168
 H   -2.565298   -0.137175    1.692153
 H   -3.552398    1.380521   -0.767111
 H   -5.169025    0.024729    1.450007
 H   -6.288281    2.048656    0.563924
 H   -6.023243    1.487765   -1.101304
 H    0.055054   -3.973104    0.903550
 H    0.934568   -3.873046   -0.642881
 H    1.351274   -2.765327    0.664691
 H   -5.461151   -3.938436    0.451655
 H   -6.241771   -3.148417   -0.944725
 H   -5.241412   -4.605574   -1.189723
 H   -1.876870   -2.845191    0.928329
 H   -2.874939    2.638422    1.065356
 H   -7.227340   -0.410261   -0.407899
