113 
1m7i_ligand_dft.xyz
 C   -5.574977    1.560408   -0.153230
 C   -6.294067    2.794644    0.394050
 O   -7.674621    2.558395    0.271158
 C   -5.867086    4.017635   -0.439243
 O   -6.900062    4.971930   -0.356957
 C   -5.621287    3.594760   -1.883068
 O   -5.395596    4.782151   -2.624152
 C   -4.407392    2.645319   -1.920820
 O   -4.321014    1.903055   -0.701213
 C   -4.391516    1.709274   -3.121629
 C   -3.494616   -0.809303    0.379649
 C   -5.019159   -0.656650    0.449000
 O   -5.374630    0.650426    0.873393
 C   -5.630590   -1.622019    1.458312
 O   -7.005876   -1.375480    1.646572
 C   -4.876883   -1.559825    2.785696
 O   -5.380602   -2.527717    3.674130
 C   -3.395236   -1.836806    2.545486
 O   -2.882255   -0.861626    1.633639
 C   -2.560157   -1.755646    3.805978
 C    0.203721   -3.400123   -0.451394
 C   -1.209396   -3.182923    0.089616
 O   -1.907902   -4.402415    0.052823
 C   -1.889159   -2.123846   -0.772235
 O   -3.253827   -1.967460   -0.391118
 C   -1.857014   -2.528204   -2.240119
 O   -2.433994   -1.522199   -3.046093
 C   -0.403787   -2.726699   -2.674883
 O    0.206638   -3.709055   -1.824831
 C   -0.267817   -3.227603   -4.097072
 C    4.099418   -0.827783    0.989012
 C    2.619850   -0.844938    0.577364
 C    2.275012   -2.220799    0.019483
 C    3.070998   -2.438689   -1.267629
 C    4.564448   -2.116316   -1.036695
 C    5.090170   -1.074677   -2.024195
 C    1.286353    0.776601    1.866544
 C    0.087185    0.887913    2.785222
 N    1.737832   -0.498015    1.675273
 O    0.871175   -2.203165   -0.179776
 O    2.994428   -3.766703   -1.731671
 O    4.860751   -1.800234    0.331697
 O    4.364023    0.131767   -2.016037
 O    1.806138    1.747618    1.332529
 C    6.953871    0.622057    0.720331
 O    8.017085    1.061165    1.509796
 C    9.283316    0.724499    0.982180
 O    4.542473    0.480887    0.763528
 C    5.668648    0.957810    1.483070
 C    5.491066    2.470489    1.559935
 O    4.303878    2.854628    2.207633
 C    5.551620    3.068659    0.152236
 O    5.542964    4.475964    0.228385
 C    6.817423    2.629457   -0.586177
 O    6.936151    1.199927   -0.558483
 C    6.803234    3.027431   -2.048386
 H   -6.218645    1.107968   -0.927835
 H   -6.007177    2.942478    1.443920
 H   -8.083309    3.435617    0.202449
 H   -4.930848    4.425814   -0.033967
 H   -6.767667    5.573252   -1.104447
 H   -6.528017    3.090508   -2.250247
 H   -5.563314    4.607450   -3.556770
 H   -3.515025    3.278596   -1.930161
 H   -5.270589    1.053531   -3.121502
 H   -3.490036    1.089328   -3.109170
 H   -4.395918    2.278744   -4.057947
 H   -3.060238    0.064688   -0.110353
 H   -5.437375   -0.844553   -0.548261
 H   -5.545446   -2.642462    1.068428
 H   -7.102651   -0.411217    1.691001
 H   -4.974083   -0.544749    3.204963
 H   -6.344499   -2.461038    3.616327
 H   -3.298588   -2.840486    2.105508
 H   -2.928728   -2.475922    4.539771
 H   -2.619429   -0.750153    4.235004
 H   -1.511162   -1.978124    3.585078
 H    0.686808   -4.255474    0.033017
 H   -1.116067   -2.809605    1.118680
 H   -2.844965   -4.181550    0.147193
 H   -1.363281   -1.169379   -0.656251
 H   -2.387936   -3.483536   -2.360996
 H   -3.330131   -1.394948   -2.708187
 H    0.123497   -1.770544   -2.559898
 H   -0.767204   -4.194929   -4.209476
 H   -0.720274   -2.511068   -4.786412
 H    0.788689   -3.348272   -4.354713
 H    4.200415   -1.065926    2.054737
 H    2.491778   -0.100795   -0.216667
 H    2.532532   -3.016296    0.735948
 H    2.664893   -1.735404   -2.010230
 H    5.108347   -3.049688   -1.203285
 H    4.989307   -1.501801   -3.028437
 H    6.155760   -0.895210   -1.833127
 H   -0.099599    1.941040    2.994553
 H    0.261951    0.356342    3.726610
 H   -0.799759    0.450286    2.311166
 H    1.124290   -1.236168    1.990456
 H    2.082458   -3.914572   -2.036575
 H    4.634110    0.601337   -1.210617
 H    7.021383   -0.457638    0.534687
 H    9.455674    1.208300    0.013986
 H   10.026046    1.071031    1.702511
 H    9.380328   -0.363280    0.854727
 H    5.694488    0.515032    2.486092
 H    6.316841    2.886762    2.144953
 H    3.553205    2.410960    1.766510
 H    4.673389    2.712905   -0.412428
 H    4.863941    4.686522    0.886179
 H    7.679363    3.075312   -0.072031
 H    7.744395    2.748799   -2.531251
 H    5.983596    2.511683   -2.560144
 H    6.659886    4.107110   -2.137931
