113 
1m7i_ligand_xtb.xyz
 C   -5.917458    1.459803   -0.201417
 C   -6.622800    2.705219    0.366332
 O   -7.993887    2.580174    0.111276
 C   -6.058656    3.965432   -0.309253
 O   -6.965861    5.013166   -0.087089
 C   -5.891676    3.679454   -1.807832
 O   -5.538839    4.896246   -2.426980
 C   -4.808269    2.596289   -1.984471
 O   -4.696230    1.781508   -0.822747
 C   -5.029998    1.755104   -3.242735
 C   -3.705994   -0.794287    0.383397
 C   -5.241781   -0.708553    0.479673
 O   -5.675187    0.588616    0.850860
 C   -5.782475   -1.680708    1.534853
 O   -7.160187   -1.510380    1.734189
 C   -5.009849   -1.486661    2.848624
 O   -5.461913   -2.395159    3.818417
 C   -3.519596   -1.723618    2.583854
 O   -3.045801   -0.800818    1.604774
 C   -2.689322   -1.523759    3.842089
 C    0.134354   -3.158171   -0.515946
 C   -1.275525   -2.977699    0.070656
 O   -1.893089   -4.229755    0.167421
 C   -2.068108   -2.029451   -0.833129
 O   -3.424214   -1.932277   -0.401614
 C   -2.058446   -2.563713   -2.271151
 O   -2.747526   -1.689514   -3.128046
 C   -0.600363   -2.687499   -2.734219
 O    0.111219   -3.555289   -1.853522
 C   -0.499704   -3.273196   -4.132810
 C    4.092713   -0.645338    0.829971
 C    2.593401   -0.631014    0.465219
 C    2.212118   -1.981927   -0.150855
 C    3.000115   -2.177285   -1.457716
 C    4.498538   -1.913639   -1.190658
 C    5.054479   -0.838553   -2.145559
 C    1.882094    0.570945    2.540238
 C    0.724188    0.637834    3.511149
 N    1.742105   -0.403926    1.614423
 O    0.799962   -1.939106   -0.330986
 O    2.898213   -3.478999   -1.967119
 O    4.781509   -1.675115    0.185906
 O    4.281119    0.331162   -2.189701
 O    2.856046    1.292414    2.618525
 C    7.041704    0.397443    0.787966
 O    8.047878    0.700564    1.711304
 C    9.257290    0.005742    1.473164
 O    4.613456    0.625739    0.553368
 C    5.738908    1.026654    1.317247
 C    5.854902    2.548288    1.232723
 O    4.694598    3.227073    1.640193
 C    6.198632    2.959121   -0.209909
 O    6.412116    4.346751   -0.277347
 C    7.470668    2.236078   -0.667792
 O    7.338254    0.824706   -0.507942
 C    7.755978    2.500741   -2.137673
 H   -6.600457    0.985710   -0.934420
 H   -6.432923    2.751379    1.448062
 H   -8.370275    3.468528    0.208328
 H   -5.073625    4.208168    0.113351
 H   -6.728153    5.724189   -0.695870
 H   -6.857821    3.323922   -2.200083
 H   -5.408429    4.750617   -3.369413
 H   -3.834990    3.098625   -2.046186
 H   -5.981049    1.229663   -3.191978
 H   -4.229572    1.026693   -3.344844
 H   -5.032260    2.392953   -4.123142
 H   -3.336466    0.111690   -0.119655
 H   -5.653792   -0.967406   -0.505635
 H   -5.646798   -2.711677    1.188332
 H   -7.333135   -0.558589    1.770027
 H   -5.153545   -0.448092    3.189036
 H   -6.421146   -2.466487    3.714951
 H   -3.401853   -2.755469    2.219806
 H   -3.104005   -2.140455    4.632882
 H   -2.726134   -0.479669    4.138916
 H   -1.656185   -1.806344    3.662411
 H    0.640385   -3.978879    0.012739
 H   -1.171418   -2.521948    1.068337
 H   -2.848030   -4.078882    0.199166
 H   -1.600948   -1.037301   -0.811713
 H   -2.522515   -3.562060   -2.281945
 H   -3.606033   -1.518620   -2.721172
 H   -0.149490   -1.685140   -2.706594
 H   -0.870878   -4.294045   -4.126631
 H   -1.097998   -2.672302   -4.810035
 H    0.534949   -3.276981   -4.462859
 H    4.213958   -0.868468    1.901423
 H    2.431758    0.154953   -0.286338
 H    2.466908   -2.797805    0.542231
 H    2.624702   -1.441297   -2.186354
 H    5.028031   -2.851104   -1.389197
 H    5.039309   -1.253052   -3.156433
 H    6.087966   -0.612736   -1.859671
 H    0.843024    1.511018    4.146172
 H    0.718674   -0.253391    4.134879
 H   -0.221504    0.697235    2.977882
 H    0.847243   -0.866208    1.535340
 H    1.962852   -3.680904   -2.145181
 H    4.407090    0.786349   -1.341756
 H    6.916399   -0.694688    0.694914
 H    9.642033    0.216455    0.471731
 H    9.960528    0.358953    2.223759
 H    9.107539   -1.074417    1.578546
 H    5.598994    0.721918    2.363172
 H    6.689731    2.851650    1.884451
 H    4.026252    2.581441    1.920735
 H    5.358452    2.677143   -0.864184
 H    5.734324    4.750430    0.281366
 H    8.301986    2.599085   -0.046187
 H    8.691372    2.031649   -2.429282
 H    6.951833    2.090452   -2.742568
 H    7.816949    3.572916   -2.293879
