113 
1m7i_ligand_ani.xyz
 C   -5.912190    1.529681   -0.140708
 C   -6.591051    2.780720    0.426773
 O   -7.981569    2.591887    0.271572
 C   -6.136892    4.013731   -0.357673
 O   -7.119441    5.020124   -0.208180
 C   -5.983293    3.624824   -1.822352
 O   -5.728120    4.825929   -2.536892
 C   -4.841128    2.611179   -1.979739
 O   -4.694159    1.843881   -0.779280
 C   -5.013054    1.695540   -3.185515
 C   -3.724812   -0.778237    0.359534
 C   -5.252605   -0.666146    0.462023
 O   -5.642716    0.631864    0.898421
 C   -5.799249   -1.671118    1.474989
 O   -7.185466   -1.508871    1.701586
 C   -5.030884   -1.566778    2.789845
 O   -5.496378   -2.550317    3.685677
 C   -3.547846   -1.793151    2.533653
 O   -3.077817   -0.807339    1.600734
 C   -2.697454   -1.652360    3.781405
 C    0.117633   -3.122277   -0.429779
 C   -1.292003   -2.894988    0.112643
 O   -1.916246   -4.155296    0.239718
 C   -2.076413   -1.999418   -0.843280
 O   -3.438584   -1.921425   -0.418390
 C   -2.047133   -2.578616   -2.254799
 O   -2.682688   -1.696608   -3.160326
 C   -0.599826   -2.753797   -2.696097
 O    0.081948   -3.609770   -1.754941
 C   -0.456701   -3.400806   -4.059974
 C    4.131284   -0.665460    0.870055
 C    2.640377   -0.649874    0.525388
 C    2.233522   -1.972243   -0.129176
 C    3.010263   -2.097605   -1.446198
 C    4.518834   -1.991185   -1.159146
 C    5.222299   -1.057912   -2.152605
 C    2.012991    0.522324    2.666104
 C    0.823495    0.734970    3.579913
 N    1.808264   -0.409026    1.696066
 O    0.820029   -1.902454   -0.345010
 O    2.807864   -3.311194   -2.124898
 O    4.826717   -1.683792    0.211146
 O    4.671464    0.240533   -2.198603
 O    3.077066    1.115388    2.830255
 C    7.067987    0.445518    0.814560
 O    8.092942    0.888643    1.651635
 C    9.356616    0.339055    1.320010
 O    4.661604    0.613424    0.561584
 C    5.769990    1.050264    1.353016
 C    5.840034    2.571481    1.240296
 O    4.650565    3.225817    1.625583
 C    6.114575    2.965810   -0.205772
 O    6.357935    4.353061   -0.289461
 C    7.333026    2.243234   -0.775772
 O    7.255623    0.826148   -0.529924
 C    7.442498    2.399589   -2.281183
 H   -6.609733    1.060950   -0.859729
 H   -6.318498    2.895699    1.487323
 H   -8.360115    3.484986    0.268139
 H   -5.168069    4.363109    0.026385
 H   -7.005169    5.614298   -0.966899
 H   -6.936594    3.179039   -2.154876
 H   -5.896517    4.669756   -3.473574
 H   -3.902948    3.172481   -2.071088
 H   -5.920594    1.088433   -3.091365
 H   -4.157835    1.019281   -3.274649
 H   -5.082228    2.283855   -4.107346
 H   -3.318488    0.094128   -0.153188
 H   -5.698210   -0.870846   -0.519303
 H   -5.672605   -2.686109    1.081721
 H   -7.332018   -0.563088    1.852638
 H   -5.164958   -0.554031    3.206136
 H   -6.462602   -2.497824    3.646557
 H   -3.426793   -2.801879    2.105921
 H   -3.042957   -2.333988    4.563853
 H   -2.754264   -0.623852    4.152846
 H   -1.651517   -1.877719    3.548883
 H    0.621897   -3.892586    0.166820
 H   -1.219791   -2.398043    1.089859
 H   -2.867028   -3.975470    0.251809
 H   -1.635342   -0.994469   -0.868973
 H   -2.533314   -3.565527   -2.246524
 H   -3.595408   -1.619101   -2.852543
 H   -0.114679   -1.765543   -2.686507
 H   -0.891577   -4.405499   -4.050652
 H   -0.963715   -2.804527   -4.823478
 H    0.604408   -3.482882   -4.320195
 H    4.270408   -0.854865    1.936768
 H    2.486174    0.147152   -0.218551
 H    2.461785   -2.821733    0.531051
 H    2.709152   -1.242999   -2.077410
 H    4.938107   -2.993754   -1.280669
 H    5.114728   -1.487283   -3.156529
 H    6.290047   -1.014986   -1.904148
 H    0.985639    1.635926    4.171569
 H    0.716981   -0.117608    4.260362
 H   -0.109648    0.826952    3.012925
 H    0.862021   -0.742958    1.585183
 H    1.850470   -3.477356   -2.185951
 H    4.783977    0.591174   -1.297178
 H    7.040520   -0.649025    0.820970
 H    9.667846    0.636880    0.310793
 H   10.071141    0.719102    2.052812
 H    9.336707   -0.759923    1.374108
 H    5.605755    0.764587    2.402469
 H    6.680803    2.919292    1.859510
 H    4.096644    2.601344    2.123564
 H    5.226072    2.701047   -0.800381
 H    5.591090    4.781711    0.116957
 H    8.222016    2.657435   -0.276397
 H    8.344463    1.902217   -2.647078
 H    6.569676    1.936708   -2.758584
 H    7.484906    3.458368   -2.555300
