64 
1me3_ligand_xtb.xyz
 C    0.944143    3.874528   -0.625815
 C    1.539037    4.788148    0.417888
 O    1.433760    6.131041    0.049911
 O    0.301463    4.319883   -1.545221
 C    1.186367    2.382384   -0.425551
 C    2.233381    1.898265   -1.432500
 C    2.503506    0.391100   -1.317403
 C    2.981817    0.013365    0.054825
 C    2.084630   -0.393827    1.034057
 C    2.524179   -0.718801    2.304857
 C    3.871098   -0.642278    2.614024
 C    4.774370   -0.238920    1.645598
 C    4.330857    0.088457    0.376920
 N   -0.062749    1.675059   -0.607102
 C   -1.008155    1.707775    0.342507
 O   -0.915451    2.355051    1.365371
 C   -2.214052    0.800419    0.016822
 C   -3.420281    1.173464    0.879748
 C   -4.575381    0.251450    0.613206
 C   -4.872315   -0.791852    1.480299
 C   -5.912598   -1.663302    1.206429
 C   -6.667894   -1.502318    0.058311
 C   -6.381291   -0.463476   -0.811708
 C   -5.341732    0.405654   -0.535856
 N   -1.838298   -0.582875    0.257075
 C   -1.149007   -1.319223   -0.631418
 O   -0.685685   -0.896413   -1.669224
 O   -1.035139   -2.595751   -0.207740
 C   -0.281585   -3.470783   -1.050536
 C    1.195737   -3.365582   -0.783064
 C    1.715770   -3.670138    0.470215
 C    3.078754   -3.555004    0.678965
 C    3.871195   -3.133761   -0.378352
 N    3.387623   -2.835109   -1.570854
 C    2.085908   -2.944455   -1.764302
 H    2.592949    4.538275    0.586473
 H    0.988158    4.593798    1.353092
 H    0.809532    6.167512   -0.693840
 H    1.535372    2.212499    0.600878
 H    1.880821    2.128137   -2.439939
 H    3.158810    2.450812   -1.258315
 H    1.596242   -0.164771   -1.555076
 H    3.262202    0.120199   -2.053397
 H    1.032520   -0.463991    0.797984
 H    1.813141   -1.032239    3.055352
 H    4.215644   -0.897169    3.605436
 H    5.827302   -0.179668    1.880010
 H    5.039210    0.398256   -0.377927
 H   -0.179832    1.076369   -1.415227
 H   -2.452040    0.901366   -1.049057
 H   -3.690042    2.204920    0.648041
 H   -3.119013    1.135621    1.928029
 H   -4.296795   -0.915702    2.387926
 H   -6.134082   -2.468286    1.891894
 H   -7.480118   -2.180787   -0.156069
 H   -6.971088   -0.329929   -1.706609
 H   -5.123357    1.217444   -1.214949
 H   -2.187129   -1.035424    1.087102
 H   -0.494621   -3.234121   -2.097719
 H   -0.648560   -4.472294   -0.810925
 H    1.055901   -3.990004    1.264124
 H    3.516113   -3.784092    1.637764
 H    4.942019   -3.029170   -0.268008
 H    1.734374   -2.685312   -2.754646
