62 
1me4_ligand_ani.xyz
 O    6.800730   -1.826174    0.092653
 C    6.164338   -0.620104   -0.191971
 C    4.675200   -0.828043   -0.414864
 O    4.225592   -1.955081   -0.339844
 C    3.782500    0.357540   -0.750334
 C    3.597408    1.327214    0.452188
 C    2.606855    0.842937    1.486287
 C    1.282998    1.287824    1.415838
 C    0.307885    0.795460    2.272324
 C    0.649418   -0.144437    3.244830
 C    1.970114   -0.566799    3.352194
 C    2.941774   -0.072526    2.483781
 N    2.532629   -0.162221   -1.238704
 C    1.614342    0.634498   -1.832993
 O    1.858855    1.786037   -2.173587
 C    0.257491   -0.042953   -2.074769
 C   -0.852026    0.973308   -2.413414
 C   -1.332908    1.817740   -1.255842
 C   -2.368031    1.375417   -0.425941
 C   -2.819900    2.159324    0.629899
 C   -2.260062    3.413350    0.862146
 C   -1.235653    3.868157    0.037042
 C   -0.770358    3.074146   -1.007700
 N   -0.057660   -0.927743   -0.964861
 C   -1.125664   -1.775298   -1.087765
 O   -1.683025   -2.062977   -2.128590
 O   -1.470570   -2.255848    0.126717
 C   -2.732131   -2.950201    0.161613
 C   -3.881116   -1.974404    0.287723
 C   -4.717807   -1.694730   -0.792744
 C   -5.770157   -0.791875   -0.657998
 C   -5.989722   -0.151835    0.558132
 C   -5.142616   -0.406887    1.635055
 C   -4.087699   -1.302743    1.493821
 H    6.109701   -2.506258    0.028794
 H    6.307948    0.096973    0.630826
 H    6.584661   -0.148984   -1.094170
 H    4.262516    0.935292   -1.551373
 H    4.580678    1.521609    0.897590
 H    3.236667    2.270558    0.036264
 H    1.009086    2.022521    0.661028
 H   -0.720363    1.133097    2.149693
 H   -0.106642   -0.541974    3.917327
 H    2.247974   -1.288980    4.115885
 H    3.973514   -0.402922    2.596392
 H    2.262446   -1.082820   -0.917848
 H    0.378882   -0.687681   -2.955730
 H   -1.688597    0.396857   -2.820007
 H   -0.471003    1.616233   -3.212522
 H   -2.858615    0.417446   -0.607898
 H   -3.616716    1.776682    1.260840
 H   -2.615445    4.034342    1.680204
 H   -0.797224    4.848883    0.207537
 H    0.053123    3.420505   -1.627318
 H    0.069326   -0.557423   -0.026779
 H   -2.658957   -3.587427    1.046759
 H   -2.825904   -3.566727   -0.734932
 H   -4.535823   -2.179872   -1.750011
 H   -6.421996   -0.589969   -1.503714
 H   -6.814838    0.546776    0.669298
 H   -5.295476    0.104356    2.583770
 H   -3.413180   -1.483481    2.327028
