80 
1meu_ligand_ani.xyz
 C   -0.376495    0.513430   -1.057509
 C    0.752527   -0.635864    0.830905
 C    0.414957    0.205786    2.060868
 C   -0.983514    0.818369    2.073370
 C   -1.251415    1.800710    0.934218
 C    1.917845   -0.091894   -1.296252
 C    3.280900   -0.007253   -0.654873
 C    4.158988   -1.094062   -0.667912
 C    5.417338   -1.002048   -0.082863
 C    5.827430    0.183092    0.530271
 C    4.954739    1.269762    0.540982
 C    3.694902    1.174857   -0.041289
 C    7.192775    0.271187    1.179669
 C   -0.121961   -1.906814    0.691506
 C    0.505214   -2.938698   -0.220469
 C    1.589498   -3.701389    0.226088
 C    2.190918   -4.644449   -0.601168
 C    1.730940   -4.825026   -1.903211
 C    0.668681   -4.055760   -2.369431
 C    0.061980   -3.120699   -1.533301
 C   -0.269967    2.988721    0.889395
 C   -0.739850    4.080681   -0.046179
 C   -1.762955    4.947359    0.345834
 C   -2.223191    5.941204   -0.512218
 C   -1.673058    6.072557   -1.784508
 C   -0.663652    5.206506   -2.192287
 C   -0.202516    4.217994   -1.327189
 C   -2.701623    1.165236   -0.998893
 C   -3.533999   -0.033524   -0.603949
 C   -4.410100    0.002525    0.483410
 C   -5.112978   -1.132834    0.870725
 C   -4.949168   -2.338348    0.188434
 C   -4.074980   -2.378871   -0.898742
 C   -3.377695   -1.240903   -1.289038
 C   -5.695335   -3.577089    0.635909
 N    0.811751    0.209509   -0.374378
 N   -1.388803    1.140121   -0.358750
 O   -0.509813    0.238241   -2.245555
 O    0.493515   -0.578746    3.253944
 O   -1.167841    1.517710    3.289101
 O    8.172880   -0.516058    0.530875
 O   -6.948314   -3.293703    1.227561
 H    1.777562   -0.979398    1.001043
 H    1.151101    1.021239    2.119930
 H   -1.727056    0.007538    1.983858
 H   -2.241803    2.207152    1.158600
 H    1.784825   -1.076643   -1.762390
 H    1.843983    0.642181   -2.103684
 H    3.845229   -2.027397   -1.134386
 H    6.100914   -1.847659   -0.095524
 H    5.267680    2.201813    1.007229
 H    3.036007    2.042077   -0.037850
 H    7.152047   -0.114482    2.205104
 H    7.505457    1.325339    1.250293
 H   -1.123724   -1.645158    0.333317
 H   -0.239006   -2.319264    1.700024
 H    1.962898   -3.560444    1.239403
 H    3.023630   -5.238156   -0.228269
 H    2.200578   -5.560861   -2.550912
 H    0.309219   -4.185428   -3.386337
 H   -0.742399   -2.497173   -1.917017
 H    0.714638    2.632923    0.575548
 H   -0.172052    3.374103    1.911410
 H   -2.201601    4.840919    1.337866
 H   -3.014911    6.612620   -0.187707
 H   -2.032442    6.848448   -2.456008
 H   -0.231556    5.303728   -3.185636
 H    0.583075    3.535488   -1.649649
 H   -3.197547    2.100562   -0.720128
 H   -2.532684    1.181485   -2.078844
 H   -4.553247    0.930013    1.038587
 H   -5.802654   -1.095919    1.710061
 H   -3.944866   -3.309812   -1.445956
 H   -2.689189   -1.287635   -2.131890
 H   -5.797993   -4.276501   -0.209492
 H   -5.127048   -4.103615    1.411918
 H    1.423768   -0.770441    3.423428
 H   -0.785327    0.942041    3.968631
 H    8.280372   -0.165336   -0.362684
 H   -7.501001   -2.882042    0.550785
