69 
1mmq_ligand_ani.xyz
 C    5.343865    1.556872   -0.062177
 O    6.422251    1.293676    0.470754
 N    4.591479    2.577593    0.405043
 O    4.993016    3.133808    1.609879
 C    4.767562    0.825684   -1.260121
 C    3.736869   -0.275694   -0.921313
 C    2.330232    0.286302   -0.693377
 O    2.086874    1.466511   -0.436656
 N    1.324190   -0.615306   -0.795937
 C   -0.046687   -0.258943   -0.517932
 C   -0.750820   -1.524971   -0.007192
 O   -0.330537   -2.634847   -0.299914
 N   -1.832150   -1.330087    0.798842
 C   -2.309116   -2.390673    1.676949
 C   -3.782525   -2.243054    2.072013
 C   -4.797484   -2.875396    1.105758
 C   -5.021078   -2.120111   -0.206482
 C   -5.841754   -0.835976   -0.041238
 C   -5.702056    0.147707   -1.210038
 N   -4.395296    0.775192   -1.271591
 C    4.139334   -1.170144    0.268427
 C    5.473341   -1.915842    0.128122
 C    5.762312   -2.680391    1.421727
 C    5.495563   -2.875656   -1.063785
 C   -0.736488    0.354711   -1.761188
 C   -2.134410    0.797522   -1.469196
 C   -3.298720    0.249859   -1.925891
 C   -2.521140    1.754329   -0.463245
 C   -3.929380    1.694435   -0.347573
 C   -1.805534    2.626628    0.374790
 C   -4.630729    2.460194    0.588962
 C   -2.498237    3.389558    1.294587
 C   -3.897745    3.305241    1.404654
 H    3.579442    2.533422    0.308745
 H    5.830244    2.650836    1.771495
 H    4.317535    1.547086   -1.949269
 H    5.619473    0.368618   -1.771457
 H    3.644510   -0.910836   -1.814357
 H    1.495607   -1.603770   -0.928044
 H   -0.055983    0.500799    0.270294
 H   -2.124161   -0.377450    0.976471
 H   -2.134663   -3.332601    1.146410
 H   -1.687317   -2.432516    2.583764
 H   -4.009920   -1.178301    2.232250
 H   -3.908489   -2.725671    3.049290
 H   -5.759034   -2.985205    1.626591
 H   -4.461411   -3.897207    0.881065
 H   -5.535469   -2.779459   -0.918924
 H   -4.045553   -1.894529   -0.652894
 H   -5.545296   -0.309564    0.875760
 H   -6.901434   -1.090970    0.085453
 H   -5.862441   -0.355040   -2.170768
 H   -6.450970    0.942082   -1.135769
 H    4.178188   -0.549624    1.173864
 H    3.343367   -1.909556    0.440334
 H    6.266578   -1.168291    0.000028
 H    6.732412   -3.188059    1.372837
 H    4.994734   -3.444700    1.601211
 H    5.776607   -2.009287    2.288210
 H    4.701966   -3.629877   -0.970225
 H    6.452988   -3.406985   -1.113091
 H    5.357781   -2.362057   -2.021631
 H   -0.710438   -0.374439   -2.578941
 H   -0.119937    1.208716   -2.062620
 H   -3.444206   -0.515134   -2.682486
 H   -0.721040    2.697042    0.290925
 H   -5.712004    2.387593    0.683750
 H   -1.951767    4.062663    1.949326
 H   -4.411334    3.914208    2.143945
