39 
1ms0_ligand_xtb.xyz
 C    3.627787   -1.323331   -0.131994
 C    2.399407   -0.503607   -0.491950
 C    2.608511    0.960751   -0.104263
 C    1.345312    1.784123   -0.391950
 C    0.125528    1.098326    0.259723
 C    0.094888   -0.399164   -0.092892
 C   -1.035201   -1.144829    0.669692
 C   -2.008522   -1.783784   -0.340532
 C   -3.155305   -2.489606    0.382864
 C   -1.629900    2.847335    0.195759
 C   -3.047419    3.100284   -0.257785
 N   -1.134462    1.658829   -0.203418
 O    4.669435   -0.977485   -0.894915
 O    3.683468   -2.163221    0.717832
 O    1.573518    3.073799    0.098253
 O    1.304673   -1.053284    0.200414
 O   -0.550217   -2.110501    1.554341
 O   -2.514640   -0.765152   -1.179623
 O   -4.047697   -2.955989   -0.611916
 O   -0.986956    3.645628    0.855177
 H    2.237323   -0.577663   -1.580860
 H    3.448236    1.385470   -0.651511
 H    2.818413    1.026417    0.964885
 H    1.170773    1.821344   -1.483959
 H    0.209417    1.229747    1.347729
 H   -0.095507   -0.470435   -1.177420
 H   -1.610960   -0.417409    1.260192
 H   -1.469199   -2.528833   -0.944831
 H   -2.747182   -3.306961    0.983666
 H   -3.661354   -1.774766    1.046022
 H   -3.725552    2.458461    0.300724
 H   -3.153175    2.879280   -1.316413
 H   -3.305886    4.138137   -0.069708
 H   -1.735347    1.026097   -0.717424
 H    5.457279   -1.486301   -0.642535
 H    0.736686    3.445141    0.445380
 H    0.389187   -2.250941    1.361713
 H   -3.301955   -1.137524   -1.600916
 H   -4.723169   -3.500412   -0.197348
