39 
1ms0_ligand_dft.xyz
 C    3.671120   -1.256326   -0.060457
 C    2.459695   -0.448482   -0.485611
 C    2.603991    1.035732   -0.157825
 C    1.314517    1.791604   -0.488553
 C    0.117362    1.093032    0.180265
 C    0.124225   -0.409188   -0.151597
 C   -0.974562   -1.209586    0.615837
 C   -2.001222   -1.791030   -0.356456
 C   -3.104187   -2.548061    0.364717
 C   -1.693596    2.768791    0.265528
 C   -3.158492    2.998094   -0.039684
 N   -1.170205    1.628570   -0.244275
 O    4.757891   -0.877034   -0.756347
 O    3.683582   -2.114967    0.782025
 O    1.488254    3.119737   -0.081600
 O    1.356443   -0.994304    0.195021
 O   -0.445768   -2.265947    1.373007
 O   -2.577646   -0.723098   -1.094944
 O   -4.064828   -2.863822   -0.634771
 O   -1.038594    3.556665    0.945515
 H    2.329797   -0.579707   -1.572845
 H    3.437643    1.475943   -0.710690
 H    2.808657    1.152035    0.912436
 H    1.142961    1.743895   -1.579738
 H    0.217499    1.215196    1.268019
 H   -0.031427   -0.521848   -1.237887
 H   -1.501829   -0.514713    1.287626
 H   -1.482981   -2.482850   -1.037841
 H   -2.691479   -3.444300    0.839532
 H   -3.540568   -1.900622    1.140036
 H   -3.771730    2.395090    0.638524
 H   -3.407145    2.710567   -1.065496
 H   -3.392756    4.051264    0.115595
 H   -1.797727    0.990060   -0.728465
 H    5.498187   -1.411807   -0.427562
 H    0.669749    3.427186    0.354409
 H    0.518805   -2.247690    1.264141
 H   -3.391883   -1.079730   -1.480937
 H   -4.850122   -3.223277   -0.209155
