20 
1ms7_ligand_dft.xyz
 O   72.810978   43.794170   42.968208
 N   73.994050   43.524416   42.298732
 C   72.589280   45.110531   42.972109
 C   73.578108   45.772269   42.321401
 C   74.437819   44.697511   41.928303
 O   75.603468   44.778681   41.262406
 C   73.796589   47.238683   42.132320
 C   74.681819   47.818582   43.257284
 N   74.017406   47.667412   44.536105
 C   74.988423   49.288780   43.030530
 O   74.917928   50.149479   43.872986
 O   75.401720   49.531579   41.773498
 H   71.694227   45.446053   43.475616
 H   75.721422   45.682239   40.946383
 H   74.254806   47.439639   41.156553
 H   72.837553   47.764225   42.150740
 H   75.664216   47.312605   43.204444
 H   74.345350   48.377840   45.182888
 H   74.208031   46.753449   44.930092
 H   75.604808   50.479857   41.728402
