50 
1mu6_ligand_ani.xyz
 N    5.329937   -0.287999   -0.341262
 C    4.381372   -0.975311    0.289049
 C    3.822324   -0.589368    1.506064
 C    4.284087    0.580799    2.097180
 C    5.274732    1.309734    1.450621
 C    5.762479    0.832061    0.238255
 C    3.885193   -2.224288   -0.419503
 C    2.878599   -1.970795   -1.543650
 F    3.275124   -3.051720    0.495305
 F    4.939280   -2.902893   -0.935054
 N    1.642790   -1.408112   -1.048977
 C    1.444399   -0.064084   -0.942439
 C    0.415229    0.317646    0.056174
 N    0.200717    1.676116    0.191155
 C    0.853119    2.584383   -0.638498
 C    1.774005    2.108869   -1.526928
 N    2.090876    0.795077   -1.683230
 O   -0.209215   -0.505589    0.720588
 C    0.517040    4.034115   -0.495094
 C   -0.841079    2.080381    1.146572
 C   -2.222522    2.122872    0.481637
 N   -2.912534    0.961346    0.463663
 O   -2.665478    3.150770   -0.021578
 C   -4.212974    0.907456   -0.158452
 C   -4.860649   -0.435045    0.098933
 C   -6.153881   -0.677123   -0.359901
 C   -6.773169   -1.889563   -0.150274
 C   -6.050742   -2.861523    0.538356
 N   -4.179231   -1.374823    0.751274
 F   -6.792517    0.308749   -1.022146
 C   -4.765912   -2.556804    0.965376
 H    3.055528   -1.200879    1.972796
 H    3.883105    0.914850    3.050995
 H    5.668536    2.229844    1.872859
 H    6.538258    1.372357   -0.300308
 H    2.675718   -2.939371   -2.011963
 H    3.316034   -1.300889   -2.288317
 H    1.151126   -1.936617   -0.336637
 H    2.311395    2.802599   -2.166705
 H    0.844818    4.426836    0.475294
 H    1.029054    4.604512   -1.272712
 H   -0.562806    4.198906   -0.580036
 H   -0.610275    3.073721    1.531906
 H   -0.816441    1.368010    1.971128
 H   -2.544297    0.083713    0.811760
 H   -4.136635    1.084472   -1.240000
 H   -4.846224    1.719547    0.219040
 H   -7.781508   -2.057923   -0.516214
 H   -6.479755   -3.837660    0.737111
 H   -4.172838   -3.292421    1.505748
