50 
1mu6_ligand_dft.xyz
 N    4.330165   -0.238997   -1.120881
 C    3.942417   -0.384498    0.145027
 C    3.630330    0.677778    0.988532
 C    3.708062    1.966269    0.471991
 C    4.107302    2.135321   -0.847796
 C    4.416606    1.001782   -1.595443
 C    3.706497   -1.816572    0.584491
 C    2.364772   -2.364219    0.090365
 F    3.709646   -1.876741    1.956616
 F    4.697451   -2.630052    0.146138
 N    1.263272   -1.585491    0.597312
 C    0.821445   -0.466739   -0.050770
 C    0.123635    0.488033    0.825163
 N   -0.297663    1.635315    0.210076
 C   -0.147026    1.829680   -1.163852
 C    0.497351    0.867792   -1.867765
 N    0.991152   -0.288133   -1.325232
 O   -0.048793    0.266447    2.031425
 C   -0.680072    3.084754   -1.784951
 C   -1.085637    2.556079    1.033752
 C   -2.559624    2.138782    0.960242
 N   -2.860945    1.050057    1.719656
 O   -3.356771    2.719360    0.241810
 C   -4.012715    0.254172    1.377255
 C   -3.734152   -0.705391    0.229379
 C   -4.753571   -1.518404   -0.261618
 C   -4.530498   -2.395167   -1.304296
 C   -3.246777   -2.435010   -1.841480
 N   -2.511542   -0.757752   -0.293839
 F   -5.970056   -1.434700    0.301799
 C   -2.274736   -1.601077   -1.303456
 H    3.308757    0.495942    2.007008
 H    3.457798    2.821848    1.091872
 H    4.177280    3.121429   -1.294585
 H    4.738949    1.094250   -2.630000
 H    2.279294   -3.402481    0.423728
 H    2.353614   -2.333203   -1.000264
 H    1.143229   -1.536823    1.601242
 H    0.645035    0.991018   -2.935106
 H   -0.144349    3.974320   -1.430406
 H   -0.549080    3.029913   -2.867917
 H   -1.744367    3.221066   -1.568684
 H   -0.984995    3.572148    0.659721
 H   -0.700122    2.493637    2.052476
 H   -2.061728    0.560385    2.114233
 H   -4.826626    0.928891    1.100794
 H   -4.340646   -0.307547    2.257680
 H   -5.337598   -3.017794   -1.674976
 H   -3.007412   -3.102576   -2.661969
 H   -1.258616   -1.602637   -1.689966
