94 
1mui_ligand_ani.xyz
 C    1.715296    3.039665    2.075550
 C   -0.128232    1.706877    2.990405
 N   -1.006197    2.223566    1.938940
 C   -0.444258    2.799795    0.817785
 N    0.794140    3.374449    0.996811
 C    1.263253   -5.148504    0.668058
 C    0.242423   -5.300069    1.610807
 C   -0.518189   -6.465328    1.660904
 C   -0.275181   -7.494756    0.755951
 C    0.731880   -7.351725   -0.194028
 C    1.494912   -6.188808   -0.235751
 O   -1.003068    2.849678   -0.278544
 C   -2.333740    1.600146    1.880184
 C   -2.229966    0.219730    1.215795
 N   -1.943416    0.216192   -0.096233
 C   -1.908057   -0.971090   -0.936565
 C   -3.459374    2.499864    1.325487
 C   -4.784701    1.735665    1.360541
 C   -3.555407    3.803313    2.121484
 O   -2.366601   -0.811794    1.879837
 C   -6.299677   -0.227747   -1.714743
 C   -6.466359    1.149128   -1.834544
 C   -5.361846    1.955379   -2.103465
 C   -4.101440    1.386040   -2.260341
 C   -3.925216    0.001537   -2.159630
 C   -5.038462   -0.792536   -1.868932
 C   -2.555156   -0.625497   -2.288835
 C   -0.472597   -1.476824   -1.150367
 C    0.098527   -2.378769   -0.044956
 C    1.527575   -2.822143   -0.371757
 N    2.366753   -1.642511   -0.372631
 C    3.498266   -1.597112   -1.104818
 C    4.247955   -0.276297   -1.013736
 O    3.445769    0.695105   -0.344715
 C    3.744394    1.989775   -0.738397
 O    0.167058   -1.739251    1.213625
 C    2.076501   -3.876685    0.610103
 O    3.914712   -2.519251   -1.792265
 C    4.817431    2.660264   -0.134671
 C    5.088395    3.962536   -0.555840
 C    4.326894    4.566713   -1.552727
 C    3.270878    3.874199   -2.136951
 C    2.951500    2.575505   -1.735675
 C    1.777598    1.823996   -2.319464
 C    5.644197    1.986951    0.933433
 C    0.919389    2.751017    3.335767
 H    2.321911    2.162863    1.796874
 H    2.392425    3.886377    2.215787
 H    0.343134    0.759069    2.678847
 H   -0.758204    1.486401    3.856229
 H    1.208699    3.667812    0.125038
 H    0.034534   -4.481909    2.300220
 H   -1.303563   -6.566593    2.404812
 H   -0.869286   -8.404325    0.790525
 H    0.928491   -8.151554   -0.903997
 H    2.285889   -6.092011   -0.978423
 H   -2.597345    1.367370    2.917449
 H   -1.783892    1.119855   -0.536261
 H   -2.506685   -1.739985   -0.431016
 H   -3.219027    2.751470    0.287028
 H   -5.010682    1.398449    2.380402
 H   -5.606693    2.380234    1.030576
 H   -4.765569    0.853979    0.710081
 H   -3.766256    3.603789    3.180298
 H   -2.632505    4.387963    2.061661
 H   -4.370202    4.422584    1.731276
 H   -7.154719   -0.862648   -1.494831
 H   -7.450567    1.593143   -1.711442
 H   -5.483599    3.033581   -2.181278
 H   -3.240199    2.027879   -2.447611
 H   -4.912304   -1.868314   -1.758116
 H   -1.884663    0.055064   -2.832604
 H   -2.623206   -1.544423   -2.884525
 H    0.185369   -0.610940   -1.306016
 H   -0.446717   -2.063758   -2.080183
 H   -0.550488   -3.267347    0.020897
 H    1.571225   -3.248248   -1.380047
 H    2.124952   -0.868062    0.230154
 H    5.193792   -0.431467   -0.478947
 H    4.494799    0.035825   -2.035817
 H   -0.745103   -1.634581    1.545533
 H    2.137379   -3.424044    1.606463
 H    3.099963   -4.098148    0.284284
 H    5.909969    4.504381   -0.090932
 H    4.556576    5.579787   -1.874828
 H    2.680774    4.343302   -2.922882
 H    2.023936    0.770064   -2.491356
 H    0.912951    1.859404   -1.641800
 H    1.473776    2.267031   -3.271848
 H    6.192889    2.723284    1.527389
 H    6.382901    1.300063    0.502385
 H    5.003852    1.400961    1.600233
 H    0.426442    3.663419    3.687833
 H    1.576502    2.389977    4.134403
