94 
1mui_ligand_dft.xyz
 C   -1.352140    3.151478    2.028937
 C   -1.406393    0.895581    3.045984
 N   -2.261035    0.438654    1.947721
 C   -2.418673    1.225110    0.830689
 N   -2.119371    2.550361    0.954296
 C    5.035597   -1.660923    0.705736
 C    4.720961   -2.661809    1.627560
 C    5.362706   -3.896758    1.584635
 C    6.329003   -4.147989    0.614592
 C    6.648355   -3.158223   -0.311952
 C    6.005574   -1.925497   -0.264993
 O   -2.853371    0.789140   -0.246422
 C   -2.511368   -1.007705    1.898511
 C   -1.349559   -1.739890    1.215050
 N   -1.202206   -1.497690   -0.094683
 C   -0.222697   -2.160242   -0.937540
 C   -3.897712   -1.433740    1.375300
 C   -4.039119   -2.951647    1.515456
 C   -5.003849   -0.698751    2.131816
 O   -0.592082   -2.470231    1.864429
 C   -3.369804   -5.318305   -1.576113
 C   -4.591817   -4.659942   -1.686391
 C   -4.616295   -3.303895   -1.998586
 C   -3.425317   -2.612940   -2.203001
 C   -2.194478   -3.263570   -2.100909
 C   -2.182137   -4.623526   -1.782596
 C   -0.899566   -2.508450   -2.277577
 C    1.028910   -1.301320   -1.173072
 C    2.035742   -1.242726   -0.016729
 C    3.186134   -0.282930   -0.337804
 N    2.637013    1.057184   -0.437342
 C    3.240945    2.037729   -1.134671
 C    2.515893    3.379489   -1.132986
 O    1.319031    3.316227   -0.369511
 C    0.275307    4.098778   -0.817948
 O    1.477705   -0.786766    1.201592
 C    4.314728   -0.337006    0.710480
 O    4.284490    1.911741   -1.760598
 C    0.091900    5.355347   -0.231551
 C   -1.020734    6.103010   -0.616712
 C   -1.911009    5.615671   -1.568268
 C   -1.699054    4.367704   -2.144479
 C   -0.604128    3.581103   -1.775343
 C   -0.434114    2.188885   -2.325021
 C    1.068329    5.859068    0.798043
 C   -1.619562    2.378353    3.308436
 H   -0.278519    3.131795    1.793212
 H   -1.651070    4.199342    2.125323
 H   -0.350462    0.690072    2.816630
 H   -1.667769    0.316064    3.935371
 H   -2.173706    3.046688    0.075578
 H    3.959145   -2.468077    2.379152
 H    5.106805   -4.662872    2.310937
 H    6.831528   -5.110229    0.580730
 H    7.402877   -3.345812   -1.070633
 H    6.256757   -1.151741   -0.987294
 H   -2.454346   -1.341316    2.939176
 H   -1.832860   -0.809161   -0.504148
 H    0.050391   -3.087227   -0.421113
 H   -3.974873   -1.177134    0.316934
 H   -3.932396   -3.265887    2.561356
 H   -5.024447   -3.271049    1.162462
 H   -3.292990   -3.487140    0.919018
 H   -4.946759   -0.903413    3.208836
 H   -4.938411    0.383100    1.986052
 H   -5.986685   -1.029540    1.779959
 H   -3.340510   -6.376191   -1.331988
 H   -5.520276   -5.200053   -1.526831
 H   -5.564157   -2.780238   -2.081954
 H   -3.453082   -1.550486   -2.435139
 H   -1.230498   -5.143027   -1.695176
 H   -1.081962   -1.576187   -2.828927
 H   -0.194473   -3.095436   -2.876938
 H    0.704742   -0.287360   -1.432500
 H    1.562134   -1.696735   -2.047697
 H    2.465390   -2.245795    0.119780
 H    3.609313   -0.536057   -1.316145
 H    1.821560    1.281222    0.116845
 H    3.193855    4.139430   -0.726339
 H    2.301652    3.640298   -2.175482
 H    0.902094   -1.490137    1.558351
 H    3.879814   -0.133470    1.693350
 H    5.016270    0.468793    0.472439
 H   -1.186947    7.077372   -0.164942
 H   -2.772559    6.208211   -1.860291
 H   -2.399580    3.983170   -2.880853
 H    0.615079    1.899864   -2.419494
 H   -0.924592    1.466919   -1.660438
 H   -0.906149    2.101045   -3.307545
 H    0.697361    6.770505    1.274565
 H    2.038856    6.091076    0.344931
 H    1.249112    5.107893    1.573351
 H   -2.650180    2.546325    3.638935
 H   -0.944826    2.715006    4.100821
