29 
1mx1_ligand_ani.xyz
 C    3.705785   -1.023619    0.016382
 C    2.489228   -1.650124    0.003432
 C    1.284714   -0.898546    0.005166
 C    1.360825    0.514567    0.000523
 C    2.636897    1.142170    0.030413
 C    3.782659    0.389029    0.035537
 N    0.109411   -1.589109    0.009047
 C   -1.010077   -0.897602    0.018584
 C   -1.068400    0.520270    0.025873
 C    0.122149    1.229400   -0.035256
 C   -2.288151   -1.718837    0.033676
 C   -3.516879   -0.923234   -0.399445
 C   -3.585180    0.378798    0.392235
 C   -2.390132    1.267340    0.047655
 N    0.117326    2.616892   -0.076951
 H    4.621274   -1.610160    0.015971
 H    2.396595   -2.731498   -0.005536
 H    2.709018    2.227551    0.069586
 H    4.754948    0.874495    0.050738
 H   -2.427833   -2.091193    1.057960
 H   -2.128247   -2.597641   -0.595988
 H   -4.422521   -1.523634   -0.257660
 H   -3.444783   -0.693370   -1.470898
 H   -3.563903    0.148315    1.465417
 H   -4.520306    0.915412    0.195447
 H   -2.551739    1.714494   -0.945294
 H   -2.335488    2.106299    0.753725
 H    0.925270    3.041385   -0.507892
 H   -0.740076    3.047403   -0.398896
