37 
1n0s_ligand_dft.xyz
 C    4.287516   -0.562988    0.179129
 O    5.501276   -0.661513    0.313381
 C    3.596026    0.723189    0.140459
 C    2.257306    0.789154   -0.017805
 O    1.678170    2.023584   -0.032921
 C    0.342490    2.178685   -0.190829
 C   -0.128581    3.482859   -0.185366
 C   -1.491641    3.703836   -0.345630
 O   -1.913104    4.985813   -0.330250
 C   -2.372594    2.624083   -0.520123
 C   -1.881865    1.335007   -0.525121
 C   -0.512021    1.075025   -0.354191
 C    0.068332   -0.250371   -0.335744
 C    1.418293   -0.393594   -0.168142
 C    2.097241   -1.678364   -0.109317
 C    3.428514   -1.763031    0.052450
 C   -0.819529   -1.433274   -0.531285
 C   -0.773625   -2.094057   -1.761803
 C   -1.610738   -3.172154   -2.023504
 C   -2.521233   -3.593803   -1.059035
 C   -2.585070   -2.936244    0.161838
 C   -1.732356   -1.867038    0.445013
 C   -1.902041   -1.234472    1.804404
 O   -2.966763   -1.220038    2.366860
 O   -0.817534   -0.707333    2.395383
 H    4.185512    1.626318    0.246434
 H    0.555287    4.312455   -0.053686
 H   -2.872585    5.014740   -0.430383
 H   -3.436853    2.801811   -0.647684
 H   -2.567912    0.505766   -0.660739
 H    1.492388   -2.575164   -0.201550
 H    3.935691   -2.721370    0.097961
 H   -0.075073   -1.746984   -2.517176
 H   -1.555346   -3.676050   -2.983313
 H   -3.183109   -4.430290   -1.258771
 H   -3.298074   -3.238338    0.921304
 H   -0.022814   -0.831679    1.855576
