37 
1n0s_ligand_ani.xyz
 C    4.264638   -0.919791    0.170386
 O    5.463923   -1.095388    0.353126
 C    3.634498    0.387653    0.272661
 C    2.302562    0.531484    0.058067
 O    1.817071    1.804901    0.208717
 C    0.525069    2.085480   -0.109266
 C    0.165684    3.422717   -0.060364
 C   -1.124043    3.793815   -0.407836
 O   -1.428391    5.115303   -0.350135
 C   -2.053584    2.822922   -0.809197
 C   -1.686084    1.496385   -0.833283
 C   -0.392782    1.073414   -0.451007
 C    0.031265   -0.299681   -0.384996
 C    1.415026   -0.545836   -0.267401
 C    2.046330   -1.838407   -0.361764
 C    3.365724   -2.037141   -0.170924
 C   -0.967954   -1.381649   -0.485209
 C   -0.997347   -2.135467   -1.662179
 C   -1.984934   -3.086811   -1.891731
 C   -2.968691   -3.310823   -0.934747
 C   -2.941819   -2.589389    0.250786
 C   -1.945732   -1.652120    0.503678
 C   -2.022636   -0.996465    1.873110
 O   -3.031963   -1.011946    2.529976
 O   -0.912573   -0.412560    2.351565
 H    4.244571    1.246060    0.526864
 H    0.894362    4.168571    0.236131
 H   -2.346784    5.241694   -0.618422
 H   -3.059694    3.119705   -1.100423
 H   -2.393167    0.740385   -1.160609
 H    1.414772   -2.692216   -0.586936
 H    3.810942   -3.022213   -0.251172
 H   -0.223056   -1.970275   -2.409281
 H   -1.984383   -3.651498   -2.819417
 H   -3.750011   -4.045367   -1.108461
 H   -3.692609   -2.735985    1.021823
 H   -0.170620   -0.523067    1.731221
