37 
1n1v_ligand_ani.xyz
 C   -3.865231    0.294093    0.157608
 C   -2.485442   -0.211934   -0.083274
 C   -2.232651   -1.519398   -0.079604
 C   -0.845583   -2.079927   -0.207787
 C    0.182587   -0.918329   -0.092126
 C   -0.353710    0.285006   -0.874714
 C    0.508544    1.530944   -1.063798
 C    0.923230    2.291156    0.196733
 C    1.899959    1.560027    1.118477
 C    2.350107   -2.112852    0.027769
 C    3.735137   -2.174396   -0.577494
 N    1.482286   -1.296490   -0.622909
 O   -3.953441    1.630279    0.152891
 O   -4.814002   -0.436277    0.339571
 O   -0.667387   -3.060790    0.779041
 O   -1.554338    0.752528   -0.258355
 O    1.663363    1.212573   -1.826403
 O    1.589264    3.441516   -0.310810
 O    2.422647    2.553102    1.998305
 O    2.034890   -2.753323    1.029829
 H   -3.051905   -2.212785    0.053933
 H   -0.736081   -2.528098   -1.212421
 H    0.245612   -0.688222    0.976642
 H   -0.605845   -0.073454   -1.885481
 H   -0.111455    2.230333   -1.640228
 H    0.025329    2.581782    0.761113
 H    1.402923    0.774481    1.699054
 H    2.699676    1.114976    0.510131
 H    4.335782   -2.886618   -0.011837
 H    3.694283   -2.483943   -1.626682
 H    4.215074   -1.189136   -0.539246
 H    1.842486   -0.686705   -1.349987
 H   -4.891281    1.826948    0.317570
 H    0.288934   -3.125527    0.977926
 H    2.201907    2.020197   -1.797221
 H    2.124730    3.767131    0.430635
 H    3.274195    2.250869    2.333189
