45 
1n3w_ligand_xtb.xyz
 C    0.893553   -0.699937   -1.040672
 C    1.641009   -1.931389   -0.499314
 C    2.474394   -1.497834    0.703439
 C    3.437297   -0.385578    0.270706
 C    2.623875    0.762520   -0.346603
 C    3.517339    1.848851   -0.950803
 O    0.000194   -0.248380   -0.065743
 O    0.707910   -2.923872   -0.157231
 O    3.161883   -2.623137    1.195780
 O    4.157488    0.011624    1.409506
 O    1.803928    0.301034   -1.411060
 O    4.293540    2.432918    0.074468
 C   -4.037789    0.662368    0.251799
 C   -3.708358   -0.664333   -0.456610
 C   -2.268888   -1.072506   -0.125179
 C   -1.314553    0.078552   -0.487650
 C   -1.772190    1.356607    0.230106
 C   -0.963124    2.582102   -0.202472
 O   -4.065071    0.473227    1.635736
 O   -4.619066   -1.632415    0.000912
 O   -1.995885   -2.256309   -0.832328
 O   -3.126884    1.654624   -0.092809
 O   -1.293076    3.712493    0.552270
 H    0.372005   -0.964142   -1.969506
 H    2.316306   -2.304032   -1.285402
 H    1.800958   -1.096229    1.476526
 H    4.124597   -0.791037   -0.492994
 H    2.004132    1.202086    0.448282
 H    4.159787    1.394368   -1.716880
 H    2.869935    2.589538   -1.432880
 H    1.158081   -3.529830    0.447212
 H    3.837402   -2.292321    1.800749
 H    4.482280    0.911533    1.259422
 H    4.753301    3.202133   -0.277053
 H   -5.011076    1.038522   -0.103747
 H   -3.796293   -0.528736   -1.544406
 H   -2.186429   -1.248165    0.959126
 H   -1.339339    0.243634   -1.572974
 H   -1.673772    1.210809    1.313811
 H    0.100277    2.394920   -0.049758
 H   -1.149718    2.758566   -1.272085
 H   -4.513912   -0.369557    1.789338
 H   -4.288313   -2.487966   -0.303207
 H   -1.098542   -2.553552   -0.605019
 H   -2.256739    3.768464    0.574961
