48 
1n46_ligand_ani.xyz
 O    4.693081    1.942702   -0.310704
 C    4.888566    0.764195   -0.113669
 N    6.150972    0.259977    0.120996
 C    6.487265   -1.067916    0.322981
 O    7.621697   -1.428556    0.548285
 N    3.881301   -0.202449   -0.097079
 N    4.120328   -1.536849   -0.014234
 C    5.312307   -1.948504    0.210329
 C    2.508206    0.171564   -0.258402
 C    1.664313   -0.708084   -0.932490
 C    0.320372   -0.398208   -1.118976
 C   -0.626290   -1.327154   -1.839159
 C    2.020136    1.361396    0.278395
 C    0.672231    1.680553    0.138460
 C    0.078859    2.911450    0.778849
 C   -0.137333    0.814909   -0.596454
 O   -1.454308    1.184205   -0.814497
 C   -2.404153    0.602788   -0.001150
 C   -2.135351    0.136121    1.279697
 C   -3.690953    0.504529   -0.525154
 C   -4.732996   -0.068068    0.197094
 C   -6.124158   -0.281397   -0.375559
 C   -6.438741    0.658745   -1.537801
 C   -6.319653   -1.741649   -0.806578
 C   -4.450894   -0.524396    1.493179
 C   -3.170427   -0.421022    2.024268
 O   -5.483581   -1.063734    2.212798
 H    6.895966    0.944231    0.135931
 H    5.448656   -3.020304    0.299960
 H    2.069728   -1.644815   -1.296249
 H   -0.112671   -2.239712   -2.155187
 H   -1.467718   -1.606758   -1.194361
 H   -1.050574   -0.842511   -2.724511
 H    2.683835    2.040048    0.798912
 H    0.865495    3.567041    1.162496
 H   -0.533262    3.464393    0.059901
 H   -0.578330    2.642118    1.615437
 H   -1.133062    0.203060    1.692154
 H   -3.856056    0.895905   -1.523710
 H   -6.833233   -0.076400    0.435192
 H   -6.267604    1.705249   -1.262639
 H   -5.822411    0.427835   -2.415063
 H   -7.486890    0.552428   -1.838221
 H   -5.604208   -2.008624   -1.593360
 H   -6.172356   -2.423695    0.034518
 H   -7.331778   -1.890917   -1.198577
 H   -2.977563   -0.787501    3.032377
 H   -5.147124   -1.341866    3.073010
