48 
1n46_ligand_dft.xyz
 O    4.605418    2.102337    0.163705
 C    4.883287    0.925601    0.141195
 N    6.186591    0.467340    0.258311
 C    6.618730   -0.850932    0.213395
 O    7.783943   -1.166714    0.315546
 N    3.945806   -0.104704    0.003949
 N    4.266518   -1.416125   -0.066840
 C    5.494130   -1.780745    0.028352
 C    2.552944    0.193680   -0.180440
 C    1.858789   -0.474215   -1.182482
 C    0.499930   -0.238863   -1.371684
 C   -0.290564   -0.949379   -2.436745
 C    1.912323    1.109111    0.646334
 C    0.556538    1.375184    0.471282
 C   -0.177165    2.358133    1.342954
 C   -0.124035    0.691076   -0.537752
 O   -1.453363    0.986441   -0.755394
 C   -2.404786    0.242398   -0.093527
 C   -2.108194   -0.779349    0.796385
 C   -3.731458    0.576578   -0.364830
 C   -4.787719   -0.094695    0.237444
 C   -6.241709    0.222872   -0.063529
 C   -6.464360    1.641158   -0.592266
 C   -6.819590   -0.816399   -1.037817
 C   -4.478791   -1.131943    1.135547
 C   -3.158738   -1.462984    1.408688
 O   -5.529209   -1.787399    1.717797
 H    6.889208    1.189215    0.365814
 H    5.705450   -2.842205   -0.028373
 H    2.379344   -1.190400   -1.809666
 H    0.355743   -1.589597   -3.042733
 H   -1.073023   -1.574209   -1.991620
 H   -0.789839   -0.232293   -3.095562
 H    2.467779    1.628114    1.418229
 H    0.504884    2.840983    2.047316
 H   -0.657242    3.132562    0.736897
 H   -0.969156    1.861005    1.914263
 H   -1.080440   -1.046011    1.017477
 H   -3.914837    1.386997   -1.061957
 H   -6.789497    0.126531    0.881309
 H   -6.015606    2.393099    0.065220
 H   -6.043747    1.769999   -1.596463
 H   -7.537510    1.846699   -0.662755
 H   -6.293653   -0.773011   -1.998730
 H   -6.720582   -1.828173   -0.635155
 H   -7.882381   -0.622226   -1.221320
 H   -2.933868   -2.265156    2.108702
 H   -5.185114   -2.452552    2.324920
