39 
1nax_ligand_xtb.xyz
 O    5.454115    0.058970   -1.409390
 C    5.653840   -0.908592   -0.509674
 O    6.418451   -1.804116   -0.707371
 C    4.860923   -0.762440    0.795637
 C    3.459806   -0.289612    0.553071
 C    3.161726    1.069415    0.530894
 C    1.872343    1.494984    0.263818
 C    0.840284    0.587958   -0.004053
 O   -0.378336    1.087199   -0.314749
 C   -1.511507    0.514584    0.237070
 C   -1.534115    0.003897    1.526613
 C   -2.715517   -0.504701    2.023104
 C   -3.875635   -0.499809    1.255902
 O   -4.983014   -1.047339    1.828790
 C   -3.867739    0.049919   -0.032872
 C   -2.668750    0.541838   -0.525147
 C   -5.126458    0.054335   -0.875103
 C   -5.271678   -1.299063   -1.582514
 C   -5.165413    1.189879   -1.896903
 C    1.166357   -0.774481   -0.010533
 C    2.451806   -1.202757    0.271335
Cl   -0.032207   -1.952592   -0.415291
Cl    1.507539    3.178668    0.251163
 H    4.777707    0.694898   -1.127773
 H    5.406642   -0.046966    1.416028
 H    4.873646   -1.730400    1.295366
 H    3.915431    1.808853    0.758068
 H   -0.638025   -0.000653    2.129517
 H   -2.763999   -0.920199    3.016743
 H   -5.729964   -1.009103    1.220116
 H   -2.608180    0.959146   -1.516163
 H   -5.991256    0.200929   -0.212141
 H   -4.441229   -1.446237   -2.269256
 H   -5.268430   -2.122056   -0.870380
 H   -6.199570   -1.334195   -2.149410
 H   -4.938440    2.141246   -1.421849
 H   -4.455261    1.019322   -2.701411
 H   -6.158614    1.251526   -2.336741
 H    2.667523   -2.259238    0.257359
