49 
1nfu_ligand_dft.xyz
 N    6.102614    3.367903   -1.828708
 C    6.233560    2.273761   -1.178506
 N    7.273771    1.415860   -1.492036
 C    5.313476    1.774154   -0.110459
 C    5.010654    0.412310   -0.006173
 C    4.132274   -0.052590    0.968453
 C    3.557109    0.857104    1.860990
 C    3.860018    2.209999    1.770336
 C    4.732464    2.669292    0.787312
 C    3.757697   -1.515903    1.047790
 N    2.376299   -1.746741    0.637944
 C    1.430252   -1.934672    1.595308
 O    1.662067   -1.868338    2.794148
 C    0.000145   -2.215864    1.149675
 N   -0.133595   -2.422418   -0.287352
 C    0.637538   -1.463795   -1.071538
 C    2.104206   -1.727749   -0.791814
 S   -1.650580   -2.844886   -0.831472
 O   -1.547392   -3.004680   -2.268844
 O   -2.123844   -3.892441    0.050631
 C   -2.667969   -1.428168   -0.527791
 C   -3.382336   -1.222096    0.605820
 C   -4.037048    0.056056    0.606322
 C   -3.769804    0.783490   -0.571051
 S   -2.742341   -0.105672   -1.665966
 C   -4.305710    2.055599   -0.788047
 C   -5.110549    2.583094    0.204368
Cl   -5.798280    4.171540   -0.017562
 C   -5.395344    1.883820    1.389031
 C   -4.862792    0.626609    1.588240
 H    5.229709    3.827501   -1.573521
 H    7.945102    1.830873   -2.125543
 H    7.693638    0.919717   -0.718425
 H    5.456691   -0.283961   -0.712593
 H    2.876980    0.489823    2.624902
 H    3.422267    2.911470    2.473980
 H    4.982468    3.725018    0.728817
 H    3.852635   -1.884353    2.070633
 H    4.409687   -2.114585    0.401130
 H   -0.607119   -1.364638    1.498950
 H   -0.332037   -3.109316    1.679519
 H    0.375673   -0.428512   -0.801350
 H    0.430889   -1.618826   -2.130993
 H    2.402298   -2.682418   -1.243115
 H    2.704076   -0.929262   -1.243379
 H   -3.455194   -1.955491    1.400257
 H   -4.103577    2.614435   -1.694744
 H   -6.033779    2.340280    2.136712
 H   -5.080230    0.079734    2.500313
