24 
1nhg_ligand_ani.xyz
 C   -3.522481    0.118187    0.865498
 C   -3.765196   -0.519998   -0.345179
 C   -2.273384    0.679037    1.098464
 C   -1.277321    0.570092    0.120945
 C   -1.532373   -0.064237   -1.086050
 C   -2.788966   -0.613827   -1.328176
 C    3.441059   -0.997225    0.120661
 C    3.383531    0.295089   -0.385371
 C    2.192744    1.005997   -0.296251
 C    1.068009    0.422416    0.288177
 C    2.330750   -1.590251    0.706511
 C    1.141075   -0.876661    0.784764
 O   -0.069464    1.178498    0.419031
Cl   -5.336585   -1.210219   -0.630907
Cl    4.933441   -1.883690    0.015320
Cl    2.102985    2.620525   -0.914175
 O   -2.052982    1.320743    2.268135
 H   -4.290880    0.194318    1.627632
 H   -0.752561   -0.125332   -1.839543
 H   -3.006813   -1.113118   -2.265972
 H    4.255686    0.751392   -0.842258
 H    2.396582   -2.601135    1.094342
 H    0.255894   -1.319615    1.231178
 H   -1.160335    1.695376    2.239289
