25 
1nhw_ligand_ani.xyz
 C    1.704573   -1.654790    0.113353
 C    2.853677   -0.877532    0.087377
Cl    4.411729   -1.627518    0.256185
 C    2.770533    0.500694   -0.066833
 C    1.520697    1.085387   -0.197263
Cl    1.412227    2.812546   -0.369917
 C    0.337653    0.331032   -0.195240
 N   -0.884109    0.979970   -0.378894
 C   -2.086941    0.236182   -0.328557
 C   -2.558270   -0.433309   -1.451069
 C   -3.726654   -1.190396   -1.389143
 C   -4.425709   -1.277093   -0.190653
 C   -3.968190   -0.601229    0.938913
 C   -2.807185    0.163127    0.872057
 O   -2.318011    0.866898    1.932727
 C    0.460303   -1.051864   -0.024926
 H    1.779952   -2.729593    0.243276
 H    3.664192    1.116199   -0.080424
 H   -0.938682    1.854998    0.129729
 H   -1.980996   -0.360658   -2.368424
 H   -4.080922   -1.711867   -2.273822
 H   -5.335230   -1.868765   -0.129479
 H   -4.518481   -0.663269    1.877607
 H   -2.876776    0.707095    2.702174
 H   -0.434369   -1.665856    0.015142
