58 
1nl4_ligand_ani.xyz
 C    1.601474    1.253254    0.539910
 N    1.987211    0.189253   -0.363068
 C    1.191295   -0.950287   -0.471376
 C    1.698488   -2.175291   -0.935190
 C    0.883282   -3.292122   -0.980992
 C   -0.447329   -3.244524   -0.572070
 C   -0.998281   -2.014756   -0.153922
 C   -0.164484   -0.894089   -0.126250
 C   -2.389993   -1.916888    0.351730
 C   -3.276532   -0.885945   -0.106323
 C   -4.523485   -0.717365    0.550471
 C   -4.890532   -1.597746    1.601612
 C   -4.054126   -2.612807    1.978175
 C   -2.806072   -2.777066    1.345465
 C   -1.219876   -4.457625   -0.672713
 C   -5.395087    0.329331    0.141867
 N   -1.810296   -5.450437   -0.758486
 C   -2.993792   -0.035943   -1.217400
 C   -5.074197    1.148681   -0.903393
 C   -3.861477    0.954247   -1.600646
 N    5.332803   -1.222321    2.077601
 C    4.139464   -0.877020    1.498088
 C    4.329377   -0.354837    0.243620
 N    5.695462   -0.377075    0.048677
 C    6.236624   -0.908104    1.183045
 C    6.428070    0.081478   -1.115553
 C    0.430484    2.433770   -1.422611
 C    0.742202    2.357843   -0.063623
 C    0.245045    3.338806    0.793470
 C   -0.554589    4.373767    0.304286
 C   -0.866320    4.440173   -1.056322
 C   -0.367413    3.465580   -1.911356
 C   -1.056212    5.373018    1.214189
 N   -1.459045    6.176143    1.945682
 C    3.372223    0.179315   -0.782066
 H    2.522304    1.702478    0.938917
 H    1.079275    0.829145    1.411811
 H    2.736898   -2.271470   -1.231961
 H    1.283163   -4.239031   -1.330104
 H   -0.593210    0.059259    0.172507
 H   -5.851662   -1.456490    2.092003
 H   -4.341299   -3.299563    2.769400
 H   -2.147763   -3.573433    1.678868
 H   -6.333918    0.458508    0.676583
 H   -2.070213   -0.178570   -1.772352
 H   -5.749911    1.942589   -1.211110
 H   -3.613583    1.598421   -2.440020
 H    3.205091   -1.035644    2.020655
 H    7.307553   -1.038700    1.291546
 H    6.187725   -0.513930   -2.003198
 H    6.222598    1.137177   -1.323614
 H    7.493981   -0.024541   -0.906986
 H    0.810318    1.684104   -2.109691
 H    0.469550    3.313443    1.857409
 H   -1.487607    5.247951   -1.431149
 H   -0.600293    3.506980   -2.972123
 H    3.642472    1.218290   -1.028546
 H    3.456208   -0.376990   -1.726432
