110 
1nmk_ligand_ani.xyz
 C    1.006415    1.204080    5.496814
 C    0.999752    0.527921    4.150117
 O    0.043388   -0.143753    3.777889
 C    2.187886    0.701869    3.224951
 C    1.933997    1.823511    2.202615
 C    2.860964    1.790455    0.983200
 C    2.687283    0.469128    0.244043
 O    1.570516   -0.047444    0.151407
 N    3.784834   -0.081331   -0.320359
 C    3.715605   -1.211267   -1.239396
 C    4.639898   -1.045748   -2.465533
 C    4.023568   -0.047181   -3.450112
 C    6.075593   -0.650790   -2.115686
 C    4.008993   -2.507794   -0.461174
 N    2.951841   -3.313440   -0.139299
 C    1.525973   -3.128589   -0.350432
 C    1.004940   -4.039353   -1.479738
 C   -0.464068   -3.839087   -1.769527
 C   -1.431042   -4.547692   -1.050241
 C   -2.785899   -4.336045   -1.291365
 C   -3.199833   -3.417966   -2.246795
 C   -2.241277   -2.708045   -2.968272
 O   -2.686083   -1.815524   -3.896884
 C   -0.883044   -2.920765   -2.733277
 C    0.865523   -3.531476    0.984578
 O    1.009772   -4.698393    1.324705
 N    0.198986   -2.646554    1.835928
 C   -0.584452   -3.268136    2.931883
 C   -2.041635   -3.443710    2.507786
 C   -2.636434   -2.092869    2.108050
 C   -1.774109   -1.415645    1.036534
 N   -0.315446   -1.394975    1.434929
 C   -2.087925    0.037932    0.864731
 O   -1.286512    0.880931    1.208025
 O   -3.294872    0.266661    0.362101
 C   -3.687021    1.656251    0.143371
 C   -3.203688    2.146659   -1.237019
 C   -1.882342    2.865285   -1.174065
 C   -1.371345    3.637398   -2.142776
 C   -0.145409    4.448317   -1.994536
 C    0.374654    4.799209   -0.817808
 C    1.775711    5.269680   -0.526533
 O    2.593392    5.326226   -1.695288
 C    2.446269    4.332295    0.498497
 C    3.799456    4.874814    0.958612
 C    2.541763    2.891680   -0.054355
 O    3.523719    2.801290   -1.072067
 C   -5.187057    1.707015    0.359674
 C   -5.595960    1.828127    1.806818
 C   -6.050394    1.571441   -0.650688
 C   -7.546510    1.475488   -0.574922
 O   -8.077427    2.275436   -1.618769
 O    5.142747   -2.821194   -0.133130
 H    1.158142    2.283621    5.378271
 H    1.837696    0.826991    6.103464
 H    0.064587    1.021196    6.015395
 H    2.342591   -0.257720    2.718586
 H    3.094966    0.919876    3.802766
 H    2.035104    2.783653    2.722768
 H    0.903249    1.761044    1.839836
 H    3.911563    1.893466    1.284203
 H    4.668157    0.395803   -0.225316
 H    2.690051   -1.232447   -1.612519
 H    4.677095   -2.030154   -2.952793
 H    3.034809   -0.378855   -3.787730
 H    3.911730    0.942126   -2.987955
 H    4.658867    0.061006   -4.335609
 H    6.138779    0.387405   -1.762818
 H    6.487740   -1.312905   -1.349898
 H    6.702869   -0.718865   -3.012066
 H    3.200310   -4.127704    0.410723
 H    1.319741   -2.088692   -0.587757
 H    1.604771   -3.839596   -2.373925
 H    1.195516   -5.074051   -1.177685
 H   -1.108797   -5.255012   -0.290069
 H   -3.531951   -4.890696   -0.723568
 H   -4.251126   -3.231978   -2.443407
 H   -1.921284   -1.415397   -4.330301
 H   -0.148325   -2.364668   -3.317022
 H   -0.102573   -4.218656    3.154492
 H   -0.509959   -2.619138    3.809558
 H   -2.089630   -4.138314    1.659912
 H   -2.613232   -3.887966    3.327981
 H   -3.649004   -2.209501    1.715912
 H   -2.705432   -1.443816    2.992710
 H   -1.895948   -1.946589    0.086712
 H   -0.201898   -0.688672    2.198711
 H    0.230562   -1.000880    0.650113
 H   -3.199750    2.253888    0.919515
 H   -3.136064    1.279408   -1.908316
 H   -3.951008    2.831186   -1.665315
 H   -1.300987    2.700053   -0.263279
 H   -1.851280    3.697673   -3.116593
 H    0.336679    4.744609   -2.922580
 H   -0.231356    4.698751    0.085953
 H    1.721397    6.271376   -0.073653
 H    2.237257    6.008153   -2.278670
 H    1.754466    4.318278    1.350946
 H    4.214432    4.269049    1.772503
 H    4.516059    4.871712    0.133383
 H    3.704506    5.903387    1.326281
 H    1.551380    2.645784   -0.475383
 H    3.341315    3.537636   -1.677723
 H   -5.384540    0.897826    2.349041
 H   -5.025983    2.625000    2.298068
 H   -6.656485    2.058918    1.933477
 H   -5.675364    1.494232   -1.670662
 H   -7.913997    1.801715    0.409056
 H   -7.852489    0.425286   -0.713344
 H   -9.037351    2.183989   -1.604842
