52 
1nms_ligand_xtb.xyz
 C    5.068684   -1.209588    2.353710
 C    4.037698   -0.423704    1.628223
 O    3.440636    0.512532    2.116641
 C    3.765849   -0.847352    0.185323
 C    4.225773    0.287259   -0.751176
 C    5.717594    0.470741   -0.744754
 O    6.075381    1.572462   -1.403674
 O    6.515685   -0.265794   -0.225084
 N    2.344444   -1.103300    0.039765
 C    1.730898   -1.310358   -1.151825
 O    2.317517   -1.308074   -2.216909
 C    0.257799   -1.516803   -1.037035
 C   -0.575816   -0.924057   -1.979030
 C   -1.947374   -1.075583   -1.893483
 C   -0.297437   -2.301400   -0.031927
 C   -1.666649   -2.463750    0.036825
 C   -2.508552   -1.838730   -0.878138
 C   -4.001789   -1.985296   -0.727353
 N   -4.494693   -1.484809    0.538300
 S   -4.844807    0.136904    0.630345
 O   -5.809331    0.426943   -0.386504
 O   -5.164303    0.391997    2.001450
 C   -3.330392    1.002813    0.202515
 C   -2.166345    0.750944    0.883826
 C   -3.354847    1.912544   -0.843803
 C   -2.205597    2.583056   -1.194612
 C   -1.003702    2.346471   -0.517030
 O    0.071214    3.026369   -0.926457
 C   -0.982415    1.402929    0.528143
 C    0.249329    0.973871    1.218347
 O    1.316159    1.756108    1.031949
 O    0.321348   -0.049494    1.863942
 H    5.226180   -0.813471    3.353191
 H    5.994434   -1.175989    1.779266
 H    4.757108   -2.251071    2.410397
 H    4.335826   -1.749837   -0.066742
 H    3.921113    0.023599   -1.769633
 H    3.746563    1.233802   -0.494737
 H    7.041102    1.667839   -1.421675
 H    1.769512   -1.038944    0.871484
 H   -0.134902   -0.338144   -2.771271
 H   -2.587841   -0.597658   -2.619576
 H    0.337025   -2.802494    0.683262
 H   -2.089812   -3.086757    0.812032
 H   -4.285002   -3.040924   -0.810365
 H   -4.534826   -1.420257   -1.493770
 H   -3.999014   -1.809698    1.352955
 H   -2.141320    0.048763    1.702471
 H   -4.287478    2.074834   -1.360407
 H   -2.195440    3.303451   -1.996766
 H    0.832917    2.821118   -0.356147
 H    2.111811    1.369698    1.500753
