33 
1nnk_ligand_dft.xyz
 C   -2.064259   -1.866042   -0.653050
 C   -2.487321   -0.585719    0.095448
 C   -1.376279    0.431951   -0.025058
 C   -0.088288    0.490733    0.426303
 C    0.445376    1.744490   -0.050781
 O    1.590783    2.239375    0.032953
 N   -0.592646    2.365034   -0.662573
 O   -1.689168    1.546243   -0.718457
 C    0.662373   -0.492368    1.283558
 C    2.109579   -0.780741    0.860559
 C    2.201661   -1.232564   -0.596125
 O    3.348060   -0.832260   -1.160698
 O    1.360615   -1.901040   -1.127602
 N    3.002251    0.397389    1.100208
 C   -3.783713   -0.042623   -0.529240
 C   -2.740171   -0.884404    1.586358
 H   -1.145020   -2.305219   -0.257165
 H   -1.902140   -1.664293   -1.716012
 H   -2.861778   -2.610032   -0.564934
 H   -0.575144    3.087500   -1.368586
 H    0.670327   -0.161585    2.330616
 H    0.149123   -1.454293    1.271970
 H    2.492766   -1.609055    1.466274
 H    3.386887   -1.174540   -2.070683
 H    3.911943    0.264708    0.650175
 H    2.509713    1.288703    0.665611
 H    3.150633    0.553655    2.098936
 H   -4.128741    0.866040   -0.027842
 H   -4.563641   -0.802400   -0.428079
 H   -3.662177    0.173378   -1.594233
 H   -3.563226   -1.600046    1.671907
 H   -1.870714   -1.326944    2.081129
 H   -3.022116    0.022649    2.130067
