33 
1nnk_ligand_ani.xyz
 C   -1.953136   -1.921610   -0.543057
 C   -2.448971   -0.622933    0.114812
 C   -1.399672    0.442503   -0.040382
 C   -0.131571    0.518020    0.448052
 C    0.388892    1.793026   -0.022401
 O    1.487190    2.332298    0.076227
 N   -0.681399    2.424461   -0.662537
 O   -1.727561    1.517148   -0.807650
 C    0.671822   -0.421475    1.305790
 C    2.099959   -0.748504    0.846833
 C    2.163768   -1.182000   -0.608289
 O    3.408506   -0.987012   -1.098752
 O    1.277030   -1.685964   -1.249131
 N    3.101423    0.348684    1.050306
 C   -3.772517   -0.209664   -0.545981
 C   -2.705595   -0.860601    1.614596
 H   -1.011360   -2.272649   -0.115350
 H   -1.790773   -1.770245   -1.616348
 H   -2.698333   -2.716426   -0.421076
 H   -0.505616    2.886590   -1.547748
 H    0.733215   -0.034835    2.331186
 H    0.157283   -1.381442    1.376340
 H    2.437214   -1.623828    1.412509
 H    3.400915   -1.305056   -2.016521
 H    3.895008    0.161199    0.415934
 H    2.655448    1.257598    0.788587
 H    3.428697    0.372933    2.026283
 H   -4.165319    0.713348   -0.109229
 H   -4.514248   -1.001504   -0.388255
 H   -3.660199   -0.065683   -1.624166
 H   -3.467322   -1.638212    1.747024
 H   -1.807218   -1.183341    2.148719
 H   -3.066757    0.057209    2.092343
