31 
1nnu_ligand_xtb.xyz
 C    2.786910    1.871322   -0.758898
 C    1.463667    2.196662   -0.721141
 C    0.518687    1.285544   -0.202407
 C    0.929605    0.070603    0.284385
 C    2.291396   -0.287692    0.249042
 C    3.242678    0.621319   -0.284695
 C    4.599830    0.258468   -0.321420
 C    5.011435   -0.962671    0.155714
 O    6.334694   -1.279123    0.102186
 C    4.068483   -1.862272    0.689131
 C    2.744000   -1.531404    0.733473
 O   -0.776818    1.731606   -0.165265
 C   -1.813006    0.842432   -0.167488
 C   -1.838906   -0.294190   -0.962955
 C   -2.941228   -1.131088   -0.979117
 C   -4.034826   -0.818763   -0.193211
Cl   -5.419967   -1.851720   -0.191635
 C   -4.040411    0.319396    0.598069
 C   -2.935423    1.157184    0.619072
 O   -2.892999    2.276611    1.379908
 H    3.508107    2.569487   -1.157162
 H    1.104278    3.148946   -1.078384
 H    0.216707   -0.622418    0.708112
 H    5.331223    0.940353   -0.725750
 H    6.475331   -2.159608    0.470528
 H    4.407161   -2.820144    1.063283
 H    2.024405   -2.225470    1.142927
 H   -0.983659   -0.520246   -1.581446
 H   -2.948484   -2.011671   -1.600123
 H   -4.904091    0.551452    1.204621
 H   -3.727918    2.386711    1.851233
