90 
1nny_ligand_dft.xyz
 C   -1.718383    0.218311    1.153206
 C   -3.110719   -0.091928    1.024880
 C   -3.543543   -1.388418    1.084548
 C   -2.614692   -2.440056    1.223900
 C   -1.277083   -2.196960    1.403043
 C   -0.813382   -0.842334    1.438373
 N   -4.051960    0.966353    0.817420
 C    0.527444   -3.383873    0.124270
 N   -0.278243   -3.848030   -0.986810
 C   -0.724226   -3.062471   -1.975712
 C    1.712989   -4.335199    0.276038
 N    2.895641   -3.703742    0.378311
 C    4.163615   -4.402271    0.496465
 C    5.302050   -3.405401    0.297694
 C    5.765477   -0.194927    0.063268
 C    5.380576   -2.339476    1.396510
 O    4.687675    0.491286    0.701518
 O   -0.515338   -1.834861   -1.994330
 C   -1.492499   -3.725750   -3.083946
 C   -4.038371    2.058116    1.667159
 O    1.545358   -5.548284    0.327504
 C   -0.286824   -3.330611    1.436495
 O   -4.564674    3.127762    1.448343
 C   -3.422568    1.826092    3.056847
 O   -3.693694    0.885298    3.758196
 C   -4.863625    0.200389   -1.418693
 C   -5.053533    0.881581   -0.204248
 C   -6.317038    1.423857    0.065176
 C   -7.345367    1.350327   -0.860155
 C   -7.155896    0.691454   -2.069946
 C   -5.929503    0.100935   -2.320377
 O   -3.744843   -1.695601   -2.272789
 O   -2.501541    0.101390   -1.773356
 C   -3.645371   -0.562914   -1.843031
 C    4.178185    1.537774   -0.013376
 C    4.731117    2.779373    0.172893
 C    4.219025    3.926179   -0.479736
 C    3.097670    3.777462   -1.340311
 C    2.534905    2.491893   -1.507972
 C    3.050957    1.378992   -0.879065
 C    2.379852    0.061726   -1.071946
 O    1.191082    0.182435   -1.637928
 O    2.858980   -1.014663   -0.751736
 C   -1.197263    1.529772    0.990713
 C    0.122066    1.804507    1.238468
 C    0.992835    0.776428    1.652307
 C    0.541681   -0.515975    1.715119
 C    6.339151   -1.194736    1.054080
 O   -2.673349    2.863547    3.433025
 C    4.778611    5.217905   -0.298678
 C    4.245164    6.303273   -0.943561
 C    3.126650    6.156152   -1.799941
 C    2.565637    4.921484   -1.992742
 H   -4.601739   -1.607598    0.988924
 H   -2.976099   -3.463911    1.192243
 H    0.876849   -2.383834   -0.129748
 H   -0.397455   -4.851083   -1.046790
 H    2.924116   -2.724778    0.108118
 H    4.230055   -4.879217    1.482054
 H    4.209014   -5.202120   -0.251336
 H    6.250151   -3.954917    0.255598
 H    5.172922   -2.929643   -0.683290
 H    5.391827   -0.686294   -0.843479
 H    6.532020    0.535851   -0.229259
 H    5.698331   -2.819137    2.330283
 H    4.391323   -1.909433    1.588116
 H   -1.603427   -4.803783   -2.945378
 H   -2.475098   -3.249445   -3.128654
 H   -0.976505   -3.531995   -4.028427
 H    0.412161   -3.231196    2.274605
 H   -0.794851   -4.290752    1.569287
 H   -6.494394    1.918272    1.010143
 H   -8.305247    1.797042   -0.620490
 H   -7.957565    0.619428   -2.797474
 H   -5.768115   -0.461168   -3.233816
 H   -1.779752   -0.538812   -1.987008
 H    5.570685    2.871984    0.856053
 H    1.661708    2.378266   -2.141325
 H    0.738353   -0.693974   -1.700379
 H   -1.848095    2.327821    0.652323
 H    0.500816    2.813012    1.105786
 H    2.031757    0.996041    1.877872
 H    1.242034   -1.300539    1.981172
 H    6.607603   -0.645445    1.963574
 H    7.271853   -1.596597    0.636360
 H   -2.382893    2.679276    4.341052
 H    5.635200    5.332082    0.360112
 H    4.681283    7.287175   -0.798966
 H    2.715164    7.027514   -2.299603
 H    1.706095    4.799287   -2.646354
