38 
1no6_ligand_ani.xyz
 O    0.221601    2.830974    0.686827
 C    0.401611    2.438024   -0.571972
 O    1.193883    2.933854   -1.322421
 C   -0.515523    1.276690   -0.996892
 O   -1.327253    1.403538   -1.885352
 N   -0.352323    0.091562   -0.294160
 C   -1.434957   -0.837998   -0.331995
 C   -1.161955   -2.139023   -0.744847
 C   -2.182192   -3.072965   -0.853903
 C   -3.483576   -2.709937   -0.511186
 C   -3.746744   -1.423754   -0.061900
 C   -2.732063   -0.466792    0.043726
 C   -3.022130    0.869884    0.685928
 O   -4.260797    1.354944    0.511835
 O   -2.231201    1.500395    1.353139
 C    0.761854   -0.215379    0.546775
 C    0.555475   -0.349893    1.894771
 C    1.642375   -0.600698    2.762635
 C    2.908011   -0.735029    2.260085
 C    3.145425   -0.640587    0.859521
 C    2.065655   -0.385858   -0.018986
 C    2.309560   -0.339179   -1.421870
 C    3.575228   -0.521752   -1.917283
 C    4.655551   -0.755883   -1.036299
 C    4.448547   -0.812096    0.312866
 H   -0.490205    2.299756    1.101976
 H   -0.131287   -2.391962   -0.988319
 H   -1.962698   -4.080309   -1.196259
 H   -4.292691   -3.432134   -0.590734
 H   -4.756738   -1.168423    0.255274
 H   -4.726378    0.853520   -0.171922
 H   -0.455502   -0.229965    2.277100
 H    1.461449   -0.685681    3.831065
 H    3.751918   -0.927973    2.919237
 H    1.471438   -0.153203   -2.089183
 H    3.755097   -0.488183   -2.988176
 H    5.654894   -0.895153   -1.442087
 H    5.276177   -0.997504    0.993874
