26 
1no9_ligand_ani.xyz
 C    0.055732    2.297144   -0.035520
 O    1.082596    2.933485    0.019570
 N   -0.018508    0.924779   -0.015216
 C   -1.280673    0.253064   -0.061010
 C   -2.271632    0.532886    0.880477
 C   -3.490051   -0.136481    0.820132
 C   -3.729350   -1.072898   -0.181325
 C   -2.737663   -1.349125   -1.118765
 C   -1.510969   -0.696496   -1.055610
 C    1.177582    0.138671    0.057437
 C    2.181315    0.278562   -0.899211
 C    3.310705   -0.529744   -0.832899
 C    3.452061   -1.458650    0.194050
 C    2.452093   -1.587691    1.153709
 C    1.308500   -0.799520    1.079607
 H   -0.942269    2.766804   -0.121965
 H   -2.083996    1.258867    1.668171
 H   -4.259259    0.085106    1.555825
 H   -4.685421   -1.587868   -0.230399
 H   -2.916488   -2.081975   -1.901696
 H   -0.730336   -0.908065   -1.782834
 H    2.077475    1.024688   -1.681630
 H    4.090192   -0.425791   -1.583973
 H    4.341447   -2.082035    0.246673
 H    2.556997   -2.311156    1.958306
 H    0.514554   -0.898247    1.817042
