24 
1noj_ligand_ani.xyz
 C    0.322172   -1.329430    0.082924
 C   -1.115887   -1.203957    0.460417
 C   -1.696569    0.030879   -0.218245
 C   -0.833457    1.262817    0.027288
 C    0.547004    1.092830   -0.609373
 C    1.567994    2.097830   -0.069864
 N    1.022186   -0.266226   -0.340012
 N    2.288944   -0.659076   -0.545084
 N    2.336557   -1.914870   -0.253437
 N    1.124432   -2.366916    0.140566
 O   -1.889919   -2.310129    0.065292
 O   -2.989251    0.310568    0.281312
 O   -1.418750    2.405165   -0.556190
 O    1.832713    1.879219    1.294873
 H   -1.182744   -1.050170    1.552198
 H   -1.736841   -0.159552   -1.302433
 H   -0.710764    1.393844    1.116851
 H    0.447951    1.224625   -1.692991
 H    2.481597    2.038842   -0.675230
 H    1.157911    3.107395   -0.161624
 H   -1.368521   -3.106922    0.238592
 H   -3.531673   -0.466918    0.092244
 H   -2.337322    2.420938   -0.251738
 H    2.349686    1.063126    1.348722
