24 
1noj_ligand_dft.xyz
 C    0.330187   -1.315188    0.124228
 C   -1.113947   -1.194505    0.495172
 C   -1.685825    0.013552   -0.239835
 C   -0.811999    1.246821   -0.008931
 C    0.590134    1.077609   -0.611983
 C    1.583539    2.087269   -0.054064
 N    1.043993   -0.285602   -0.348564
 N    2.290739   -0.720063   -0.594400
 N    2.310384   -1.968930   -0.276761
 N    1.101700   -2.376163    0.177744
 O   -1.860607   -2.327031    0.120557
 O   -2.970871    0.350311    0.230503
 O   -1.374340    2.374484   -0.631058
 O    1.646349    1.899646    1.342325
 H   -1.196063   -1.011464    1.577728
 H   -1.711942   -0.217244   -1.316606
 H   -0.713522    1.403384    1.075483
 H    0.511621    1.211607   -1.696103
 H    2.557057    1.923852   -0.531735
 H    1.219771    3.089367   -0.318906
 H   -1.369529   -3.113887    0.393720
 H   -3.547690   -0.408436    0.073928
 H   -2.303857    2.391029   -0.362317
 H    2.449668    2.314464    1.672541
