85 
1npa_ligand_ani.xyz
 O    6.666123   -2.051494   -1.379437
 C    6.190799   -1.760576   -0.302823
 O    5.445872   -0.655719   -0.054378
 C    5.201954    0.167272   -1.212237
 C    6.425995    1.057452   -1.486443
 C    6.176776    2.263954   -0.608350
 C    7.072984    3.232884   -0.181212
 C    6.600719    4.283136    0.606270
 C    5.251749    4.360020    0.951350
 C    4.354520    3.383829    0.524891
 C    4.833445    2.330832   -0.245052
 C    4.069754    1.164333   -0.852493
 C    2.951626    0.595133   -0.048510
 C    1.904548   -0.232366   -0.631097
 O    1.756922   -0.531101   -1.805146
 C    0.944863   -0.683580    0.506061
 N    1.650156   -0.150444    1.686058
 C    2.714989    0.634683    1.280970
 C    0.874071   -2.231562    0.548591
 C   -0.124864   -2.781654    1.549719
 C    0.131568   -2.659336    2.919306
 C   -0.783136   -3.110598    3.865310
 C   -1.977726   -3.694685    3.460635
 C   -2.241405   -3.832771    2.100849
 C   -1.323623   -3.387085    1.154623
 C   -0.454765   -0.036407    0.395835
 C   -1.341872   -0.493298   -0.774435
 O   -1.054589    0.203233   -1.969432
 C   -2.829154   -0.254817   -0.486587
 N   -3.060448    1.171473   -0.371394
 C   -4.171706    1.622618    0.275696
 O   -4.938641    0.938144    0.924147
 O   -4.302413    2.960404    0.101967
 C   -5.458287    3.541721    0.741604
 C   -6.696944    3.415709   -0.174223
 O   -7.175044    4.729342   -0.397145
 C   -6.055109    5.592054   -0.318017
 C   -5.247102    5.052539    0.862692
 C   -3.744175   -0.890626   -1.554014
 C   -3.656184   -2.398456   -1.622407
 C   -4.417521   -3.194577   -0.761834
 C   -4.328811   -4.582256   -0.806654
 C   -3.474597   -5.201941   -1.716681
 C   -2.704517   -4.422952   -2.573867
 C   -2.790108   -3.034133   -2.517959
 N    6.353103   -2.482991    0.842894
 H    4.929819   -0.481650   -2.046281
 H    7.371759    0.552150   -1.275958
 H    6.437588    1.341453   -2.547675
 H    8.125067    3.183124   -0.455239
 H    7.289513    5.051284    0.948603
 H    4.895289    5.187834    1.558838
 H    3.300583    3.443377    0.786898
 H    3.655453    1.494578   -1.816115
 H    1.062820    0.237001    2.417227
 H    3.307126    1.147779    2.026881
 H    1.881872   -2.581696    0.799307
 H    0.654026   -2.602443   -0.457475
 H    1.063724   -2.200671    3.238442
 H   -0.560202   -3.004391    4.924311
 H   -2.693653   -4.044836    4.199198
 H   -3.168753   -4.284259    1.756688
 H   -1.561081   -3.529358    0.097845
 H   -0.331153    1.052006    0.355570
 H   -0.975018   -0.271672    1.335753
 H   -1.184319   -1.571997   -0.921964
 H   -0.145748   -0.021271   -2.227542
 H   -3.095241   -0.692232    0.482249
 H   -2.670315    1.760837   -1.092862
 H   -5.597866    3.047581    1.704952
 H   -6.400381    2.942097   -1.119990
 H   -7.500400    2.827199    0.277714
 H   -5.462879    5.552377   -1.245581
 H   -6.422472    6.611664   -0.176921
 H   -4.189204    5.316834    0.823068
 H   -5.669389    5.417954    1.803943
 H   -4.768363   -0.592852   -1.299605
 H   -3.502814   -0.445841   -2.527297
 H   -5.082519   -2.722499   -0.040615
 H   -4.925801   -5.186617   -0.126742
 H   -3.407595   -6.285177   -1.749541
 H   -2.028005   -4.895237   -3.280720
 H   -2.161443   -2.424613   -3.166762
 H    5.740412   -2.313670    1.624261
 H    6.731506   -3.409800    0.728588
