81 
1npv_ligand_ani.xyz
 O    3.920567    1.275635    0.128768
 C    2.678335    1.151704   -0.366926
 O    2.449554    0.845214   -1.532858
 N    1.745647    1.371281    0.590102
 C    0.312373    1.440100    0.312907
 C   -0.303226    0.098242   -0.143413
 O   -0.117638   -0.152862   -1.526911
 C    0.216620   -1.075492    0.694939
 C   -0.674516   -2.330119    0.656357
 C    0.042252   -3.530361    1.311395
 C    1.407457   -3.847150    0.739885
 C    2.562276   -3.704380    1.514809
 C    3.823409   -3.952861    0.977519
 C    3.943682   -4.363014   -0.347461
 C    2.798660   -4.527155   -1.123381
 C    1.541305   -4.272419   -0.585854
 C   -1.989637   -2.045465    1.426322
 O   -2.038256   -1.830434    2.620056
 N   -1.171434   -2.659891   -0.698441
 C   -2.541470   -2.393421   -0.730157
 C   -3.081772   -2.058872    0.459062
 C   -0.043273    2.571380   -0.664060
 C    0.460357    3.916847   -0.199541
 C   -0.221088    4.631334    0.787760
 C    0.262786    5.852243    1.247363
 C    1.442432    6.372780    0.723326
 C    2.132536    5.669465   -0.260013
 C    1.642985    4.448666   -0.717347
 C    4.982882    0.954575   -0.801863
 C    5.020296   -0.561879   -1.099149
 O    6.296888   -1.029665   -0.700410
 C    6.745976   -0.172856    0.335928
 C    6.321584    1.224615   -0.114813
 C   -5.572575   -2.188306   -0.046267
 C   -4.459475   -1.537733    0.783119
 C   -4.539752   -0.025546    0.632060
 C   -5.075145    0.556878   -0.515262
 C   -5.634242   -0.282270   -1.622311
 N   -5.621557   -1.634339   -1.389547
 C   -3.998812    0.803419    1.617497
 C   -4.025353    2.184344    1.470012
 C   -4.573334    2.758742    0.321608
 C   -5.090967    1.944426   -0.670845
 O   -6.047284    0.189658   -2.668625
 H    2.079696    1.875818    1.398453
 H   -0.140711    1.666646    1.288651
 H   -1.395081    0.185577   -0.006065
 H    0.808627    0.079796   -1.732712
 H    0.315273   -0.774091    1.743699
 H    1.216592   -1.340968    0.327372
 H    0.124550   -3.322836    2.383389
 H   -0.620576   -4.395498    1.199624
 H    2.473698   -3.384981    2.551626
 H    4.710933   -3.823128    1.593369
 H    4.926938   -4.552113   -0.773144
 H    2.887990   -4.854654   -2.156550
 H    0.646574   -4.393746   -1.191639
 H   -0.665570   -2.138161   -1.419999
 H   -3.064636   -2.498312   -1.670910
 H    0.383504    2.324972   -1.639827
 H   -1.134302    2.594447   -0.779570
 H   -1.144329    4.224543    1.199218
 H   -0.280032    6.399010    2.014758
 H    1.822940    7.326791    1.080522
 H    3.052602    6.074952   -0.674137
 H    2.181720    3.898413   -1.488100
 H    4.839141    1.549715   -1.707546
 H    4.885475   -0.777504   -2.162530
 H    4.224360   -1.068079   -0.538418
 H    6.271335   -0.436550    1.294034
 H    7.827543   -0.298409    0.432481
 H    6.220370    1.935438    0.706823
 H    7.041027    1.619509   -0.838761
 H   -5.401348   -3.266048   -0.120496
 H   -6.529917   -2.040061    0.478318
 H   -4.637894   -1.777691    1.838410
 H   -6.123408   -2.161598   -2.093278
 H   -3.548154    0.357101    2.498875
 H   -3.611351    2.820484    2.249407
 H   -4.588399    3.839273    0.204003
 H   -5.515827    2.349450   -1.583520
