85 
1npw_ligand_dft.xyz
 O   -0.868968    3.792325   -0.717733
 C   -1.763941    2.821726   -0.400910
 O   -2.348916    2.759262    0.661617
 N   -1.885782    1.949973   -1.437840
 C   -2.418362    0.610600   -1.242987
 C   -1.306032   -0.366721   -0.831094
 O   -0.331284   -0.345683   -1.862740
 C   -0.741157   -0.025531    0.552473
 C    0.111351   -1.115371    1.229659
 C   -0.603411   -2.479093    1.378138
 C   -1.957639   -2.388704    2.042766
 C   -2.055522   -2.172292    3.421418
 C   -3.295085   -2.033908    4.037087
 C   -4.462810   -2.115908    3.282778
 C   -4.379205   -2.352149    1.914537
 C   -3.137506   -2.490975    1.301004
 C    1.455176   -1.334278    0.499010
 O    1.534026   -1.849141   -0.613559
 C    3.966547   -0.769787    1.042041
 C    4.348648    0.471688    0.178694
 O    3.277328    0.787895   -0.708670
 C    5.556676    0.028346   -0.662316
 C    5.446968   -1.476213   -0.701950
 C    6.119787   -2.378176   -1.516690
 C    5.875158   -3.741354   -1.362235
 C    4.969216   -4.193186   -0.402770
 C    4.297767   -3.286876    0.414205
 C    4.542878   -1.930241    0.254959
 N    0.556352   -0.609155    2.529327
 C    1.895688   -0.395605    2.495053
 C    2.508249   -0.855311    1.365960
 C   -3.137889    0.157760   -2.525494
 C   -3.782518   -1.197870   -2.367442
 C   -3.114540   -2.358319   -2.767810
 C   -3.680047   -3.613396   -2.561240
 C   -4.928992   -3.725875   -1.955022
 C   -5.606846   -2.575584   -1.559174
 C   -5.033475   -1.322940   -1.759543
 C   -0.514592    4.681848    0.356143
 C   -1.566714    5.780314    0.604084
 O   -1.016681    6.983787    0.106907
 C    0.377644    6.892092    0.329817
 C    0.735077    5.459417   -0.070086
 C    2.545602    1.890819   -0.427816
 N    1.511809    1.996313   -1.301174
 O    2.803645    2.687657    0.457065
 H   -1.226591    2.060169   -2.195720
 H   -3.144789    0.672070   -0.427805
 H   -1.762002   -1.360137   -0.785476
 H    0.321689   -1.044688   -1.650797
 H   -1.583328    0.194541    1.218072
 H   -0.136084    0.885283    0.486574
 H    0.060479   -3.130542    1.957838
 H   -0.688052   -2.923818    0.381325
 H   -1.146722   -2.122473    4.015842
 H   -3.350304   -1.867449    5.109059
 H   -5.431138   -2.004845    3.761347
 H   -5.279707   -2.432113    1.313522
 H   -3.096664   -2.695240    0.233887
 H    4.521052   -0.682957    1.988129
 H    4.547198    1.349003    0.794714
 H    5.532794    0.498085   -1.649595
 H    6.488319    0.337905   -0.171451
 H    6.822523   -2.028025   -2.268228
 H    6.389428   -4.456508   -1.997718
 H    4.782174   -5.257634   -0.295830
 H    3.579844   -3.634329    1.152502
 H   -0.049656   -0.007787    3.068412
 H    2.376197    0.092929    3.336519
 H   -3.891013    0.913648   -2.771074
 H   -2.412376    0.133906   -3.345531
 H   -2.133819   -2.269675   -3.228766
 H   -3.145157   -4.504707   -2.875743
 H   -5.373850   -4.703458   -1.796148
 H   -6.585305   -2.654043   -1.093536
 H   -5.563779   -0.428218   -1.441340
 H   -0.354725    4.075309    1.248992
 H   -1.763846    5.862630    1.683684
 H   -2.509370    5.583716    0.090437
 H    0.613044    7.076914    1.391341
 H    0.870050    7.655807   -0.275185
 H    1.647298    5.065769    0.382448
 H    0.830167    5.392711   -1.158030
 H    0.842410    2.725937   -1.093808
 H    1.136863    1.149910   -1.719609
