76 
1npz_ligand_ani.xyz
 N   -1.990461   -2.119537   -0.062453
 C   -2.604546   -0.868966   -0.112024
 O   -2.066615    0.134881    0.346594
 N   -3.858172   -0.835886   -0.663486
 C   -4.570576   -2.013049   -1.133551
 C   -6.063265   -1.840328   -0.875515
 O   -6.542000   -0.619589   -1.399136
 C   -5.897004    0.478988   -0.786264
 C   -4.402435    0.453248   -1.063254
 C   -0.616573   -2.121390    0.411265
 C    0.301478   -1.672178   -0.735158
 O    0.109926   -2.066183   -1.877124
 N    1.315022   -0.843472   -0.368373
 C    2.107741   -0.082305   -1.329838
 C    1.265719    0.930894   -2.124709
 C    0.285234    1.784235   -1.313069
 S    1.045212    2.568178    0.117177
 O    2.201058    3.335963   -0.338973
 O    1.204448    1.553159    1.165819
 C   -0.198353    3.712442    0.657935
 C    0.018112    5.076563    0.507333
 C   -0.961460    5.963104    0.941390
 C   -2.136369    5.480997    1.514233
 C   -2.338517    4.109494    1.654022
 C   -1.365205    3.212198    1.226100
 C    2.897169   -0.979120   -2.284904
 C    3.812474   -1.992373   -1.585020
 C    4.825355   -1.350234   -0.664859
 C    4.659563   -1.358511    0.722127
 C    5.583028   -0.732988    1.556041
 C    6.689187   -0.087910    1.012068
 C    6.864249   -0.068764   -0.368922
 C    5.937112   -0.691064   -1.197633
 C   -0.175673   -3.498606    0.918551
 C   -1.119538   -4.141656    1.944787
 C   -0.529138   -5.465771    2.426755
 C   -1.409530   -3.213480    3.124671
 H   -2.085357   -2.632938   -0.935297
 H   -4.214904   -2.894182   -0.591249
 H   -4.401754   -2.171867   -2.208846
 H   -6.259386   -1.892690    0.206807
 H   -6.624506   -2.640826   -1.366359
 H   -6.352136    1.384467   -1.200198
 H   -6.075952    0.465169    0.300436
 H   -3.886712    1.223003   -0.485277
 H   -4.219522    0.641502   -2.132124
 H   -0.567517   -1.391111    1.225888
 H    1.232846   -0.396195    0.538454
 H    2.822334    0.479772   -0.715485
 H    0.680275    0.397021   -2.883223
 H    1.957479    1.599255   -2.652053
 H   -0.096653    2.599971   -1.932968
 H   -0.559560    1.206291   -0.920507
 H    0.946696    5.420117    0.059470
 H   -0.806668    7.032796    0.833201
 H   -2.899448    6.177766    1.852269
 H   -3.257602    3.736793    2.097900
 H   -1.515226    2.137478    1.312588
 H    2.197078   -1.514984   -2.931694
 H    3.503014   -0.325143   -2.927284
 H    4.334253   -2.576509   -2.354396
 H    3.197831   -2.703770   -1.021841
 H    3.793633   -1.858761    1.153415
 H    5.438437   -0.750756    2.633631
 H    7.412993    0.398902    1.661124
 H    7.726005    0.433687   -0.802365
 H    6.073920   -0.669083   -2.278163
 H    0.824800   -3.390178    1.361812
 H   -0.063202   -4.173237    0.057520
 H   -2.071844   -4.349660    1.438885
 H    0.421200   -5.296312    2.949248
 H   -0.334694   -6.144439    1.588440
 H   -1.207547   -5.972348    3.122392
 H   -2.055018   -3.710241    3.857885
 H   -0.481753   -2.926909    3.638269
 H   -1.917915   -2.297096    2.802257
