61 
1nqc_ligand_ani.xyz
 N    0.840400   -0.141193   -0.249016
 C    0.438391    0.642094   -1.301225
 O    0.056713    0.164018   -2.372231
 N    0.477973    2.006939   -1.092284
 C    0.166722    2.829973   -2.257705
 C   -0.256529    4.213588   -1.795048
 O    0.727695    4.801397   -0.968881
 C    0.955955    4.012943    0.181909
 C    1.453992    2.624520   -0.195445
 C    0.815258   -1.593885   -0.379258
 C   -0.594128   -2.140087   -0.084593
 O   -0.824222   -2.866414    0.872954
 N   -1.558017   -1.718000   -0.941670
 C   -2.943795   -1.964605   -0.664069
 C   -3.431162   -3.284325   -1.266332
 O   -2.710139   -4.191534   -1.589350
 C   -3.842980   -0.820466   -1.138007
 S   -3.380917    0.848056   -0.579713
 C   -3.606799    0.729608    1.231971
 C   -2.306002    0.682492    1.995643
 C   -1.869694   -0.484236    2.623304
 C   -0.643632   -0.524808    3.280304
 C    0.156101    0.613284    3.347362
 C   -0.278678    1.785963    2.737678
 C   -1.492724    1.815625    2.057911
 C    1.845455   -2.262744    0.533562
 C    3.264069   -1.813074    0.264498
 C    3.984713   -2.344473   -0.806995
 C    5.283154   -1.920502   -1.073559
 C    5.879726   -0.952807   -0.269448
 C    5.171326   -0.411317    0.798265
 C    3.873404   -0.840733    1.059631
 H    0.654711    0.215569    0.681144
 H   -0.637463    2.342772   -2.812813
 H    1.036326    2.906478   -2.927747
 H   -0.388789    4.881599   -2.652285
 H   -1.216164    4.145986   -1.256435
 H    1.701376    4.537193    0.788080
 H    0.028720    3.926425    0.767973
 H    1.587447    2.021229    0.703540
 H    2.437344    2.707013   -0.681659
 H    1.052136   -1.799414   -1.430128
 H   -1.283036   -1.128367   -1.723837
 H   -3.046604   -2.085697    0.422700
 H   -4.537072   -3.365100   -1.366552
 H   -3.817890   -0.759104   -2.232983
 H   -4.879434   -1.029436   -0.849439
 H   -4.226432   -0.146382    1.452384
 H   -4.193172    1.611989    1.520670
 H   -2.474892   -1.387078    2.585015
 H   -0.312009   -1.454522    3.735241
 H    1.110533    0.585799    3.868833
 H    0.336762    2.681587    2.797163
 H   -1.823829    2.731081    1.572131
 H    1.757727   -3.345646    0.398381
 H    1.572348   -2.066417    1.576453
 H    3.524999   -3.103229   -1.439518
 H    5.831024   -2.346871   -1.910457
 H    6.894782   -0.622363   -0.475912
 H    5.633175    0.342792    1.431177
 H    3.316321   -0.412900    1.893019
