76 
1ntk_ligand_dft.xyz
 C    8.974234   -1.169625   -1.588254
 C    7.237555    0.011702   -0.282616
 C    8.002186    0.841827    0.446966
 C    5.920809    1.757096    1.519095
 O   -1.446104    1.323638    1.380984
 C    5.141393    0.930322    0.801230
 C    5.755732   -0.004771   -0.158186
 C    3.650371    1.032852    1.026759
 C    1.443411    0.167098    0.532894
 O   -4.514615   -2.739542    1.706669
 C    1.475429    1.737358   -1.515035
 C   -1.523274    0.830024    0.283949
 C   -2.698932    0.008855   -0.225980
 C   -2.588209   -1.440399    0.300396
 C    7.399861    1.794662    1.419583
 N    7.685291   -0.917926   -1.222313
 N    2.873355    0.143323    0.371670
 O    9.959531   -0.614537   -1.145887
 O    5.113479   -0.787470   -0.858281
 O    3.189839    1.887787    1.774691
 C    0.750266    1.349174   -0.241976
 O   -0.560119    0.918272   -0.656734
 O   -0.269383   -1.421721    0.641706
 C   -1.282003   -2.166046   -0.057903
 C   -1.254901   -3.618987    0.378456
 C    0.865071   -1.126661   -0.007430
 C   -4.020720    0.655951    0.201662
 C   -4.244498    2.028809   -0.431330
 C   -5.606499    2.625096   -0.076655
 O    1.317100   -1.751307   -0.935063
 O   -3.648973   -2.184268   -0.305851
 C   -5.844690    3.987460   -0.729476
 C   -7.156013    4.663226   -0.315288
 C   -8.409623    3.880202   -0.707457
 C   -4.567868   -2.765256    0.502672
 C   -5.658871   -3.418396   -0.324353
 C   -6.550692   -4.292229    0.552502
 C   -6.459853   -2.335556   -1.065788
 H    9.031422   -1.959686   -2.357511
 H    9.078442    0.826087    0.331415
 H    5.429152    2.437770    2.209761
 H    1.192488    0.265571    1.590840
 H    1.641455    0.862394   -2.151019
 H    2.439443    2.194081   -1.282719
 H    0.872130    2.464038   -2.065498
 H   -2.637156   -0.030810   -1.319653
 H   -2.715033   -1.449667    1.386710
 H    7.707634    2.823210    1.174246
 H    7.825056    1.624726    2.421072
 H    6.934235   -1.442854   -1.657335
 H    3.293632   -0.496518   -0.297866
 H    0.652530    2.194275    0.440855
 H   -1.086576   -2.086695   -1.132084
 H   -1.464105   -3.706575    1.448846
 H   -0.269813   -4.042872    0.168751
 H   -2.002481   -4.193202   -0.174865
 H   -4.843752   -0.007569   -0.085196
 H   -4.035169    0.741670    1.294312
 H   -3.453709    2.718137   -0.107656
 H   -4.159121    1.943757   -1.524246
 H   -6.392536    1.921129   -0.381069
 H   -5.687100    2.725645    1.014952
 H   -5.826191    3.870885   -1.822757
 H   -5.007783    4.652113   -0.476658
 H   -7.198461    5.659125   -0.773186
 H   -7.150879    4.823856    0.771143
 H   -8.466777    2.918332   -0.187285
 H   -9.317169    4.441022   -0.460956
 H   -8.423426    3.678188   -1.785304
 H   -5.153544   -4.037788   -1.076080
 H   -5.971268   -5.062344    1.068903
 H   -7.312842   -4.783351   -0.060571
 H   -7.052991   -3.688581    1.314033
 H   -7.239597   -2.801351   -1.676160
 H   -6.948262   -1.661048   -0.353150
 H   -5.816477   -1.742415   -1.721003
