76 
1ntk_ligand_ani.xyz
 C    9.073068   -1.053723   -1.429892
 C    7.207575    0.056325   -0.198028
 C    7.910549    0.922513    0.550811
 C    5.813147    1.756658    1.538892
 O   -1.340734    1.474746    1.196996
 C    5.079264    0.895389    0.799927
 C    5.727109   -0.029280   -0.135705
 C    3.597103    0.963010    0.993352
 C    1.404217    0.149900    0.386155
 O   -4.196235   -3.152233    1.613223
 C    1.479196    1.459499   -1.829997
 C   -1.501999    0.899452    0.144962
 C   -2.729606    0.085022   -0.231040
 C   -2.651815   -1.379990    0.283915
 C    7.283352    1.868855    1.501828
 N    7.756861   -0.855540   -1.111001
 N    2.832299    0.103885    0.285179
 O   10.026200   -0.463229   -0.968421
 O    5.143141   -0.847696   -0.851900
 O    3.105688    1.783689    1.763891
 C    0.764059    1.264365   -0.507272
 O   -0.591309    0.900369   -0.850277
 O   -0.326455   -1.426968    0.617771
 C   -1.363401   -2.107577   -0.120406
 C   -1.331291   -3.587788    0.220730
 C    0.824062   -1.185215   -0.029589
 C   -4.000536    0.780523    0.286523
 C   -4.230993    2.159291   -0.332193
 C   -5.581047    2.767893    0.043486
 O    1.297305   -1.898491   -0.881999
 O   -3.774293   -2.058337   -0.316173
 C   -5.802211    4.139735   -0.592969
 C   -7.116043    4.816632   -0.190216
 C   -8.362230    4.058995   -0.646252
 C   -4.477278   -2.908262    0.463156
 C   -5.636701   -3.519591   -0.297814
 C   -6.333781   -4.570091    0.561875
 C   -6.601847   -2.425872   -0.773763
 H    9.178214   -1.848956   -2.190611
 H    8.986472    0.930634    0.454750
 H    5.261976    2.410921    2.205575
 H    1.127795    0.364351    1.421979
 H    1.585137    0.507771   -2.361617
 H    2.474699    1.884424   -1.674392
 H    0.899181    2.143886   -2.453438
 H   -2.751604    0.014284   -1.323811
 H   -2.754675   -1.424236    1.371414
 H    7.588285    2.909563    1.271272
 H    7.709306    1.738704    2.517001
 H    7.061386   -1.422982   -1.577094
 H    3.262754   -0.551216   -0.358666
 H    0.744613    2.187400    0.081806
 H   -1.181966   -1.965724   -1.192744
 H   -1.618051   -3.755476    1.263944
 H   -0.317805   -3.965670    0.060994
 H   -2.015621   -4.143350   -0.427131
 H   -4.859194    0.132179    0.073110
 H   -3.926874    0.870726    1.378292
 H   -3.424954    2.838623   -0.022999
 H   -4.166639    2.078517   -1.427530
 H   -6.383092    2.080996   -0.261212
 H   -5.651616    2.858611    1.137583
 H   -5.770064    4.036114   -1.688039
 H   -4.962813    4.795097   -0.322023
 H   -7.136421    5.830411   -0.609849
 H   -7.140172    4.937127    0.901959
 H   -8.431281    3.072731   -0.174872
 H   -9.274569    4.608581   -0.392157
 H   -8.354303    3.908005   -1.732373
 H   -5.195572   -3.999772   -1.183183
 H   -5.630423   -5.337382    0.896121
 H   -7.137805   -5.054027   -0.002823
 H   -6.767865   -4.105295    1.452698
 H   -7.437732   -2.870019   -1.324077
 H   -7.013254   -1.873210    0.079081
 H   -6.097570   -1.715564   -1.433922
