27 
1nu3_ligand_xtb.xyz
 C   -3.826698   -0.830054    0.160867
 C   -2.386747   -0.943387   -0.325687
 C   -1.536979    0.223575    0.174855
 C   -0.106149    0.217502   -0.385184
 C    0.750960   -0.921643    0.176559
 C    2.181567   -0.882381   -0.358467
 C    3.011780   -2.045551    0.170558
 C    0.529110    1.580694   -0.129398
 N    0.762032    1.870098    1.172415
 O    0.787690    2.366090   -1.013193
 H   -3.864414   -0.825074    1.248302
 H   -4.280418    0.089915   -0.200942
 H   -4.418393   -1.668697   -0.198292
 H   -2.373539   -0.955786   -1.417337
 H   -1.965527   -1.887050    0.025030
 H   -1.508881    0.202126    1.267446
 H   -2.019152    1.157593   -0.125276
 H   -0.160203    0.111141   -1.473379
 H    0.298609   -1.874981   -0.103391
 H    0.770390   -0.879111    1.268983
 H    2.653277    0.060952   -0.075781
 H    2.155826   -0.919404   -1.449175
 H    3.066153   -2.015760    1.257077
 H    2.569678   -2.995318   -0.123211
 H    4.023981   -2.002475   -0.223705
 H    1.165426    2.762026    1.404614
 H    0.550367    1.227965    1.913058
