27 
1nu3_ligand_ani.xyz
 C   -3.797572   -0.955579    0.238458
 C   -2.342134   -1.036962   -0.216937
 C   -1.544241    0.206332    0.175235
 C   -0.105288    0.248822   -0.372478
 C    0.774449   -0.904421    0.116967
 C    2.200388   -0.878346   -0.432726
 C    3.047419   -2.040751    0.077097
 C    0.441065    1.647985   -0.095559
 N    1.156675    1.823947    1.055763
 O    0.186712    2.581694   -0.836299
 H   -3.861426   -0.857844    1.328684
 H   -4.300408   -0.086459   -0.201651
 H   -4.359316   -1.849802   -0.050640
 H   -2.302260   -1.161135   -1.307766
 H   -1.880644   -1.933879    0.214301
 H   -1.515774    0.293867    1.271152
 H   -2.064675    1.100447   -0.191832
 H   -0.162314    0.202703   -1.468556
 H    0.306912   -1.851515   -0.180486
 H    0.790911   -0.920810    1.217783
 H    2.681438    0.070345   -0.168925
 H    2.156318   -0.905371   -1.529339
 H    3.127282   -2.018477    1.170126
 H    2.608992   -3.004633   -0.206302
 H    4.061761   -2.001147   -0.332829
 H    1.577664    2.729595    1.194598
 H    1.500603    1.050448    1.601404
