27 
1nu3_ligand_dft.xyz
 C   -3.847605   -0.831325    0.147211
 C   -2.393981   -0.938296   -0.310874
 C   -1.550227    0.250243    0.154624
 C   -0.105511    0.246124   -0.379738
 C    0.737878   -0.915609    0.169641
 C    2.182797   -0.920289   -0.332041
 C    2.972148   -2.125029    0.176069
 C    0.556074    1.600966   -0.130982
 N    0.786738    1.912743    1.180541
 O    0.867855    2.358018   -1.033088
 H   -3.913429   -0.790054    1.240700
 H   -4.318943    0.075397   -0.248584
 H   -4.435567   -1.690512   -0.190997
 H   -2.355684   -0.997402   -1.406443
 H   -1.965494   -1.874664    0.065934
 H   -1.543482    0.272907    1.254662
 H   -2.040724    1.177966   -0.168526
 H   -0.142652    0.164305   -1.471879
 H    0.260740   -1.861763   -0.114309
 H    0.732598   -0.894734    1.270075
 H    2.682670    0.004464   -0.019536
 H    2.181454   -0.912432   -1.429361
 H    3.008017   -2.138630    1.271794
 H    2.514059   -3.065138   -0.152754
 H    4.003056   -2.108311   -0.191569
 H    1.140651    2.833208    1.390595
 H    0.433290    1.351335    1.937658
