59 
1nu8_ligand_ani.xyz
 N   -2.308749   -1.589726   -2.241901
 C   -2.790752   -0.605891   -1.204216
 C   -1.606599    0.369890   -1.007075
 O   -0.542664    0.100317   -1.584568
 C   -3.286231   -1.302569    0.090510
 C   -2.226994   -2.200237    0.752096
 C   -4.593884   -2.059570   -0.170527
 C   -2.585476   -2.594114    2.185689
 N   -1.753697    1.470408   -0.242631
 C   -0.612749    2.366769    0.043700
 C    0.585278    1.668171    0.729005
 O    0.209598    0.546700    1.494491
 C   -1.233393    3.441898    0.940070
 C   -2.697447    3.492531    0.510590
 C   -3.029287    2.025960    0.234691
 N    1.543947    1.158605   -0.256700
 C    2.645121    0.329324    0.307854
 C    3.925627    0.995953   -0.175249
 O    3.921933    1.953816   -0.917732
 C    2.529491   -1.173379   -0.065857
 C    3.395660   -2.059981    0.838053
 C    2.811458   -1.422140   -1.552486
 C    2.993377   -3.534196    0.799371
 O    5.041907    0.439343    0.301068
 H   -2.857932   -1.531700   -3.115848
 H   -2.327569   -2.550301   -1.872127
 H   -1.320282   -1.304825   -2.410409
 H   -3.630816   -0.056397   -1.636277
 H   -3.513369   -0.500125    0.802380
 H   -1.256328   -1.685380    0.758116
 H   -2.085807   -3.117363    0.163889
 H   -4.438832   -2.949399   -0.792639
 H   -5.050732   -2.397398    0.765714
 H   -5.324113   -1.422453   -0.681144
 H   -3.499946   -3.195642    2.230785
 H   -2.738062   -1.707851    2.811970
 H   -1.784070   -3.186153    2.639742
 H   -0.272773    2.823112   -0.899002
 H    1.094648    2.396427    1.375117
 H   -0.506537    0.797527    2.099105
 H   -0.721899    4.402578    0.835292
 H   -1.157582    3.134365    1.990933
 H   -3.354580    3.928322    1.268686
 H   -2.805722    4.080833   -0.407630
 H   -3.356922    1.522460    1.152833
 H   -3.820545    1.917081   -0.513455
 H    0.977955    0.605511   -0.936927
 H    2.028256    1.905395   -0.781728
 H    2.614278    0.425504    1.395270
 H    1.476799   -1.421895    0.140541
 H    3.311614   -1.698535    1.871178
 H    4.449459   -1.954979    0.561314
 H    2.164494   -0.819955   -2.201964
 H    3.851476   -1.177356   -1.796989
 H    2.642206   -2.471361   -1.815759
 H    3.608702   -4.122013    1.488136
 H    1.945409   -3.666780    1.093136
 H    3.116483   -3.965688   -0.199996
 H    5.786744    0.937520   -0.077009
