63 
1nvq_ligand_dft.xyz
 O    0.335338    4.609658    1.036398
 C    1.061962    3.996769    0.006638
 N    2.492349    4.043953    0.214210
 C    3.132418    2.832030    0.111430
 O    4.329221    2.643431    0.190948
 C    2.041577    1.835928   -0.109602
 C    2.105969    0.444344   -0.257252
 C    3.159583   -0.549697   -0.221860
 C    2.543998   -1.801405   -0.426167
 C    3.270481   -2.991189   -0.455215
 C    4.645001   -2.898361   -0.274028
 C    5.272548   -1.662580   -0.064823
 C    4.543999   -0.482369   -0.038310
 N    1.169769   -1.612081   -0.568217
 C    0.902714   -0.254118   -0.487314
 C   -0.331344    0.411020   -0.506869
 N   -1.631148   -0.096696   -0.592285
 C   -2.517372    0.992827   -0.450440
 C   -1.767043    2.176379   -0.292763
 C   -2.405066    3.407267   -0.110571
 C   -3.788001    3.446630   -0.097631
 C   -4.528665    2.266167   -0.234742
 C   -3.913077    1.034060   -0.396608
 C   -0.370669    1.806387   -0.313793
 C    0.832374    2.503973   -0.153682
 C   -1.959527   -1.466726   -1.025240
 O   -0.845455   -2.042306   -1.686629
 C    0.234971   -2.625084   -1.009374
 C   -0.193498   -3.516765    0.157669
 C   -1.219034   -2.831755    1.042836
 N   -0.691607   -1.659558    1.837156
 C    0.357686   -1.973656    2.845274
 C   -2.393255   -2.338748    0.192861
 O   -3.254484   -1.605703    1.024382
 C   -4.532793   -2.186517    1.250614
 C   -3.045201   -1.480969   -2.099521
 H    0.584829    4.183090    1.867722
 H    0.770521    4.540466   -0.898274
 H    3.011751    4.908999    0.227385
 H    2.799426   -3.954616   -0.627941
 H    5.242656   -3.804128   -0.298209
 H    6.348011   -1.629166    0.073301
 H    5.017489    0.481711    0.111229
 H   -1.818220    4.304638    0.049177
 H   -4.301207    4.392425    0.038941
 H   -5.612785    2.308467   -0.198927
 H   -4.520307    0.142319   -0.449971
 H    0.736069   -3.238623   -1.764072
 H    0.689298   -3.845892    0.713236
 H   -0.673123   -4.418328   -0.237726
 H   -1.598588   -3.524439    1.800666
 H   -1.526427   -1.241801    2.269810
 H   -0.322210   -0.929230    1.211437
 H    0.012858   -2.788271    3.482999
 H    1.272144   -2.252775    2.321210
 H    0.540096   -1.080001    3.442009
 H   -2.885605   -3.234040   -0.207626
 H   -5.078244   -1.493497    1.891020
 H   -5.076091   -2.311874    0.306884
 H   -4.446783   -3.158860    1.751386
 H   -3.044804   -2.469755   -2.562906
 H   -4.037592   -1.286749   -1.696769
 H   -2.820066   -0.733093   -2.861935
