63 
1nvq_ligand_ani.xyz
 O    1.037738    4.409753    1.195286
 C    1.554778    3.828738    0.025282
 N    3.000038    3.737823    0.048560
 C    3.497636    2.447072    0.066897
 O    4.667115    2.159935    0.223138
 C    2.301980    1.578133   -0.136427
 C    2.192595    0.187639   -0.270766
 C    3.111594   -0.908296   -0.173083
 C    2.367980   -2.081879   -0.363879
 C    2.965633   -3.345212   -0.319456
 C    4.327135   -3.406069   -0.085551
 C    5.085447   -2.237752    0.102778
 C    4.489472   -0.993005    0.061485
 N    1.041287   -1.744821   -0.578072
 C    0.934531   -0.370702   -0.516250
 C   -0.215252    0.429445   -0.556146
 N   -1.554960    0.068032   -0.641817
 C   -2.296578    1.243754   -0.474899
 C   -1.426301    2.326083   -0.302739
 C   -1.924436    3.623067   -0.114304
 C   -3.288094    3.817965   -0.090832
 C   -4.158499    2.724789   -0.231415
 C   -3.683579    1.438275   -0.403828
 C   -0.093545    1.806049   -0.349424
 C    1.170939    2.378526   -0.188887
 C   -2.053702   -1.231122   -1.135250
 O   -1.000414   -1.998038   -1.730429
 C   -0.025135   -2.661572   -0.947370
 C   -0.596495   -3.398237    0.270711
 C   -1.679610   -2.609273    0.983571
 N   -1.195903   -1.406935    1.749328
 C   -0.848200   -1.618169    3.157191
 C   -2.711885   -2.069873   -0.013595
 O   -3.598740   -1.244414    0.716761
 C   -4.737403   -1.905844    1.225451
 C   -3.017665   -1.036648   -2.301966
 H    1.263421    3.818608    1.928687
 H    1.224305    4.486202   -0.785143
 H    3.557115    4.500503    0.402547
 H    2.379310   -4.249432   -0.461443
 H    4.820102   -4.373961   -0.048685
 H    6.154126   -2.317833    0.283825
 H    5.060830   -0.081254    0.205071
 H   -1.239660    4.453725    0.027597
 H   -3.692724    4.816300    0.049847
 H   -5.231805    2.891262   -0.197015
 H   -4.370454    0.603708   -0.439540
 H    0.423321   -3.389752   -1.628759
 H    0.224899   -3.625301    0.958755
 H   -1.022576   -4.344223   -0.075321
 H   -2.188592   -3.266813    1.698390
 H   -1.967250   -0.712963    1.649223
 H   -0.375273   -1.005009    1.248689
 H   -1.645793   -2.154468    3.680760
 H    0.069763   -2.207936    3.255139
 H   -0.691906   -0.662766    3.662344
 H   -3.244188   -2.899950   -0.495055
 H   -5.383768   -1.135774    1.656380
 H   -5.290620   -2.430528    0.432148
 H   -4.467400   -2.622706    2.015130
 H   -3.191315   -2.015248   -2.759447
 H   -3.980896   -0.613092   -2.013692
 H   -2.531837   -0.393167   -3.038256
