45 
1nvs_ligand_ani.xyz
 N    0.106067    4.131289    0.140524
 C    1.260109    3.350398    0.086455
 O    2.386774    3.790275    0.107459
 C    0.759257    1.944583    0.001215
 C    1.445753    0.731349   -0.078257
 C    2.828359    0.340262   -0.069046
 C    2.859890   -1.064434   -0.153701
 C    4.060072   -1.777737   -0.153855
 C    5.237012   -1.055210   -0.075094
 C    5.224260    0.347938    0.004683
 C    4.033121    1.048638    0.009158
 N    1.563059   -1.539525   -0.231422
 C    0.704983   -0.453184   -0.167495
 C   -0.695026   -0.427847   -0.159021
 N   -1.602737   -1.481652   -0.217473
 C   -2.874686   -0.937301   -0.149114
 C   -2.776291    0.461788   -0.060443
 C   -3.943587    1.230205    0.008846
 C   -5.169020    0.592097   -0.005440
 C   -5.250169   -0.808719   -0.084221
 C   -4.110879   -1.588785   -0.154632
 C   -1.378594    0.788369   -0.063774
 C   -0.640937    1.973062    0.008542
 C   -1.080433    3.398875    0.100110
 O   -2.186567    3.887550    0.135431
 C   -1.244203   -2.885615   -0.333400
 O   -0.028153   -3.035620   -1.049796
 C    1.066619   -2.898926   -0.151770
 C    0.514044   -3.234397    1.263518
 C   -0.963077   -3.571527    1.018721
 H    0.127114    5.139894    0.201891
 H    4.062227   -2.863803   -0.206947
 H    6.186810   -1.583329   -0.074511
 H    6.165583    0.887351    0.065473
 H    4.020393    2.131649    0.072267
 H   -3.875780    2.311156    0.071986
 H   -6.082406    1.178526    0.045884
 H   -6.225112   -1.288673   -0.092228
 H   -4.176133   -2.672552   -0.206955
 H   -2.021186   -3.371428   -0.924051
 H    1.849145   -3.570281   -0.505081
 H    1.073514   -4.044374    1.737689
 H    0.605916   -2.338754    1.883010
 H   -1.632119   -3.200325    1.796849
 H   -1.118581   -4.646759    0.896654
