47 
1nw7_ligand_ani.xyz
 N    2.964521    0.079318   -1.169605
 C    3.155744   -0.708843    0.087097
 C    2.465988   -2.077783    0.039435
 C    0.943813   -2.040371    0.184871
 S    0.050724   -1.428372   -1.290618
 C    4.664166   -0.899833    0.167407
 O    5.372274   -0.725692   -0.798514
 O    5.114960   -1.319328    1.354701
 C   -1.469699   -2.411044   -1.154920
 C   -2.550855   -1.860385   -0.228486
 O   -2.005582   -1.510662    1.043003
 C   -3.274633   -0.613963   -0.735879
 O   -4.406224   -1.013768   -1.495684
 C   -3.643617    0.101070    0.567298
 O   -4.771372   -0.509480    1.150748
 C   -2.455543   -0.230045    1.467327
 N   -1.363277    0.740079    1.405017
 C   -0.232772    0.608741    2.186190
 N    0.793143    1.320663    1.798588
 C    0.319292    1.989557    0.679144
 C    0.920692    2.856620   -0.235890
 N    2.291367    3.065016   -0.205045
 N    0.200849    3.420448   -1.210575
 C   -1.086856    3.066735   -1.296561
 N   -1.756211    2.195938   -0.545067
 C   -1.015041    1.659462    0.424104
 H    3.777202   -0.177481   -1.775675
 H    3.017184    1.097799   -0.954358
 H    2.051054   -0.154424   -1.600273
 H    2.786339   -0.123495    0.932447
 H    2.750196   -2.612595   -0.877030
 H    2.857757   -2.664042    0.878785
 H    0.582864   -3.052470    0.386070
 H    0.666596   -1.413690    1.034178
 H    6.074902   -1.441946    1.260320
 H   -1.186890   -3.414474   -0.820289
 H   -1.883769   -2.528260   -2.162986
 H   -3.295551   -2.654841   -0.083349
 H   -2.600570    0.024489   -1.318889
 H   -4.695177   -0.264239   -2.031231
 H   -3.776119    1.179721    0.422652
 H   -5.323111   -0.807101    0.410621
 H   -2.744229   -0.301833    2.516421
 H   -0.226984   -0.070204    3.028651
 H    2.658657    3.016528    0.740850
 H    2.557021    3.912829   -0.697110
 H   -1.648219    3.545384   -2.093960
