87 
1nz7_ligand_ani.xyz
 O    0.594820   -0.155525   -2.911459
 C    1.283791    0.669652   -2.145731
 O    0.835778    1.656604   -1.607021
 C    2.767372    0.273167   -1.999366
 O    3.560951    0.516407   -2.878240
 N    3.100607   -0.277655   -0.763767
 C    4.488130   -0.302206   -0.406659
 C    5.217405    0.883068   -0.508137
 C    6.525600    0.945523   -0.049048
 C    7.123278   -0.180138    0.510618
 C    6.402511   -1.364699    0.598500
 C    5.094714   -1.447841    0.124397
 C    4.392916   -2.777360    0.166770
 O    4.167841   -3.164761    1.435135
 O    4.067922   -3.440369   -0.786888
 C    2.098370   -0.986710   -0.019882
 C    1.431601   -2.035016   -0.654148
 C    0.373009   -2.669514   -0.022971
 C   -0.058172   -2.240769    1.233070
 C    0.658936   -1.232658    1.881929
 C    1.764948   -0.620884    1.288026
 C    2.508284    0.494746    1.988603
 C    2.135340    1.860965    1.422086
 C   -1.355598   -2.726904    1.833800
 C   -2.542431   -1.856062    1.323585
 N   -3.556888   -1.626328    2.329745
 C   -3.347811   -0.829241    3.396988
 O   -2.217726   -0.395718    3.661823
 C   -4.566652   -0.470744    4.209987
 C   -3.236465   -2.509997    0.123231
 O   -4.203642   -3.244897    0.277569
 N   -2.683309   -2.254956   -1.086288
 C   -3.159110   -2.906760   -2.297121
 C   -4.482449   -2.384255   -2.861027
 C   -4.460516   -1.034131   -3.588854
 C   -4.526786    0.216873   -2.714214
 C   -3.205201    0.665144   -2.107953
 O   -2.111676    0.276382   -2.519365
 N   -3.326084    1.558060   -1.090773
 C   -2.207196    2.020571   -0.297548
 C   -2.498493    1.669122    1.155969
 O   -1.387476    1.439236    1.855779
 O   -3.622431    1.577774    1.597478
 C   -1.965716    3.534569   -0.478813
 C   -0.679928    4.007698    0.192936
 S   -0.378164    5.767285   -0.109709
 C    1.134158    5.912850    0.863209
 H   -0.349489    0.134135   -2.891685
 H    4.740664    1.760347   -0.933752
 H    7.079085    1.877633   -0.131856
 H    8.145389   -0.135604    0.877135
 H    6.850825   -2.249148    1.043140
 H    3.694208   -4.011455    1.379546
 H    1.767012   -2.340850   -1.642215
 H   -0.140594   -3.482441   -0.526280
 H    0.329510   -0.895558    2.864152
 H    2.288366    0.446456    3.061828
 H    3.586752    0.329480    1.879999
 H    2.322752    1.876476    0.341069
 H    1.067851    2.051649    1.582678
 H    2.712857    2.666274    1.890381
 H   -1.542347   -3.784311    1.610454
 H   -1.310600   -2.616535    2.920108
 H   -2.119217   -0.891266    1.017882
 H   -4.462351   -2.037500    2.136850
 H   -5.131880    0.301691    3.678190
 H   -5.226199   -1.329719    4.366735
 H   -4.245247   -0.068973    5.171645
 H   -1.976215   -1.536984   -1.171189
 H   -2.365442   -2.826731   -3.050102
 H   -3.286444   -3.969466   -2.068396
 H   -4.829457   -3.140499   -3.578164
 H   -5.222338   -2.372378   -2.049648
 H   -3.581865   -0.966550   -4.241774
 H   -5.338809   -1.009839   -4.243811
 H   -4.892007    1.058674   -3.318550
 H   -5.262553    0.083197   -1.907760
 H   -4.229425    1.656707   -0.644796
 H   -1.306901    1.482609   -0.615474
 H   -1.631544    0.933760    2.669632
 H   -2.826838    4.101128   -0.102464
 H   -1.903691    3.711796   -1.558555
 H    0.163535    3.432112   -0.206862
 H   -0.733595    3.838008    1.274689
 H    1.548836    6.911355    0.706866
 H    1.874589    5.172220    0.540866
 H    0.931239    5.780296    1.930512
