81 
1o44_ligand_ani.xyz
 C    1.201783   -1.700681   -1.087943
 C    0.442911   -0.590049   -0.717269
 C   -0.676958   -0.737370    0.084759
 C   -1.093001   -1.988593    0.532018
 C   -0.374210   -3.121781    0.108583
 C    0.761570   -2.957846   -0.685701
 C    2.473057   -1.552837   -1.892766
 C    3.771234   -1.432192   -1.047874
 C    3.709359   -0.281691   -0.036156
 N    3.595017    0.963917   -0.559982
 O    3.747598   -0.473248    1.172215
 N    4.073386   -2.632397   -0.310915
 C    4.698646   -3.687854   -0.903205
 O    4.946700   -3.701090   -2.100390
 C    5.054666   -4.819823    0.039217
 C    3.275459    2.090416    0.288637
 C    2.522131    3.104503   -0.580433
 N    1.776929    4.063050    0.045989
 O    2.591076    3.031392   -1.802148
 C    1.828288    4.282472    1.485109
 C    3.214574    4.690559    1.989275
 C    0.728222    4.711065   -0.747693
 C   -0.549149    3.897895   -0.795946
 C    4.189667    3.527816    2.189361
 C    4.522158    2.720980    0.933566
 C   -1.665369    4.226840   -0.027185
 C   -2.813838    3.446560   -0.060079
 C   -2.881022    2.313425   -0.870778
 C   -1.752044    1.962311   -1.619318
 C   -0.609852    2.748565   -1.591788
 C   -4.122182    1.507134   -0.955792
 C   -4.849784    1.183648    0.193481
 C   -6.005629    0.416600    0.105125
 C   -6.454587   -0.032478   -1.136067
 C   -5.739416    0.290111   -2.287659
 C   -4.579156    1.050339   -2.195326
 C   -0.777071   -4.518477    0.472230
 O   -0.029152   -5.449627   -0.156672
 O   -1.658374   -4.859061    1.233139
 C   -2.315369   -2.070870    1.415391
 C   -3.646547   -1.931721    0.690237
 O   -3.510438   -1.654129   -0.612354
 O   -4.712768   -2.070012    1.239332
 C   -2.261548   -1.042097    2.543844
 O   -2.737267    0.068172    2.511305
 O   -1.582551   -1.507647    3.599027
 H    0.721731    0.403473   -1.063225
 H   -1.244302    0.142642    0.379445
 H    1.311218   -3.842940   -0.990244
 H    2.618345   -2.419064   -2.546965
 H    2.403275   -0.673295   -2.546072
 H    4.586701   -1.253276   -1.759471
 H    3.480094    1.116673   -1.552992
 H    3.992388   -2.558776    0.695359
 H    5.404376   -5.669559   -0.547828
 H    4.191324   -5.121269    0.642264
 H    5.851987   -4.510278    0.724296
 H    2.626693    1.733969    1.096653
 H    1.467141    3.395883    2.029224
 H    1.111319    5.079819    1.703013
 H    3.093571    5.202904    2.952992
 H    3.637654    5.424555    1.292570
 H    1.135180    4.837292   -1.756309
 H    0.540723    5.703938   -0.324542
 H    3.772509    2.842081    2.942794
 H    5.120969    3.915045    2.619606
 H    5.036466    3.343445    0.190142
 H    5.198278    1.902592    1.200921
 H   -1.641340    5.106324    0.614236
 H   -3.680043    3.727486    0.537381
 H   -1.754131    1.026743   -2.179162
 H    0.250419    2.473279   -2.196152
 H   -4.468788    1.472979    1.169558
 H   -6.536605    0.133153    1.008310
 H   -7.353402   -0.638433   -1.206745
 H   -6.080227   -0.062653   -3.257290
 H   -4.019906    1.299073   -3.095224
 H   -0.369120   -6.306102    0.151941
 H   -2.338842   -3.054337    1.888105
 H   -4.396154   -1.442463   -0.966669
 H   -1.587383   -0.800164    4.265677
