84 
1o46_ligand_dft.xyz
 C   -4.114266   -0.557554   -0.429528
 C   -3.954382    0.042933   -1.674412
 C   -3.248594    1.234907   -1.809637
 C   -2.691296    1.864309   -0.702873
 C   -2.886300    1.290047    0.563482
 C   -3.576078    0.089674    0.682521
 C   -4.737743   -1.920122   -0.285358
 C   -3.693714   -3.060080   -0.452883
 C   -2.565886   -2.861136    0.557433
 N   -1.510213   -2.158220    0.111222
 O   -2.679974   -3.274945    1.708514
 N   -4.285251   -4.349113   -0.196268
 C   -5.094645   -4.959507   -1.101372
 O   -5.326276   -4.473290   -2.199651
 C   -5.697955   -6.276977   -0.654862
 C   -0.539090   -1.570760    1.008641
 C    0.100005   -0.415208    0.226152
 N    0.930229    0.412989    0.899229
 O   -0.111882   -0.308685   -0.983241
 C    1.235549    0.281289    2.324675
 C    2.061705   -0.954295    2.692008
 C    1.726202    1.366454    0.127112
 C    3.136407    0.864028   -0.083587
 C    1.234878   -2.238564    2.754202
 C    0.513733   -2.605336    1.457887
 C    4.229052    1.473496    0.527009
 C    5.513606    0.961811    0.365883
 C    5.737942   -0.180945   -0.405451
 C    4.635655   -0.788809   -1.021892
 C    3.357849   -0.272274   -0.868156
 C    7.104125   -0.739120   -0.567643
 C    7.992931   -0.781522    0.512418
 C    9.271900   -1.306248    0.362331
 C    9.685742   -1.801549   -0.871045
 C    8.810850   -1.765953   -1.953280
 C    7.533312   -1.237863   -1.802713
 C   -2.376575    1.877916    1.837684
 O   -2.603730    3.193087    1.915246
 O   -1.866399    1.236308    2.729249
 C   -1.852967    3.127608   -0.849307
 C   -1.291560    3.293162   -2.272985
 O   -0.009977    2.942194   -2.354556
 O   -1.946080    3.695807   -3.201477
 C   -2.690852    4.387484   -0.555306
 O   -3.868314    4.474423   -0.763493
 O   -1.919840    5.388369   -0.106026
 F   -0.779617    3.081884    0.016541
 C   -2.018584    3.859690    3.032153
 H   -4.369468   -0.433507   -2.558628
 H   -3.135578    1.670236   -2.795294
 H   -3.670605   -0.360312    1.667373
 H   -5.512837   -2.084611   -1.039046
 H   -5.191092   -2.031541    0.705141
 H   -3.315647   -3.042983   -1.480240
 H   -1.504249   -1.753468   -0.819736
 H   -4.152465   -4.709076    0.739529
 H   -6.771246   -6.136128   -0.495129
 H   -5.252451   -6.671179    0.262615
 H   -5.577201   -7.007371   -1.457998
 H   -1.065288   -1.180987    1.889687
 H    0.299754    0.311026    2.892832
 H    1.791039    1.183681    2.594110
 H    2.884090   -1.059619    1.974651
 H    2.515897   -0.779348    3.674917
 H    1.730432    2.323184    0.658104
 H    1.216418    1.517551   -0.823072
 H    1.887116   -3.071721    3.039842
 H    0.484442   -2.143581    3.551216
 H    1.233464   -2.765434    0.644252
 H   -0.020867   -3.546455    1.611588
 H    4.078544    2.364148    1.133025
 H    6.355216    1.466394    0.832368
 H    4.782523   -1.690351   -1.610214
 H    2.511110   -0.756146   -1.348405
 H    7.668986   -0.420989    1.484954
 H    9.945043   -1.335952    1.214223
 H   10.683024   -2.214832   -0.988212
 H    9.126321   -2.144257   -2.921274
 H    6.865229   -1.192006   -2.658414
 H    0.246992    3.046313   -3.285499
 H   -2.508599    6.153912   -0.005537
 H   -0.937620    3.701092    3.038195
 H   -2.447660    3.490393    3.965854
 H   -2.245524    4.915322    2.891753
