21 
1o4l_ligand_ani.xyz
 C    2.501850   -0.734387    0.036327
 O    3.073558    0.481420    0.134593
 O    3.022206   -1.690191    0.548317
 C    1.206277   -0.861141   -0.770960
 C   -0.019747   -0.196024   -0.121405
 O   -0.105845   -0.707813    1.193916
 C   -1.296473   -0.560057   -0.907507
 C   -2.620008   -0.513760   -0.144768
 O   -3.446556   -1.372310   -0.314398
 O   -2.872967    0.517623    0.673320
 C    0.090276    1.335910   -0.035897
 O    0.767634    1.987764   -0.990722
 O   -0.427208    1.962415    0.863249
 H    2.567830    1.170950   -0.323415
 H    1.011612   -1.934221   -0.792127
 H    1.346830   -0.536817   -1.813397
 H   -0.384878    0.024934    1.764808
 H   -1.217394   -1.594827   -1.247498
 H   -1.384451    0.063112   -1.808716
 H   -2.126193    1.137801    0.776299
 H    0.927015    1.414543   -1.756883
