82 
1o5p_ligand_xtb.xyz
 C   -2.455624   -1.024661    0.004148
 C   -3.812479   -1.363951   -0.125078
 C   -4.988529   -1.591405   -0.289663
 C   -6.306674   -1.379631   -0.817956
 O   -6.479137   -1.585443   -2.186240
 C   -6.389310   -0.237341   -1.806574
 C   -5.146305    0.432405   -2.035639
 C   -3.960450    0.629312   -1.883696
 C   -2.587189    0.833053   -1.689249
 C   -1.915411    0.073292   -0.803554
 C   -0.436686    0.179634   -0.490204
 O   -0.017470    1.446693    0.003080
 C   -0.203753   -0.855746    0.639129
 O    0.837000   -1.786267    0.346995
 C   -1.508117   -1.568537    0.785577
 C    0.425155    2.405298   -0.909644
 O   -0.584331    3.200229   -1.440509
 C    1.423274    3.299491   -0.145448
 N    2.567790    2.557217    0.424153
 C    3.802535    2.594863   -0.376321
 C    0.660777    3.968112    1.017255
 O    1.559753    4.696498    1.802791
 C   -0.446530    4.828241    0.395185
 O    0.223074    5.842002   -0.319331
 C   -1.349917    3.930601   -0.479240
 C   -2.387504    4.730524   -1.255212
 C    2.104983   -1.300837    0.321113
 O    2.277468   -0.102056    0.514783
 C    3.134313   -2.274536    0.010077
 C    2.815917   -3.561029   -0.454915
 O    1.588670   -4.070516   -0.565600
 C    3.839922   -4.425484   -0.892035
 C    5.145725   -4.045231   -0.876185
 C    5.533787   -2.782624   -0.379318
 C    4.527808   -1.896630    0.100028
 C    4.942718   -0.685908    0.659558
 C    6.270267   -0.302593    0.670404
 O    6.512367    0.937864    1.180663
 C    7.851638    1.366042    1.320951
 C    7.249128   -1.163405    0.161985
 C    6.898067   -2.395361   -0.336016
 C    7.969890   -3.316964   -0.829136
 C   -7.475145   -1.677081    0.110609
 O   -7.429511   -0.773362    1.201224
 C   -6.956552   -1.402874    2.301298
 O   -6.660227   -0.852370    3.305353
 O   -6.866132   -2.723777    2.089929
 C   -7.336002   -3.052108    0.796933
 H   -7.307212    0.336978   -1.869318
 H   -2.086543    1.607432   -2.253857
 H    0.164490   -0.082558   -1.374435
 H    0.067653   -0.312417    1.556186
 H   -1.627993   -2.396317    1.459111
 H    0.901191    1.929850   -1.782980
 H    1.785741    4.084171   -0.817061
 H    2.743801    2.991665    1.344347
 H    2.297086    1.550263    0.569551
 H    3.641997    2.092137   -1.327020
 H    4.602661    2.082529    0.156367
 H    4.099217    3.626046   -0.558931
 H    0.222328    3.194686    1.655948
 H    1.641728    5.583579    1.423855
 H   -1.063201    5.264809    1.194724
 H   -0.424328    6.414065   -0.745168
 H   -1.847414    3.218225    0.194483
 H   -3.089135    4.054884   -1.734724
 H   -1.902762    5.317908   -2.031151
 H   -2.937383    5.382615   -0.582558
 H    0.909664   -3.460820   -0.237027
 H    3.535319   -5.394888   -1.251940
 H    5.895167   -4.727661   -1.241523
 H    4.238022   -0.023679    1.124880
 H    8.343755    1.461642    0.348939
 H    8.423221    0.687086    1.958125
 H    7.799039    2.344171    1.795743
 H    8.288771   -0.878030    0.174002
 H    7.976853   -4.240997   -0.253392
 H    8.946192   -2.850057   -0.733141
 H    7.813700   -3.569717   -1.876505
 H   -8.421846   -1.554313   -0.422773
 H   -8.293875   -3.574021    0.882990
 H   -6.604994   -3.697332    0.305065
