59 
1o5r_ligand_xtb.xyz
 C    1.622620   -1.542429    0.601960
 N    2.921124   -1.726693    0.249311
 C    2.959071   -2.857171   -0.503073
 N    1.781227   -3.386589   -0.656725
 C    0.915676   -2.568761    0.021373
 C   -0.535028   -2.776327   -0.017955
 O   -1.339861   -1.926465    0.342782
 N   -0.893142   -3.973725   -0.512274
 C    4.016854   -0.842215    0.568148
 C    4.976633   -1.526502    1.554907
 O    5.615101   -2.600291    0.904586
 C    4.760462   -0.406985   -0.700685
 C    3.875155    0.371463   -1.686554
 N    3.483204    1.652261   -1.170938
 C    4.338480    2.717994   -1.022090
 C    3.710581    3.746951   -0.395780
 C    2.383194    3.314029   -0.118234
 C    2.274821    1.995757   -0.621696
 C    1.279098    3.895106    0.505740
 C    0.124040    3.166003    0.651065
 C    0.024048    1.852946    0.157183
 C    1.092541    1.276299   -0.519064
 N   -1.110602    1.072620    0.353512
 C   -2.320710    1.434598    0.906954
 O   -2.663785    2.573330    1.159354
 N   -3.106151    0.351100    1.155794
 C   -4.482441    0.490624    1.568583
 C   -6.398195   -0.874817    0.651809
 C   -5.436345    0.107580    0.466091
 C   -5.341264    0.734239   -0.771141
 C   -6.194134    0.385567   -1.801631
 C   -7.154924   -0.593562   -1.607055
 C   -7.256284   -1.221628   -0.378159
 H    1.301138   -0.737223    1.229271
 H    3.865581   -3.262465   -0.902351
 H   -1.864058   -4.194245   -0.654498
 H   -0.170804   -4.581429   -0.861201
 H    3.589127    0.038172    1.061244
 H    4.402486   -1.881944    2.422461
 H    5.711347   -0.787153    1.902426
 H    6.181370   -3.060472    1.531671
 H    5.165587   -1.289643   -1.194495
 H    5.596702    0.226065   -0.399677
 H    2.977423   -0.203284   -1.924341
 H    4.439090    0.518384   -2.614397
 H    5.343500    2.656113   -1.395646
 H    4.131368    4.703243   -0.156304
 H    1.337876    4.905208    0.882400
 H   -0.734059    3.591319    1.142898
 H    0.987296    0.289249   -0.945537
 H   -1.008108    0.084313    0.146884
 H   -2.784272   -0.567348    0.888874
 H   -4.663837   -0.122524    2.458093
 H   -4.614937    1.546097    1.830300
 H   -6.479620   -1.369264    1.609831
 H   -4.594743    1.501513   -0.915635
 H   -6.113006    0.880210   -2.758737
 H   -7.823427   -0.865011   -2.411193
 H   -8.003981   -1.985843   -0.221040
