65 
1o79_ligand_ani.xyz
 C    9.593537    1.058086    1.594041
 C    9.722562    0.471075    0.177109
 C    8.784919    1.177603   -0.797166
 N    7.328271    0.983258   -0.424534
 C    7.139014    0.782916    1.073618
 C    8.169812    1.582664    1.853053
 C    6.662647   -0.102259   -1.224919
 C    5.170173   -0.165142   -1.002584
 C    4.539081   -1.378495   -0.723748
 C    3.164958   -1.438541   -0.524092
 C    2.375339   -0.290325   -0.600837
 C    3.009387    0.922231   -0.887527
 C    4.383966    0.985421   -1.081768
 C    0.876550   -0.356642   -0.372159
 C    0.176979   -1.270161   -1.395908
 C   -1.331843   -1.338222   -1.155069
 C   -1.629577   -1.805294    0.275343
 C   -0.972463   -0.869510    1.294252
 C    0.537695   -0.797937    1.064501
 N   -3.060930   -1.989894    0.529948
 C   -3.902842   -0.930086    0.390138
 O   -5.204360   -1.331594    0.506042
 C   -6.170987   -0.350321    0.304542
 C   -6.649293    0.365733    1.392505
 C   -7.644981    1.317045    1.195780
 C   -8.133142    1.534815   -0.088303
 C   -7.645162    0.822690   -1.178929
 C   -6.648764   -0.126781   -0.978746
 C   -3.587786   -3.336629    0.699060
 O   -3.593002    0.225862    0.192466
Cl   -9.377198    2.728441   -0.337199
 H   10.308713    1.876595    1.731037
 H    9.848153    0.284320    2.327087
 H    9.466245   -0.595794    0.184877
 H   10.752625    0.545209   -0.183822
 H    8.922432    0.807598   -1.816781
 H    8.981786    2.252576   -0.805122
 H    6.841449    1.863005   -0.668723
 H    7.237256   -0.285018    1.287589
 H    6.117797    1.078612    1.323640
 H    8.091739    2.631684    1.540208
 H    7.930449    1.555556    2.920580
 H    7.123250   -1.059015   -0.950758
 H    6.891620    0.072512   -2.282689
 H    5.131801   -2.288167   -0.653569
 H    2.709945   -2.404011   -0.304384
 H    2.417103    1.833893   -0.950505
 H    4.843622    1.946986   -1.310433
 H    0.465594    0.656339   -0.507137
 H    0.607298   -2.280383   -1.332686
 H    0.381024   -0.910887   -2.411379
 H   -1.806930   -2.024342   -1.865314
 H   -1.785044   -0.350687   -1.304393
 H   -1.175594   -2.800189    0.399113
 H   -1.195353   -1.227355    2.305066
 H   -1.420328    0.126269    1.197452
 H    0.995918   -0.106413    1.781074
 H    0.989115   -1.783327    1.252861
 H   -6.237180    0.178772    2.377919
 H   -8.038740    1.889440    2.029936
 H   -8.038966    1.013876   -2.172305
 H   -6.235286   -0.691927   -1.807197
 H   -2.776338   -3.983517    1.042309
 H   -4.374140   -3.351642    1.456099
 H   -3.989838   -3.745371   -0.236355
