65 
1o79_ligand_dft.xyz
 C    9.400385    0.472747    1.872437
 C    9.587327    0.485251    0.343584
 C    8.688347    1.526285   -0.303470
 N    7.223176    1.172620   -0.105392
 C    6.978124    0.395535    1.173881
 C    7.951810    0.833803    2.255414
 C    6.628301    0.475982   -1.318498
 C    5.158048    0.240532   -1.147735
 C    4.662533   -1.020483   -0.810513
 C    3.300826   -1.210108   -0.616515
 C    2.396833   -0.149349   -0.745369
 C    2.903251    1.107750   -1.088966
 C    4.263191    1.302805   -1.294358
 C    0.912946   -0.352029   -0.539934
 C    0.309665   -1.293772   -1.598273
 C   -1.204640   -1.419906   -1.420055
 C   -1.558702   -1.887972   -0.002582
 C   -0.930187   -0.988984    1.070387
 C    0.581931   -0.866332    0.872397
 N   -3.002472   -2.062169    0.187764
 C   -3.819157   -0.980011    0.094335
 O   -5.122461   -1.323410    0.310904
 C   -6.087912   -0.329911    0.255024
 C   -6.918562   -0.198507    1.358496
 C   -7.959758    0.723004    1.330526
 C   -8.145660    1.502698    0.195030
 C   -7.312117    1.369747   -0.911226
 C   -6.277084    0.443324   -0.883886
 C   -3.468612   -3.407759    0.484483
 O   -3.457425    0.154444   -0.147561
Cl   -9.447645    2.666158    0.154162
 H   10.088309    1.181627    2.341345
 H    9.656876   -0.517266    2.259219
 H    9.376217   -0.499630   -0.089508
 H   10.621627    0.715760    0.075592
 H    8.853231    1.614580   -1.378593
 H    8.844345    2.508739    0.148864
 H    6.707348    2.050835   -0.011142
 H    7.107616   -0.661539    0.928223
 H    5.933039    0.552012    1.441822
 H    7.844291    1.911639    2.428392
 H    7.660840    0.349626    3.191130
 H    7.192872   -0.451717   -1.443514
 H    6.838425    1.130674   -2.168768
 H    5.342002   -1.863973   -0.711376
 H    2.936407   -2.201663   -0.365154
 H    2.219100    1.942564   -1.211278
 H    4.621773    2.287349   -1.592038
 H    0.423948    0.624858   -0.655013
 H    0.780645   -2.283860   -1.511704
 H    0.538979   -0.923258   -2.603511
 H   -1.611568   -2.129987   -2.148632
 H   -1.682696   -0.452655   -1.600684
 H   -1.136471   -2.893613    0.124538
 H   -1.148333   -1.401208    2.062001
 H   -1.394004    0.000105    1.016562
 H    1.003771   -0.191571    1.626044
 H    1.056768   -1.846718    1.023626
 H   -6.749815   -0.820115    2.231126
 H   -8.619197    0.834914    2.183751
 H   -7.473412    1.984598   -1.789547
 H   -5.617337    0.331377   -1.735446
 H   -3.196198   -4.089446   -0.329431
 H   -3.012728   -3.771136    1.412984
 H   -4.549306   -3.414071    0.598344
