126 
1oai_ligand_dft.xyz
 N    1.747317    3.705566   -0.691451
 C    2.808158    4.487343    0.053365
 C    4.062289    4.228077   -0.797238
 O    4.256324    4.896792   -1.789080
 C    2.832916    4.087192    1.523113
 C    3.937462    4.842550    2.234465
 O    4.722547    5.565846    1.674120
 O    3.926197    4.599208    3.545625
 N    4.771549    3.103396   -0.480580
 C    5.416760    2.374032   -1.548914
 C    4.346245    1.435736   -2.158039
 O    3.142392    1.672989   -2.038422
 C    6.633425    1.629637   -1.011961
 O    6.142620    0.638958   -0.122495
 N    4.753916    0.298705   -2.755896
 C    3.786755   -0.753436   -2.997506
 C    3.087590   -1.209447   -1.711299
 O    1.960397   -1.698733   -1.768814
 N    3.779602   -1.060111   -0.566986
 C    3.182339   -1.322355    0.729492
 C    2.065310   -0.287590    0.931483
 O    2.331309    0.921733    0.960474
 C    4.216284   -1.194935    1.851597
 C    5.506148   -1.957059    1.631190
 C    6.693881   -1.442892    2.163049
 C    5.555838   -3.161839    0.928073
 C    7.903741   -2.111103    1.990677
 C    6.764514   -3.831987    0.754239
 C    7.941647   -3.308316    1.279803
 N    0.829778   -0.803655    1.008711
 C   -0.469225   -0.143638    0.852035
 C   -1.364779   -1.094666    0.044612
 O   -2.531654   -1.282765    0.379885
 C   -0.417647    1.208809    0.124232
 O    0.068348    2.254502    0.950413
 N   -0.768634   -1.662182   -1.020019
 C   -1.355888   -2.775264   -1.755091
 C   -2.643622   -2.325886   -2.464121
 O   -3.698026   -2.946740   -2.375182
 C   -1.558407   -4.022436   -0.877313
 C   -0.321149   -4.317374   -0.061077
 C    0.824479   -4.846395   -0.658916
 C   -0.281842   -4.011538    1.303472
 C    1.977305   -5.074109    0.086891
 C    0.872454   -4.234323    2.055153
 C    2.006626   -4.768659    1.446617
 N   -2.492159   -1.216524   -3.224393
 C   -3.630371   -0.441487   -3.654769
 C   -3.842805    0.722960   -2.683658
 O   -2.983201    1.023094   -1.868060
 N   -5.021462    1.397361   -2.805533
 C   -5.471715    2.154226   -1.658594
 C   -6.007303    1.171556   -0.601671
 O   -6.151939   -0.024749   -0.887059
 C   -6.485562    3.236876   -2.032631
 O   -6.604771    4.055339   -0.888959
 N   -6.263773    1.672242    0.607205
 C   -6.728229    0.826740    1.688039
 C   -7.302878    1.748111    2.751899
 O   -7.242138    2.951709    2.708826
 C   -5.590007   -0.066087    2.251015
 C   -6.057159   -1.405868    2.838445
 C   -6.719469   -2.398545    1.869170
 C   -5.797435   -3.218122    0.971018
 N   -5.074888   -2.389567   -0.040255
 O   -7.869509    1.057607    3.744531
 H    1.393269    4.258553   -1.474885
 H    0.954500    3.389033   -0.083352
 H    2.184493    2.849686   -1.107453
 H    2.572680    5.546889   -0.045268
 H    2.977420    3.010814    1.668345
 H    1.877305    4.331749    2.000679
 H    4.640023    5.120158    3.951483
 H    4.431805    2.513990    0.269737
 H    5.729359    3.101631   -2.304565
 H    7.275754    2.349070   -0.494274
 H    7.219150    1.186879   -1.830054
 H    6.866013    0.180473    0.329279
 H    5.736272    0.081052   -2.814373
 H    3.006621   -0.415284   -3.681005
 H    4.297127   -1.604419   -3.454850
 H    4.677054   -0.578517   -0.566561
 H    2.752922   -2.328769    0.712151
 H    3.735320   -1.531614    2.778744
 H    4.444514   -0.132453    1.985736
 H    6.665980   -0.517639    2.735898
 H    4.649088   -3.584118    0.502719
 H    8.813162   -1.702260    2.420267
 H    6.786278   -4.769186    0.206585
 H    8.882074   -3.832134    1.143597
 H    0.785175   -1.818318    1.043137
 H   -0.952598   -0.000907    1.822659
 H   -1.433409    1.472412   -0.174921
 H    0.188930    1.098203   -0.787739
 H    0.926097    1.908892    1.283223
 H    0.238624   -1.544121   -1.145008
 H   -0.624355   -3.011978   -2.535350
 H   -2.414062   -3.867217   -0.216275
 H   -1.811742   -4.861851   -1.531591
 H    0.813871   -5.094177   -1.717327
 H   -1.170131   -3.608968    1.786142
 H    2.850795   -5.506497   -0.391800
 H    0.876733   -4.013307    3.118509
 H    2.901641   -4.961349    2.030741
 H   -1.650869   -0.680913   -3.053299
 H   -4.502793   -1.099205   -3.667439
 H   -3.475103   -0.061243   -4.669856
 H   -5.749563    0.918221   -3.320576
 H   -4.598318    2.659221   -1.239800
 H   -7.448030    2.785227   -2.314736
 H   -6.096992    3.792118   -2.895604
 H   -7.344499    4.664061   -0.997900
 H   -6.297345    2.681944    0.736062
 H   -7.544482    0.196517    1.317502
 H   -4.860804   -0.214660    1.449787
 H   -5.054351    0.489939    3.028584
 H   -6.768823   -1.196759    3.642602
 H   -5.196279   -1.891140    3.315820
 H   -7.279148   -3.129731    2.461936
 H   -7.466639   -1.900009    1.239745
 H   -6.384135   -3.953029    0.416231
 H   -5.043635   -3.756145    1.551989
 H   -4.188391   -1.992649    0.308020
 H   -5.637198   -1.573956   -0.359301
 H   -4.788839   -2.913866   -0.882515
 H   -8.207428    1.695769    4.395665
