126 
1oai_ligand_ani.xyz
 N    1.324420    3.605911   -0.808051
 C    2.413934    4.401952   -0.141598
 C    3.616387    4.305778   -1.090324
 O    3.657429    4.982507   -2.102125
 C    2.632809    3.931337    1.290303
 C    3.706003    4.735747    1.984039
 O    4.245730    5.714039    1.526838
 O    3.991310    4.249230    3.205544
 N    4.549358    3.331407   -0.824321
 C    5.098218    2.589327   -1.944014
 C    4.053419    1.537317   -2.394276
 O    2.846022    1.755031   -2.306560
 C    6.431769    2.005574   -1.504561
 O    6.155414    1.094795   -0.438844
 N    4.514023    0.338892   -2.843927
 C    3.627577   -0.806319   -2.875903
 C    3.186767   -1.355658   -1.512252
 O    2.274143   -2.181858   -1.465895
 N    3.829475   -0.895415   -0.416095
 C    3.450336   -1.278851    0.937265
 C    2.138056   -0.550875    1.294903
 O    2.141734    0.516204    1.919089
 C    4.546922   -0.899114    1.932000
 C    5.927998   -1.463943    1.653123
 C    7.055929   -0.696536    1.969024
 C    6.125322   -2.743643    1.130384
 C    8.339766   -1.191175    1.758345
 C    7.408295   -3.238536    0.911446
 C    8.520862   -2.464115    1.223592
 N    1.023976   -1.133067    0.819879
 C   -0.299996   -0.519479    0.742366
 C   -1.246982   -1.460530    0.011510
 O   -2.405667   -1.608241    0.392399
 C   -0.291884    0.858456    0.034456
 O    0.070881    1.904262    0.913069
 N   -0.759345   -2.075232   -1.098516
 C   -1.461579   -3.201153   -1.702590
 C   -2.816498   -2.772814   -2.299535
 O   -3.829569   -3.448372   -2.157069
 C   -1.627323   -4.382240   -0.726933
 C   -0.352132   -4.647650    0.041052
 C    0.800301   -5.074732   -0.622295
 C   -0.276374   -4.386442    1.412690
 C    1.998954   -5.240125    0.065778
 C    0.921493   -4.544230    2.106183
 C    2.060596   -4.974714    1.430842
 N   -2.781575   -1.617668   -3.015385
 C   -3.980474   -0.956885   -3.462919
 C   -4.135464    0.380273   -2.737514
 O   -3.201921    0.906893   -2.152218
 N   -5.374696    0.964803   -2.809038
 C   -5.721503    1.929004   -1.785930
 C   -6.203529    1.200204   -0.516622
 O   -6.633793    0.046977   -0.564247
 C   -6.760684    2.928052   -2.277070
 O   -6.849079    3.940193   -1.286667
 N   -6.102512    1.882746    0.641282
 C   -6.420857    1.229982    1.891283
 C   -6.701765    2.310614    2.915625
 O   -6.650557    3.499043    2.705048
 C   -5.305536    0.258844    2.359305
 C   -5.826701   -0.993812    3.070716
 C   -6.539598   -2.017226    2.176137
 C   -5.630770   -2.916408    1.321059
 N   -5.135458   -2.267577    0.078406
 O   -7.022491    1.795020    4.112661
 H    0.837410    4.193228   -1.505566
 H    0.638721    3.235827   -0.117863
 H    1.753473    2.801628   -1.314151
 H    2.125744    5.449859   -0.139083
 H    2.856983    2.859552    1.358772
 H    1.703681    4.085349    1.851449
 H    4.677319    4.832062    3.572704
 H    4.462590    2.781409    0.020415
 H    5.233410    3.303155   -2.760243
 H    7.077285    2.820964   -1.156195
 H    6.945922    1.504085   -2.337217
 H    6.959877    0.612235   -0.207788
 H    5.503223    0.152526   -2.823693
 H    2.713223   -0.547234   -3.413654
 H    4.113007   -1.614940   -3.427567
 H    4.601122   -0.241519   -0.502471
 H    3.266027   -2.358514    0.948214
 H    4.211144   -1.207866    2.929152
 H    4.611027    0.195336    1.965916
 H    6.932165    0.307926    2.371617
 H    5.267794   -3.365638    0.882631
 H    9.202630   -0.579887    2.011105
 H    7.536109   -4.234673    0.495372
 H    9.523829   -2.846538    1.054935
 H    1.143205   -2.012984    0.327247
 H   -0.710196   -0.372471    1.748139
 H   -1.287182    1.090366   -0.354648
 H    0.408391    0.827126   -0.816042
 H    0.786801    1.542339    1.482735
 H    0.219064   -1.966901   -1.340744
 H   -0.830723   -3.519301   -2.544090
 H   -2.432997   -4.141658   -0.031631
 H   -1.939238   -5.260070   -1.300852
 H    0.764093   -5.277850   -1.691275
 H   -1.162431   -4.034955    1.938085
 H    2.886185   -5.573953   -0.467135
 H    0.967460   -4.326168    3.170368
 H    2.997952   -5.097607    1.970100
 H   -2.014687   -0.987476   -2.813566
 H   -4.838368   -1.608391   -3.258686
 H   -3.948615   -0.771935   -4.544969
 H   -6.129983    0.351547   -3.089997
 H   -4.806819    2.480300   -1.558056
 H   -7.724498    2.416875   -2.428908
 H   -6.430433    3.339218   -3.239816
 H   -7.646271    4.461254   -1.436224
 H   -6.026697    2.894193    0.639779
 H   -7.348245    0.655808    1.766265
 H   -4.732791   -0.034704    1.473617
 H   -4.609951    0.797302    3.012978
 H   -6.502739   -0.679285    3.871851
 H   -4.980962   -1.495485    3.559309
 H   -7.127427   -2.678142    2.823913
 H   -7.259835   -1.520903    1.511296
 H   -6.183770   -3.819213    1.044986
 H   -4.764357   -3.241203    1.910433
 H   -4.200748   -1.864636    0.228493
 H   -5.781065   -1.528751   -0.235558
 H   -5.026130   -2.950782   -0.680999
 H   -7.182441    2.549254    4.704470
