30 
1oar_ligand_ani.xyz
 C   -0.574528    0.900257   -0.050357
 C   -3.092827    0.415721    0.021145
 C   -0.334464   -0.486429   -0.104953
 C    0.528616    1.764214   -0.039698
 C   -1.449271   -1.484843   -0.113726
 C    0.957829   -0.995111   -0.143539
 C    1.839105    1.249035   -0.076860
 C   -3.905163   -1.867270   -0.003801
 C   -5.457350   -0.028032    0.131492
 C   -5.204130   -1.405801    0.078712
 C    2.039371   -0.133909   -0.110289
 C   -1.981211    1.431211   -0.004737
 C   -2.843639   -0.959283   -0.031739
 C   -4.410646    0.873659    0.101088
 O    3.922831   -0.979787    1.530821
 O    4.603201    0.231170   -0.469939
 O    2.811237    2.179071   -0.072900
 O    0.393869    3.095467    0.004550
 O    3.686431   -2.118431   -0.661321
 O   -2.243249    2.613417    0.011269
 O   -1.224263   -2.677895   -0.179656
 S    3.668537   -0.804216   -0.057796
 H    1.085054   -2.068651   -0.203404
 H   -3.675755   -2.927361   -0.047559
 H   -6.481565    0.329735    0.196485
 H   -6.032718   -2.108631    0.102989
 H   -4.587617    1.943775    0.138802
 H    3.756835   -1.910038    1.753934
 H    3.678419    1.755147   -0.234631
 H    1.290153    3.468886   -0.000911
