28 
1oau_ligand_xtb.xyz
 N   -1.414259    0.163359    0.112230
 C   -2.473480   -0.759620   -0.187887
 C   -3.661755   -0.051589   -0.833263
 O   -4.644181   -0.626616   -1.206615
 C   -2.989208   -1.483490    1.089344
 O   -2.029870   -2.339517    1.634279
 O   -3.497420    1.265579   -0.914304
 C   -0.096530   -0.061404    0.016912
 C    0.848151    0.997045    0.165001
 N    0.462960    2.346986    0.423739
 O   -0.710345    2.582865    0.692211
 O    1.315724    3.203912    0.371605
 C    2.212358    0.752394    0.050423
 C    2.674115   -0.523150   -0.198527
 N    4.084125   -0.769302   -0.309539
 O    4.833180    0.171720   -0.160560
 O    4.434172   -1.907028   -0.546014
 C    1.768651   -1.584255   -0.330624
 C    0.425828   -1.356874   -0.223090
 H   -1.690455    1.126337    0.312344
 H   -2.134918   -1.527777   -0.892105
 H   -3.320128   -0.731528    1.816448
 H   -3.839953   -2.107103    0.807057
 H   -1.341612   -1.825795    2.071923
 H   -4.272860    1.693172   -1.312002
 H    2.909864    1.571119    0.161177
 H    2.153759   -2.576487   -0.508823
 H   -0.252328   -2.190886   -0.295589
