21 
1oay_ligand_ani.xyz
 O   -4.979955   -0.672806   -0.036608
 N   -3.790902   -0.948955   -0.055278
 O   -3.310381   -2.063725   -0.116862
 C   -2.895719    0.167985    0.002992
 O   -1.580741   -0.098949   -0.023936
 C   -3.157819    1.496993    0.087450
 C   -1.878040    2.112466    0.117373
 C   -0.960810    1.101866    0.047687
 C    0.490745    1.131826    0.043382
 N    1.142937    0.035305   -0.036974
 N    2.496606    0.094464   -0.023117
 C    3.247127   -1.076987    0.077995
 O    2.879922   -2.208749    0.188317
 C    3.360017    1.191811   -0.160187
 C    4.592969    0.691362   -0.122073
 O    4.557349   -0.674528    0.024137
 H   -4.136636    1.953048    0.122972
 H   -1.653971    3.167606    0.181987
 H    0.946677    2.118310    0.130857
 H    3.011207    2.202795   -0.293147
 H    5.571858    1.138661   -0.183185
