64 
1obx_ligand_ani.xyz
 N    0.225002   -2.311502    0.834794
 C   -1.269305   -2.301448    0.827568
 C   -1.609350   -1.619934   -0.522430
 O   -0.750032   -1.602359   -1.398547
 C   -1.794651   -1.609860    2.093921
 C   -3.243542   -1.873082    2.420494
 O   -3.502991   -1.667146    3.718845
 O   -4.102253   -2.213243    1.634512
 N   -2.810460   -1.018235   -0.666148
 C   -3.035586   -0.098655   -1.767559
 C   -2.032473    1.069911   -1.808034
 O   -1.804752    1.645949   -2.860781
 C   -4.449470    0.454468   -1.697929
 O   -4.591030    1.093962   -0.442712
 N   -1.458006    1.420369   -0.625258
 C   -0.180111    2.079582   -0.570746
 C    0.796695    1.202361    0.222119
 O    0.423947    0.435156    1.106311
 C   -0.269557    3.499609    0.032026
 C   -0.888199    3.494419    1.429595
 C   -1.062633    4.391230   -0.922123
 N    2.099501    1.351458   -0.131657
 C    3.195493    0.789002    0.625064
 C    3.919873    1.927941    1.325430
 O    4.807908    1.486690    2.231116
 C    4.174265   -0.018798   -0.254313
 C    3.577387   -1.302267   -0.784360
 C    2.690577   -1.302670   -1.866269
 C    3.894115   -2.524459   -0.184424
 C    2.148323   -2.491375   -2.345188
 C    3.357907   -3.718548   -0.662818
 C    2.487945   -3.705067   -1.749418
 O    3.743899    3.099863    1.087245
 H    0.490936   -2.326524   -0.169277
 H    0.549040   -1.397481    1.217101
 H    0.637579   -3.110861    1.338719
 H   -1.645086   -3.326227    0.785434
 H   -1.642525   -0.527971    2.029644
 H   -1.202521   -1.946880    2.949391
 H   -4.450193   -1.849611    3.843894
 H   -3.567924   -1.237413   -0.025316
 H   -2.897670   -0.610443   -2.725676
 H   -5.166813   -0.372715   -1.809767
 H   -4.597661    1.151813   -2.534497
 H   -5.413817    1.596108   -0.444590
 H   -1.710686    0.892367    0.197200
 H    0.173829    2.173588   -1.605072
 H    0.764082    3.879111    0.110036
 H   -0.878968    4.504381    1.852837
 H   -0.345230    2.833168    2.112582
 H   -1.930506    3.157502    1.388163
 H   -1.111323    5.418980   -0.547672
 H   -2.086368    4.014806   -1.029944
 H   -0.612375    4.410139   -1.921396
 H    2.319680    2.195975   -0.644394
 H    2.768678    0.120618    1.379875
 H    5.232901    2.276453    2.605345
 H    5.058601   -0.246593    0.348593
 H    4.510178    0.617372   -1.083537
 H    2.418274   -0.361904   -2.338185
 H    4.583114   -2.545010    0.657854
 H    1.426642   -2.466296   -3.157717
 H    3.623035   -4.660631   -0.189028
 H    2.067059   -4.635596   -2.124258
