45 
1ocq_ligand_dft.xyz
 O    0.577631   -0.298837   -0.598812
 C    1.659643   -0.713682    0.206259
 C    2.608456   -1.398254   -0.793938
 O    3.666241   -2.095091   -0.152492
 C    3.207024   -0.377499   -1.757060
 N    3.780279    0.796609   -1.019516
 C    2.766429    1.499572   -0.154073
 C    2.285972    0.512833    0.906720
 C    3.386535    0.211835    1.938320
 O    4.647996   -0.106117    1.352619
 C   -1.196150    1.272030   -0.464399
 C   -2.562913    1.486497    0.156408
 C   -3.479049    0.308832   -0.140809
 C   -2.792904   -0.994437    0.308173
 C   -3.540859   -2.239082   -0.153201
 C   -0.636934   -0.048193    0.043999
 O   -0.302484    2.303873   -0.100397
 O   -3.054092    2.704777   -0.347308
 O   -4.667599    0.563595    0.561783
 O   -1.493158   -1.111137   -0.265439
 O   -4.870104   -2.140566    0.325327
 H    1.336465   -1.453700    0.951907
 H    2.007600   -2.084894   -1.398751
 H    3.377063   -2.990550    0.061053
 H    4.007514   -0.830674   -2.343808
 H    2.426884    0.006132   -2.416649
 H    4.202663    1.448913   -1.682815
 H    4.509628    0.476636   -0.344389
 H    3.269502    2.360071    0.292527
 H    1.936570    1.840503   -0.775707
 H    1.475411    1.021189    1.441119
 H    3.066084   -0.586355    2.618558
 H    3.556288    1.108110    2.539888
 H    4.612780   -1.043211    1.093154
 H   -1.295768    1.202563   -1.557184
 H   -2.443535    1.546124    1.252049
 H   -3.651839    0.258901   -1.228916
 H   -2.727020   -0.987390    1.407899
 H   -3.507182   -2.274229   -1.251231
 H   -3.038006   -3.132849    0.237729
 H   -0.489532    0.016069    1.137244
 H   -0.809394    3.127528   -0.161938
 H   -3.946595    2.820960    0.007521
 H   -5.219228   -0.232208    0.491215
 H   -5.385266   -2.880582   -0.014495
