116 
1ody_ligand_xtb.xyz
 C   -3.739320    1.338180    3.237487
 C   -3.096357    0.135606    2.591080
 C   -4.477043   -0.550282   -1.041107
 C   -5.052554    0.686015   -1.197524
 C   -6.442895    0.859826   -1.165281
 C   -7.259050   -0.215768   -0.967099
 C   -5.306383   -1.688341   -0.851367
 C   -6.716158   -1.507980   -0.809638
 C   -4.799213   -2.998702   -0.706889
 C   -7.551074   -2.627267   -0.609613
 C   -5.635551   -4.062705   -0.513666
 C   -7.024406   -3.878200   -0.458791
 C    0.935909   -1.546774    1.900981
 C    1.481314   -2.571534    0.893203
 C    0.867456   -0.884222    4.321837
 N    2.662981   -2.228541    0.386330
 C    3.485627   -2.998526   -0.536951
 C    5.271546   -2.784181    2.010257
 C    6.575639   -3.386399   -0.050947
 C    2.701409   -3.510958   -1.772985
 C    1.694680   -2.478646   -2.308599
 C    2.259686   -1.116526   -2.644233
 O   -2.717331   -0.844066    3.209356
 N   -2.953852    0.243855    1.255619
 C   -2.469561   -0.841236    0.418831
 C   -2.978987   -0.664045   -1.013473
 C   -0.927430   -0.887170    0.463386
 O   -0.231064   -0.521352   -0.478611
 N   -0.466994   -1.326299    1.627414
 O    0.843051   -3.577235    0.604578
 C    1.147008   -2.026569    3.347000
 C    0.292708   -3.248331    3.681751
 C    4.175224   -4.172139    0.175026
 C    5.475478   -3.826496    0.912997
 O    2.054163   -4.730656   -1.541975
 O    3.406299   -0.755287   -2.457391
 N    1.333999   -0.298263   -3.196377
 C    1.658301    1.050093   -3.611504
 C    0.427777    1.761603   -4.180752
 C   -0.641087    2.053419   -3.133688
 C    2.290208    1.841956   -2.465741
 O    3.185078    2.647545   -2.664709
 N    1.776939    1.607196   -1.247911
 C    2.409175    2.168479   -0.068162
 C    1.402250    2.296309    1.076492
 C    0.363424    3.337762    0.773552
 C   -0.870192    2.935390    0.327974
 C   -1.872063    3.860514    0.005156
 C   -1.630780    5.198807    0.123699
 C    0.640228    4.724915    0.906030
 C   -0.376346    5.661513    0.572219
 C    1.882366    5.224564    1.356033
 C   -0.111749    7.042051    0.692178
 C    2.107480    6.568836    1.460312
 C    1.104329    7.488970    1.123507
 C    3.580606    1.233926    0.272625
 O    3.522743    0.395441    1.158169
 N    4.644523    1.416808   -0.514344
 H   -3.138552    2.225828    3.048535
 H   -4.734748    1.493722    2.826797
 H   -3.814165    1.174972    4.308379
 H   -4.425086    1.552133   -1.365151
 H   -6.856363    1.849325   -1.294296
 H   -8.332039   -0.095669   -0.931105
 H   -3.735898   -3.173045   -0.757983
 H   -8.620183   -2.472709   -0.579538
 H   -5.227336   -5.056440   -0.403951
 H   -7.669539   -4.730095   -0.303378
 H    1.488495   -0.610362    1.764023
 H    1.515224   -0.035716    4.113231
 H   -0.169118   -0.561961    4.248879
 H    1.049223   -1.213613    5.341733
 H    3.069799   -1.357856    0.708877
 H    4.227960   -2.296411   -0.918376
 H    5.031972   -1.809191    1.595012
 H    4.464788   -3.084751    2.675139
 H    6.179031   -2.683935    2.602637
 H    6.322081   -2.447174   -0.535995
 H    7.511443   -3.246941    0.486044
 H    6.730942   -4.137617   -0.821727
 H    3.443800   -3.715554   -2.554267
 H    0.898857   -2.333794   -1.574512
 H    1.237178   -2.901788   -3.206631
 H   -3.297864    1.067008    0.786220
 H   -2.843947   -1.777645    0.850283
 H   -2.533839    0.243762   -1.426948
 H   -2.630640   -1.506140   -1.612592
 H   -1.139478   -1.570793    2.349529
 H    2.205126   -2.299430    3.425944
 H   -0.744483   -2.966163    3.850486
 H    0.660164   -3.719530    4.590089
 H    0.330498   -3.975191    2.874558
 H    3.465252   -4.604770    0.882876
 H    4.392442   -4.938415   -0.570851
 H    5.809067   -4.754856    1.393413
 H    1.469858   -4.589782   -0.768776
 H    0.373033   -0.595142   -3.238793
 H    2.432258    0.998592   -4.390563
 H    0.757060    2.697217   -4.634692
 H    0.010948    1.133810   -4.972469
 H   -1.550115    2.402467   -3.618788
 H   -0.304915    2.822472   -2.442730
 H   -0.875257    1.159471   -2.560992
 H    1.123353    0.844611   -1.100965
 H    2.805079    3.150254   -0.352302
 H    0.913077    1.331866    1.213260
 H    1.942829    2.528640    1.994958
 H   -1.068617    1.880378    0.218209
 H   -2.833131    3.509827   -0.345012
 H   -2.392656    5.923105   -0.126179
 H    2.668914    4.537099    1.625492
 H   -0.894519    7.740880    0.433322
 H    3.064761    6.931276    1.805079
 H    1.300644    8.547266    1.210691
 H    5.386632    0.734286   -0.492946
 H    4.554253    1.989386   -1.345264
