38 
1oe7_ligand_ani.xyz
 N   -1.789689    0.866612   -0.155510
 C   -2.644403   -0.084543   -0.919936
 C   -3.972227   -0.236551   -0.203436
 O   -4.693282   -1.202666   -0.224524
 O   -4.284002    0.901538    0.447728
 C   -1.964377   -1.426062   -1.206325
 C   -1.629374   -2.313102    0.011055
 C   -0.546290   -1.700968    0.871478
 O   -0.800390   -0.919963    1.784258
 N    0.745993   -1.987949    0.525854
 C    1.774682   -1.040211    0.892085
 C    1.647384    0.259210    0.063218
 O    0.928087    0.347014   -0.928608
 C    3.161318   -1.673573    0.761586
 S    3.532147   -2.231885   -0.936228
 N    2.411360    1.300662    0.481903
 C    2.324995    2.575971   -0.187928
 C    0.996738    3.280941    0.029867
 O    0.994612    4.492222   -0.547061
 O    0.047719    2.835491    0.630725
 H   -0.869144    0.937580   -0.619981
 H   -2.214570    1.807397   -0.096779
 H   -1.629081    0.498934    0.805698
 H   -2.896306    0.372054   -1.885190
 H   -5.150759    0.748929    0.858542
 H   -2.634779   -1.986767   -1.861295
 H   -1.050553   -1.212313   -1.773429
 H   -2.524987   -2.443617    0.624587
 H   -1.310778   -3.300602   -0.340873
 H    0.889716   -2.442895   -0.368682
 H    1.607166   -0.788542    1.944840
 H    3.220140   -2.526830    1.439402
 H    3.936373   -0.961279    1.056225
 H    3.594774   -3.543481   -0.666443
 H    2.810152    1.273790    1.407705
 H    3.129782    3.229527    0.154979
 H    2.450095    2.435781   -1.266419
 H    0.122141    4.881466   -0.369096
