38 
1oe8_ligand_xtb.xyz
 N   -1.708724    0.993110   -0.276239
 C   -2.650456    0.082277   -0.955399
 C   -4.008685    0.081990   -0.237530
 O   -4.848634   -0.747950   -0.404736
 O   -4.127002    1.136625    0.566939
 C   -2.088238   -1.340390   -1.073776
 C   -1.856220   -2.053035    0.269801
 C   -0.678193   -1.434014    0.986232
 O   -0.795972   -0.424955    1.680631
 N    0.517630   -1.997453    0.772708
 C    1.705381   -1.210408    1.026170
 C    1.634384    0.036262    0.113388
 O    0.813413    0.115370   -0.785345
 C    2.955576   -2.034718    0.752822
 S    2.990951   -2.498650   -1.032980
 N    2.523792    0.996493    0.381767
 C    2.589550    2.212397   -0.398956
 C    1.445797    3.178413   -0.094082
 O    1.867296    4.426958   -0.096198
 O    0.303537    2.844737    0.091171
 H   -0.759491    0.957369   -0.708284
 H   -2.035425    1.960788   -0.242343
 H   -1.538737    0.649684    0.715593
 H   -2.838261    0.455000   -1.970599
 H   -4.990975    1.149933    1.010516
 H   -2.812000   -1.922408   -1.644892
 H   -1.153089   -1.300287   -1.634635
 H   -2.746415   -1.969408    0.893980
 H   -1.668851   -3.108548    0.078596
 H    0.609971   -2.739418    0.092346
 H    1.685188   -0.879483    2.071741
 H    2.937679   -2.948095    1.346356
 H    3.856163   -1.465578    0.980031
 H    3.972191   -3.386873   -0.921179
 H    3.111521    0.930748    1.197652
 H    3.540951    2.715338   -0.235034
 H    2.497551    1.946913   -1.459692
 H    1.153434    5.068751    0.058170
