23 
1ofz_ligand_xtb.xyz
 C    0.663064   -1.319921   -0.247899
 C    1.250849    0.037912    0.182575
 O    2.616103    0.124440   -0.148015
 C    0.492032    1.157889   -0.530258
 O    0.911647    2.424597   -0.082060
 C   -1.006755    1.019041   -0.220027
 O   -1.243876    1.281901    1.137161
 C   -1.486271   -0.401272   -0.572409
 C   -2.926392   -0.624606   -0.136838
 O   -0.696027   -1.390855    0.060804
 O    1.316882   -2.362698    0.397365
 H    0.836513   -1.451652   -1.332921
 H    1.110398    0.146489    1.270924
 H    3.013887   -0.737242    0.031593
 H    0.660596    1.062158   -1.614513
 H    1.876509    2.425654   -0.097097
 H   -1.560548    1.738731   -0.844891
 H   -0.735980    2.076311    1.352851
 H   -1.389754   -0.520187   -1.665808
 H   -3.004487   -0.433205    0.928465
 H   -3.211825   -1.652096   -0.340073
 H   -3.583775    0.051251   -0.674607
 H    0.831474   -2.539548    1.213158
