87 
1ogg_ligand_ani.xyz
 C   -3.700865   -0.511158   -0.074674
 C   -4.431775    0.597749    0.700573
 C   -5.814826    0.120273    1.125340
 C   -6.585473   -0.486446   -0.052368
 C   -5.708334   -1.509001   -0.800720
 C   -6.347691   -1.991277   -2.093112
 C   -2.716465    1.959034    1.803283
 C   -1.815229    2.070404    3.011202
 N   -3.668684    0.991017    1.863212
 O   -5.635079   -0.873221    2.120546
 O   -7.722983   -1.114203    0.504788
 O   -4.469901   -0.918002   -1.181029
 O   -7.584481   -2.621104   -1.763632
 O   -2.591044    2.682261    0.817807
 C    0.942132    0.632625    0.121817
 C    0.275433    0.949997   -1.222339
 C   -0.477743   -0.287207   -1.751436
 C   -1.406462   -0.894643   -0.692241
 C   -0.687423   -1.106581    0.647289
 C    0.170683   -2.369803    0.662622
 C   -0.043461    3.372239   -1.242936
 C   -1.019436    4.504057   -1.032744
 N   -0.563754    2.128863   -1.117586
 O   -1.194934   -0.022894   -2.932826
 O   -2.493855    0.013726   -0.542652
 O    0.061979    0.049242    1.056401
 O    0.735169   -2.577588    1.929884
 O    1.147565    3.561008   -1.509308
 C    5.614690    0.687787    0.549504
 C    5.362194   -0.464626    1.569247
 C    3.934749   -0.970680    1.277302
 C    3.254478    0.210467    0.608534
 C    4.338473    0.760406   -0.306258
 C    4.002479    2.114702   -0.908204
 C    6.906908   -1.118836   -0.038932
 C    6.175148   -3.270435   -0.861775
 C    6.610380   -1.465396   -2.394065
 N    6.400747   -1.454225    1.293098
 N    6.158841   -1.830498   -1.060060
 O    3.211201   -1.373257    2.434883
 O    2.083837   -0.161109   -0.111697
 O    3.437035    2.964458    0.072371
 O    6.759608    0.285644   -0.206550
 H   -3.518939   -1.371820    0.592987
 H   -4.507018    1.467589    0.044733
 H   -6.388421    0.968392    1.529430
 H   -6.875922    0.316430   -0.749577
 H   -5.534414   -2.368646   -0.133732
 H   -6.507929   -1.122172   -2.745792
 H   -5.671388   -2.690887   -2.599166
 H   -1.000752    1.347058    2.904577
 H   -2.343532    1.872359    3.948839
 H   -1.387459    3.074184    3.036065
 H   -3.773568    0.419453    2.691564
 H   -6.477009   -1.357255    2.141670
 H   -8.035468   -1.761639   -0.152289
 H   -8.120830   -2.705737   -2.559736
 H    1.253720    1.577741    0.582866
 H    1.067809    1.198727   -1.934291
 H    0.277551   -1.036649   -2.019586
 H   -1.791840   -1.851951   -1.076172
 H   -1.431647   -1.213386    1.445734
 H   -0.474596   -3.232093    0.450506
 H    0.940478   -2.312962   -0.120380
 H   -1.990096    4.278400   -1.483103
 H   -0.607990    5.418991   -1.462307
 H   -1.184170    4.645234    0.039352
 H   -1.480920    2.041246   -0.692797
 H   -2.020688    0.403131   -2.655075
 H    1.370263   -1.857060    2.081666
 H    5.854204    1.640674    1.033885
 H    5.412297   -0.119625    2.608060
 H    4.001124   -1.796584    0.560330
 H    3.007099    0.948388    1.386117
 H    4.483292    0.041593   -1.118668
 H    3.297058    1.980730   -1.739160
 H    4.914934    2.574786   -1.319253
 H    7.983847   -1.355041   -0.123377
 H    5.546468   -3.745030   -1.622390
 H    7.190852   -3.703085   -0.936580
 H    5.770197   -3.512882    0.124367
 H    7.653640   -1.776172   -2.588603
 H    6.545801   -0.382576   -2.528555
 H    5.966570   -1.948274   -3.135895
 H    7.155095   -1.342367    1.963348
 H    3.520242   -2.252750    2.688034
 H    2.673675    3.393847   -0.349657
