33 
1oiq_ligand_ani.xyz
 O   -2.271119   -2.047176    0.147505
 C   -3.303977   -1.417597    0.261257
 C   -4.626200   -2.112389    0.525918
 N   -3.397548   -0.044703    0.149752
 C   -2.360332    0.857526   -0.057022
 N   -1.119023    0.412096    0.057154
 N   -2.751368    2.100664   -0.351229
 C   -1.756966    2.961502   -0.565650
 C   -0.412218    2.614617   -0.477170
 C   -0.120943    1.287172   -0.141111
 C    1.259710    0.808102    0.002606
 N    1.662196   -0.528183   -0.125993
 C    3.027145   -0.539734    0.121433
 N    3.484201    0.674271    0.402224
 C    2.419223    1.498574    0.333904
 C    2.600373    2.962001    0.631425
 C    3.724325   -1.773270    0.054245
 C    3.036812   -2.907562   -0.253728
 C    1.634243   -2.857063   -0.510674
 C    0.966366   -1.674061   -0.451237
 H   -4.921915   -2.649279   -0.379218
 H   -4.465591   -2.850791    1.313307
 H   -5.428346   -1.431485    0.819585
 H   -4.312946    0.379528    0.118668
 H   -2.049414    3.978223   -0.818368
 H    0.357436    3.347706   -0.681666
 H    2.607787    3.565908   -0.285370
 H    1.802471    3.345303    1.276685
 H    3.561737    3.105477    1.129281
 H    4.788550   -1.760284    0.254030
 H    3.554310   -3.862379   -0.306764
 H    1.092603   -3.765338   -0.752946
 H   -0.092302   -1.571099   -0.635789
