221 
1oj5_ligand_dft.xyz
 N    4.162022    2.601376   -0.257491
 C    3.228110    2.142209    0.817580
 C    2.947201    0.678211    0.496251
 O    2.470874    0.442293   -0.619964
 C    1.937161    2.968090    0.798986
 C    1.929153    4.157241    1.768805
 C    1.926103    3.679892    3.224954
 C    0.696199    5.019615    1.487881
 N    3.213606   -0.273438    1.392094
 C    3.837439   -0.073741    2.697777
 C    5.206453    0.591933    2.546766
 O    5.779717    0.620265    1.456768
 C    4.021024   -1.517523    3.228054
 C    4.160309   -2.346016    1.949305
 C    3.173837   -1.691494    0.991727
 N    5.765272    1.130192    3.646138
 C    7.169363    1.523450    3.561393
 C    7.979581    0.313197    3.065298
 O    7.720312   -0.804329    3.505945
 C    7.529539    1.900062    5.009929
 C    6.561525    1.064104    5.854269
 C    5.273396    1.080842    5.029888
 N    8.949674    0.615830    2.180450
 C    9.882936   -0.247986    1.454302
 C    9.558385   -0.281696   -0.042932
 O   10.456636   -0.355437   -0.869093
 C    9.988154   -1.696799    2.012351
 O   10.296986   -1.662129    3.381316
 C   11.087998   -2.479796    1.309801
 N    8.243608   -0.334477   -0.386999
 C    7.894112   -0.554088   -1.779828
 C    6.480800   -0.009486   -2.007401
 O    6.083262    0.939307   -1.331707
 C    8.187843   -2.011243   -2.187013
 C    7.457573   -3.094502   -1.373901
 C    6.035448   -3.302710   -1.828184
 O    5.985840   -3.691491   -3.103424
 O    5.046272   -3.102688   -1.150513
 N    5.730814   -0.557576   -2.982814
 C    4.336006   -0.188230   -3.152306
 C    3.515291   -1.460268   -3.364709
 O    3.898472   -2.349596   -4.130675
 C    4.139721    0.801696   -4.312554
 C    2.695429    1.288082   -4.459899
 C    2.212189    2.040380   -3.231458
 O    2.938510    2.875657   -2.669076
 N    0.961058    1.783014   -2.833822
 N    2.346781   -1.495261   -2.709909
 C    1.432318   -2.609507   -2.812225
 C    0.005210   -2.033611   -2.778438
 O   -0.188671   -0.816388   -2.907343
 C    1.739914   -3.630968   -1.688493
 C    1.333158   -5.047206   -1.996103
 O    2.189599   -5.939098   -1.498455
 O    0.336449   -5.383460   -2.608667
 N   -0.988431   -2.899998   -2.583308
 C   -2.378592   -2.486392   -2.399551
 C   -2.528179   -2.027867   -0.933233
 O   -3.053447   -2.724284   -0.077580
 C   -3.326038   -3.628289   -2.744224
 C   -3.133948   -4.224475   -4.146644
 C   -4.173664   -5.323740   -4.377325
 C   -3.211132   -3.160266   -5.244458
 N   -1.995898   -0.799570   -0.697702
 C   -1.655726   -0.340057    0.636322
 C   -1.690635    1.191957    0.662288
 O   -0.956066    1.871688    1.380372
 C   -0.298376   -0.920487    1.105494
 O   -0.195914   -2.291686    0.740452
 C   -0.060445   -0.748625    2.599036
 N   -2.593207    1.733604   -0.170924
 C   -2.868386    3.149664   -0.219294
 C   -4.290752    3.273806   -0.774670
 O   -4.785878    2.376503   -1.443912
 C   -1.825430    3.880474   -1.089260
 C   -1.936523    5.402119   -1.077673
 N   -4.938569    4.436149   -0.508525
 C   -6.374952    4.525577   -0.744329
 C   -7.060444    3.440756    0.116433
 O   -6.605852    3.176091    1.225236
 C   -6.739370    4.552537   -2.235648
 C   -8.035118    5.331165   -2.540290
 C   -7.793908    6.843164   -2.519631
 C   -8.617332    4.893348   -3.885547
 N   -8.178621    2.864714   -0.368461
 C   -8.962936    1.911397    0.408530
 C   -8.438021    0.480482    0.177630
 O   -9.092477   -0.374650   -0.401440
 C  -10.444706    2.024497    0.066896
 C  -11.031418    3.436477    0.204580
 C  -12.527155    3.405633   -0.118641
 C  -10.783767    4.040078    1.589390
 N   -7.196524    0.256674    0.672357
 C   -6.530461   -1.006356    0.437904
 C   -5.385491   -1.116356    1.433448
 O   -4.681796   -0.144240    1.696832
 C   -5.979757   -1.123717   -0.989559
 N   -5.197434   -2.334877    1.991498
 C   -4.004094   -2.631779    2.753500
 C   -3.474939   -3.975896    2.308367
 O   -4.155662   -4.890655    1.921050
 C   -4.253774   -2.633903    4.273561
 C   -4.828170   -1.306865    4.759639
 C   -3.887092   -0.144036    4.555238
 O   -2.699474   -0.231361    4.331154
 O   -4.512691    1.029692    4.694349
 O   -2.135296   -4.075425    2.464848
 H    3.660012    2.648861   -1.182825
 H    4.968822    1.956572   -0.388763
 H    4.513859    3.538419   -0.057589
 H    3.754188    2.271396    1.760971
 H    1.771683    3.315696   -0.228545
 H    1.086767    2.322778    1.045631
 H    2.828318    4.772297    1.602024
 H    1.043976    3.056945    3.413432
 H    1.896474    4.529940    3.913740
 H    2.818789    3.092607    3.478829
 H    0.714445    5.416824    0.466647
 H   -0.210597    4.414153    1.603067
 H    0.640251    5.866795    2.178756
 H    3.183975    0.517481    3.347677
 H    4.895746   -1.606180    3.876760
 H    3.131104   -1.811333    3.793632
 H    3.941704   -3.403427    2.107323
 H    5.173513   -2.262598    1.547102
 H    2.157463   -2.082588    1.104359
 H    3.480951   -1.782170   -0.049235
 H    7.278970    2.368044    2.873500
 H    8.578783    1.698321    5.237672
 H    7.351141    2.969442    5.162281
 H    6.928797    0.038076    5.934766
 H    6.415998    1.467533    6.858305
 H    4.668933    1.971739    5.240995
 H    4.658159    0.196945    5.204657
 H    9.008678    1.589037    1.916563
 H   10.876905    0.200334    1.542221
 H    9.022221   -2.192891    1.846663
 H    9.447375   -1.546347    3.834381
 H   12.053187   -1.981283    1.439995
 H   10.902001   -2.589094    0.239602
 H   11.148894   -3.469738    1.768074
 H    7.513004   -0.074380    0.268611
 H    8.556823    0.075772   -2.390226
 H    8.015447   -2.158982   -3.258349
 H    9.263922   -2.134202   -2.043649
 H    7.455472   -2.848225   -0.309674
 H    7.990532   -4.041948   -1.505084
 H    5.069379   -3.575795   -3.439588
 H    6.065515   -1.343245   -3.525620
 H    4.026150    0.290099   -2.223166
 H    4.464275    0.330589   -5.245928
 H    4.789960    1.659847   -4.120619
 H    2.645350    1.989086   -5.300854
 H    2.015242    0.462701   -4.692327
 H    0.660300    2.191674   -1.959783
 H    0.502363    0.915040   -3.103648
 H    2.169726   -0.796707   -1.990013
 H    1.598485   -3.078177   -3.788123
 H    2.815991   -3.615569   -1.496526
 H    1.228204   -3.327729   -0.763576
 H    1.844409   -6.821951   -1.713994
 H   -0.760187   -3.892358   -2.525639
 H   -2.554616   -1.627753   -3.054843
 H   -3.228944   -4.409747   -1.981775
 H   -4.349675   -3.244518   -2.655921
 H   -2.140494   -4.691074   -4.194582
 H   -4.119679   -6.092875   -3.599293
 H   -5.188497   -4.907672   -4.369030
 H   -4.019920   -5.811153   -5.345480
 H   -4.160249   -2.612102   -5.190170
 H   -3.150548   -3.622519   -6.235018
 H   -2.394457   -2.433109   -5.172372
 H   -1.437734   -0.425279   -1.461101
 H   -2.457356   -0.657383    1.309150
 H    0.491306   -0.426219    0.530378
 H   -0.875759   -2.785340    1.229362
 H    0.911186   -1.179122    2.864321
 H   -0.836207   -1.260050    3.177320
 H   -0.086100    0.305156    2.878687
 H   -3.254493    1.137263   -0.655869
 H   -2.826393    3.554019    0.800152
 H   -1.895742    3.494189   -2.113043
 H   -0.846963    3.586586   -0.691518
 H   -1.111743    5.848536   -1.641009
 H   -2.872717    5.743688   -1.528086
 H   -1.886408    5.792033   -0.053653
 H   -4.584920    4.974061    0.268814
 H   -6.684328    5.477289   -0.296869
 H   -5.910607    5.026464   -2.774074
 H   -6.787938    3.526761   -2.616136
 H   -8.778062    5.107847   -1.760423
 H   -8.730328    7.390344   -2.667358
 H   -7.104687    7.132305   -3.322214
 H   -7.362264    7.181725   -1.570659
 H   -7.896211    5.066476   -4.693426
 H   -9.527878    5.452583   -4.123178
 H   -8.867335    3.825807   -3.887715
 H   -8.439137    3.003181   -1.332854
 H   -8.787204    2.165453    1.457817
 H  -10.988482    1.335091    0.723708
 H  -10.604799    1.645933   -0.950069
 H  -10.544596    4.087389   -0.536453
 H  -12.712197    2.982607   -1.112132
 H  -13.068942    2.792587    0.611717
 H  -12.956414    4.412815   -0.093701
 H  -11.277512    5.013290    1.681407
 H  -11.185749    3.387522    2.374606
 H   -9.717114    4.190530    1.789004
 H   -6.652303    1.023001    1.060972
 H   -7.262519   -1.803768    0.602246
 H   -5.455209   -2.075857   -1.113500
 H   -5.291420   -0.297773   -1.192911
 H   -6.811577   -1.076432   -1.695904
 H   -5.715552   -3.131058    1.643124
 H   -3.260239   -1.869953    2.534039
 H   -4.951354   -3.440362    4.524689
 H   -3.304769   -2.837078    4.779795
 H   -5.048476   -1.364963    5.832424
 H   -5.776126   -1.077924    4.264906
 H   -3.855309    1.720205    4.514397
 H   -1.903375   -4.986513    2.219627
