221 
1oj5_ligand_xtb.xyz
 N    4.677368    2.597448   -1.229839
 C    4.066279    2.511846    0.112505
 C    3.756858    1.027801    0.346376
 O    3.290994    0.376454   -0.584131
 C    2.758390    3.300929    0.189854
 C    2.869932    4.780329   -0.197394
 C    3.824353    5.543013    0.719295
 C    1.473240    5.396107   -0.140498
 N    3.958923    0.511326    1.552233
 C    4.563678    1.181159    2.688851
 C    5.994898    1.602887    2.334343
 O    6.600869    1.081953    1.409250
 C    4.579315    0.105974    3.788102
 C    4.669503   -1.195731    2.996128
 C    3.804229   -0.923039    1.774350
 N    6.521167    2.613926    3.035887
 C    7.900798    2.985554    2.741280
 C    8.740342    1.694428    2.715022
 O    8.550426    0.832062    3.552041
 C    8.309272    3.910427    3.893272
 C    7.357368    3.508651    5.018511
 C    6.057473    3.216893    4.271701
 N    9.664418    1.679880    1.744999
 C   10.586729    0.633669    1.324901
 C   10.191428    0.077385   -0.047523
 O   11.028181   -0.236011   -0.869734
 C   10.729655   -0.549404    2.328300
 O   11.076541   -0.084154    3.602227
 C   11.837712   -1.493129    1.872828
 N    8.871919   -0.097911   -0.256749
 C    8.437093   -0.802875   -1.449297
 C    7.018129   -0.365385   -1.792909
 O    6.594134    0.711729   -1.386013
 C    8.681713   -2.311038   -1.262638
 C    7.818107   -2.942334   -0.161645
 C    6.462226   -3.330280   -0.696504
 O    6.559715   -4.178373   -1.705319
 O    5.408777   -2.908642   -0.276950
 N    6.305005   -1.172227   -2.585352
 C    4.899992   -0.955042   -2.871745
 C    4.135123   -2.271681   -2.687812
 O    4.538944   -3.324547   -3.160205
 C    4.694441   -0.428373   -4.301570
 C    3.230100   -0.072638   -4.568787
 C    2.744359    0.990349   -3.604113
 O    3.407645    2.011731   -3.391080
 N    1.580509    0.760035   -3.020697
 N    2.988826   -2.147943   -2.016486
 C    2.103294   -3.257833   -1.737798
 C    0.681290   -2.810253   -2.102506
 O    0.510718   -1.823378   -2.822837
 C    2.270420   -3.668873   -0.259303
 C    1.900998   -5.095658    0.045724
 O    2.799131   -5.689251    0.815112
 O    0.902358   -5.658248   -0.339942
 N   -0.315093   -3.511509   -1.585267
 C   -1.712722   -3.116836   -1.699237
 C   -1.911139   -1.996380   -0.661330
 O   -2.461397   -2.151741    0.409405
 C   -2.632034   -4.296612   -1.414845
 C   -2.420873   -5.502889   -2.336798
 C   -3.357064   -6.628688   -1.902840
 C   -2.668747   -5.146805   -3.800843
 N   -1.361499   -0.827526   -1.052834
 C   -1.120630    0.240391   -0.104084
 C   -1.093447    1.556154   -0.888551
 O   -0.061093    2.177206   -1.111961
 C    0.189673    0.011198    0.683089
 O    0.327410   -1.340031    1.065849
 C    0.228800    0.947334    1.889963
 N   -2.293893    1.908438   -1.325982
 C   -2.635099    3.074870   -2.110143
 C   -4.167215    3.126834   -2.023136
 O   -4.783889    2.104454   -1.782746
 C   -2.159553    2.913389   -3.564921
 C   -2.441476    4.137019   -4.425538
 N   -4.749456    4.312896   -2.228896
 C   -6.181907    4.467119   -1.974234
 C   -6.414319    3.836271   -0.580626
 O   -5.798600    4.284408    0.370258
 C   -7.000810    3.898971   -3.133482
 C   -8.490591    4.268741   -3.062579
 C   -8.725702    5.690790   -3.568137
 C   -9.312147    3.276576   -3.883463
 N   -7.295160    2.835153   -0.493384
 C   -7.415352    2.026229    0.697597
 C   -7.220036    0.564639    0.294079
 O   -7.575023    0.155798   -0.793902
 C   -8.823983    2.138275    1.303109
 C   -9.192450    3.555467    1.753851
 C  -10.652192    3.566729    2.202378
 C   -8.280650    4.042625    2.876680
 N   -6.648199   -0.207231    1.240798
 C   -6.744236   -1.653385    1.189289
 C   -7.945274   -2.052026    2.058275
 O   -8.197959   -1.455980    3.088117
 C   -5.488938   -2.318203    1.745039
 N   -8.685748   -3.061786    1.576782
 C   -9.814831   -3.618028    2.285924
 C   -9.862597   -5.106675    1.995381
 O   -9.136192   -5.653938    1.206872
 C  -11.146570   -2.959778    1.872540
 C  -11.124193   -1.450032    2.099842
 C  -10.850130   -1.095778    3.544837
 O  -10.956902   -1.844351    4.476793
 O  -10.521446    0.191692    3.684017
 O  -10.804380   -5.732231    2.687270
 H    3.978254    2.371433   -2.023503
 H    5.445258    1.879785   -1.316798
 H    5.052556    3.526942   -1.410918
 H    4.787629    2.883579    0.840779
 H    2.019510    2.825102   -0.456531
 H    2.383026    3.235067    1.213194
 H    3.223921    4.858681   -1.230575
 H    3.502581    5.456716    1.755215
 H    3.829065    6.597619    0.456947
 H    4.846879    5.177114    0.643490
 H    0.785438    4.815876   -0.749856
 H    1.101173    5.405964    0.881445
 H    1.489734    6.418244   -0.508590
 H    3.975122    2.058895    2.976344
 H    5.421313    0.224862    4.467146
 H    3.651128    0.145616    4.359811
 H    4.324920   -2.055160    3.564428
 H    5.699973   -1.367367    2.687429
 H    2.749626   -1.151941    1.952540
 H    4.145759   -1.465842    0.893334
 H    7.944964    3.482589    1.765572
 H    9.353772    3.777793    4.166863
 H    8.150482    4.951531    3.610251
 H    7.716511    2.596466    5.494384
 H    7.242258    4.284299    5.770892
 H    5.521424    4.147171    4.045096
 H    5.400141    2.550243    4.826053
 H    9.695116    2.483005    1.134334
 H   11.579851    1.088180    1.222863
 H    9.769153   -1.084857    2.361897
 H   10.263835    0.216872    4.036678
 H   12.791816   -0.978552    1.941330
 H   11.687779   -1.826008    0.851930
 H   11.865079   -2.352612    2.536013
 H    8.161646    0.246834    0.377422
 H    9.090823   -0.469935   -2.271689
 H    8.541879   -2.851881   -2.198981
 H    9.734076   -2.409921   -0.992642
 H    7.697141   -2.260727    0.679782
 H    8.303547   -3.855252    0.186646
 H    5.709069   -4.276802   -2.192633
 H    6.704008   -2.020175   -2.961826
 H    4.532902   -0.223972   -2.149976
 H    5.023209   -1.186690   -5.013844
 H    5.309669    0.464061   -4.430299
 H    3.150823    0.332264   -5.579903
 H    2.595837   -0.955327   -4.500663
 H    1.192575    1.418637   -2.351103
 H    1.126491   -0.140683   -3.123218
 H    2.793082   -1.277284   -1.534776
 H    2.400369   -4.081711   -2.399422
 H    3.318245   -3.532735    0.014950
 H    1.660068   -3.010056    0.366651
 H    2.544616   -6.604023    1.022963
 H   -0.115371   -4.358264   -1.052625
 H   -1.881605   -2.705377   -2.699853
 H   -2.481216   -4.601199   -0.377072
 H   -3.661832   -3.946116   -1.505387
 H   -1.389621   -5.855502   -2.231696
 H   -3.178720   -6.897987   -0.864797
 H   -4.395094   -6.320666   -2.004765
 H   -3.200306   -7.511944   -2.516358
 H   -3.656554   -4.708271   -3.924319
 H   -2.615124   -6.041514   -4.415840
 H   -1.925896   -4.444161   -4.170714
 H   -0.794128   -0.837686   -1.894598
 H   -1.964000    0.240535    0.597823
 H    1.043333    0.206004    0.026071
 H   -0.478385   -1.610772    1.528570
 H    1.167725    0.828393    2.424177
 H   -0.589726    0.717264    2.569672
 H    0.133391    1.976913    1.559290
 H   -3.111428    1.319645   -1.161236
 H   -2.179401    3.966092   -1.664836
 H   -2.649197    2.036577   -3.992994
 H   -1.084404    2.725679   -3.540138
 H   -2.012855    3.995401   -5.414123
 H   -3.510252    4.296159   -4.540662
 H   -1.995698    5.028043   -3.988328
 H   -4.182213    5.139239   -2.319686
 H   -6.372362    5.538865   -1.868706
 H   -6.584442    4.291881   -4.065189
 H   -6.872565    2.815283   -3.160207
 H   -8.822408    4.217652   -2.020819
 H   -9.778573    5.949162   -3.489041
 H   -8.432157    5.777810   -4.612284
 H   -8.158611    6.414954   -2.988151
 H   -8.992657    3.288509   -4.923277
 H  -10.367108    3.536247   -3.848110
 H   -9.196819    2.265136   -3.500343
 H   -7.618206    2.361015   -1.326223
 H   -6.652602    2.351582    1.408582
 H   -8.902270    1.458223    2.154009
 H   -9.539958    1.808908    0.545691
 H   -9.081033    4.234356    0.901245
 H  -11.309135    3.284761    1.382762
 H  -10.800405    2.860462    3.015632
 H  -10.939209    4.557810    2.544745
 H   -8.640211    4.992791    3.264164
 H   -8.264520    3.324043    3.693557
 H   -7.267492    4.193844    2.513689
 H   -6.554885    0.167344    2.174924
 H   -6.909386   -1.925071    0.143541
 H   -5.593230   -3.399079    1.697637
 H   -5.351256   -2.030639    2.785114
 H   -4.608202   -2.029641    1.178198
 H   -8.390559   -3.577954    0.759218
 H   -9.677061   -3.457294    3.361570
 H  -11.341688   -3.161785    0.817718
 H  -11.936027   -3.408424    2.475355
 H  -12.095961   -1.024361    1.839178
 H  -10.374514   -0.962270    1.476466
 H  -10.316115    0.376471    4.614160
 H  -10.822025   -6.680712    2.478762
