221 
1oj5_ligand_ani.xyz
 N    5.274523    2.529882   -0.322352
 C    4.167039    2.311321    0.655108
 C    3.815652    0.813901    0.580830
 O    3.211538    0.396712   -0.411155
 C    2.933154    3.157118    0.336106
 C    3.069065    4.672665    0.528479
 C    3.347718    5.054487    1.983620
 C    1.796723    5.351317    0.021065
 N    4.200553   -0.017800    1.575493
 C    4.888152    0.350780    2.810435
 C    6.275738    0.974168    2.561182
 O    6.875881    0.849532    1.497269
 C    4.998809   -0.995078    3.565061
 C    5.000316   -2.049040    2.454567
 C    4.057191   -1.468646    1.405729
 N    6.808186    1.695511    3.580373
 C    8.102930    2.350387    3.397831
 C    9.190716    1.289346    3.197708
 O    9.256002    0.325064    3.953168
 C    8.303683    3.120673    4.714786
 C    7.503653    2.305747    5.734775
 C    6.282397    1.841098    4.940833
 N   10.043768    1.532404    2.169592
 C   11.070411    0.673027    1.571748
 C   10.682445    0.175067    0.172451
 O   11.559490   -0.044800   -0.655393
 C   11.500768   -0.518627    2.464901
 O   11.904796   -0.047563    3.728849
 C   12.682643   -1.271388    1.870224
 N    9.373556   -0.080920   -0.089822
 C    9.021465   -0.623056   -1.389741
 C    7.607613   -0.151738   -1.753383
 O    7.197643    0.934041   -1.354571
 C    9.304350   -2.132635   -1.444888
 C    8.516536   -3.001426   -0.452903
 C    7.165165   -3.456086   -0.958794
 O    7.246354   -3.946422   -2.205261
 O    6.123565   -3.399172   -0.339294
 N    6.859143   -0.931836   -2.571337
 C    5.461530   -0.627627   -2.820051
 C    4.671646   -1.935438   -2.837138
 O    5.071789   -2.921427   -3.458316
 C    5.247554    0.124345   -4.144654
 C    3.795982    0.537861   -4.387660
 C    3.298347    1.601993   -3.414039
 O    4.060836    2.410539   -2.888205
 N    1.951123    1.636540   -3.241579
 N    3.503206   -1.914825   -2.164926
 C    2.537439   -2.989499   -2.173203
 C    1.154164   -2.384242   -2.507700
 O    1.001312   -1.185854   -2.759005
 C    2.573967   -3.715428   -0.807784
 C    2.047152   -5.130785   -0.795224
 O    2.414917   -5.784426    0.312995
 O    1.366504   -5.652886   -1.655266
 N    0.115281   -3.240182   -2.476442
 C   -1.268478   -2.772467   -2.429865
 C   -1.528341   -2.194258   -1.024486
 O   -2.081501   -2.839036   -0.137939
 C   -2.244292   -3.900392   -2.741300
 C   -1.954135   -4.673394   -4.035838
 C   -3.062577   -5.698951   -4.277718
 C   -1.805740   -3.744206   -5.242395
 N   -1.068115   -0.928104   -0.834626
 C   -1.005558   -0.343592    0.496329
 C   -1.092325    1.186162    0.376116
 O   -0.473855    1.956840    1.101910
 C    0.235781   -0.829898    1.285477
 O    0.366810   -2.240836    1.172077
 C    0.190086   -0.444798    2.755525
 N   -1.928779    1.633435   -0.590222
 C   -2.130221    3.043941   -0.832896
 C   -3.464626    3.174321   -1.569064
 O   -3.707114    2.416329   -2.495892
 C   -1.002589    3.631106   -1.700904
 C   -1.103682    5.139667   -1.901057
 N   -4.270304    4.186194   -1.139014
 C   -5.642173    4.475944   -1.550678
 C   -6.553457    3.977914   -0.411130
 O   -6.257257    4.283065    0.739083
 C   -5.988016    4.037311   -2.970488
 C   -7.245823    4.688604   -3.564304
 C   -7.057659    6.183748   -3.838929
 C   -7.627369    3.964846   -4.856488
 N   -7.652179    3.236892   -0.717567
 C   -8.469825    2.604366    0.298012
 C   -8.684938    1.148247   -0.127140
 O   -8.595602    0.812284   -1.301371
 C   -9.850599    3.273841    0.446274
 C   -9.827466    4.758330    0.833012
 C  -11.254951    5.305498    0.828112
 C   -9.165072    5.005327    2.188593
 N   -9.024424    0.272507    0.848710
 C   -9.341931   -1.102342    0.540709
 C  -10.151070   -1.656852    1.712675
 O  -10.151389   -1.111735    2.802491
 C   -8.079396   -1.946242    0.317342
 N  -10.855650   -2.805017    1.454040
 C  -11.285428   -3.622258    2.568499
 C  -10.088092   -4.397793    3.113094
 O   -8.971339   -4.342423    2.657331
 C  -12.437928   -4.555216    2.175130
 C  -13.674998   -3.799152    1.701074
 C  -14.419989   -3.121083    2.825477
 O  -14.129923   -3.155541    3.999004
 O  -15.499452   -2.454860    2.373563
 O  -10.409933   -5.164151    4.168234
 H    4.916232    2.439055   -1.295725
 H    6.023569    1.822640   -0.186398
 H    5.702097    3.456994   -0.194042
 H    4.548877    2.564959    1.643844
 H    2.649985    2.952206   -0.701204
 H    2.099989    2.799163    0.955148
 H    3.899599    5.046598   -0.090571
 H    2.555131    4.675619    2.642420
 H    3.385616    6.143740    2.098064
 H    4.302488    4.652977    2.339849
 H    1.650216    5.158730   -1.049578
 H    0.908757    4.973084    0.548830
 H    1.837837    6.436250    0.165046
 H    4.276916    1.067007    3.376173
 H    5.888061   -1.061688    4.201623
 H    4.118186   -1.109137    4.208808
 H    4.685661   -3.037442    2.801192
 H    6.002832   -2.143966    2.026263
 H    3.009899   -1.771102    1.558353
 H    4.344316   -1.740536    0.386674
 H    8.073325    3.020520    2.531416
 H    9.360771    3.221642    4.978972
 H    7.888444    4.129419    4.612711
 H    8.088228    1.433705    6.037644
 H    7.233558    2.880346    6.624244
 H    5.471294    2.582909    4.969344
 H    5.881292    0.894799    5.318127
 H    9.878086    2.389583    1.662361
 H   11.959658    1.292387    1.421216
 H   10.640369   -1.197535    2.566860
 H   11.081791    0.055253    4.234395
 H   13.527328   -0.585995    1.748279
 H   12.438857   -1.703227    0.896324
 H   12.981142   -2.069026    2.555086
 H    8.625944    0.256958    0.515149
 H    9.695380   -0.155169   -2.119371
 H    9.182231   -2.507555   -2.465265
 H   10.367970   -2.226345   -1.208180
 H    8.379080   -2.477642    0.498217
 H    9.093681   -3.912110   -0.245805
 H    6.335367   -4.032019   -2.557938
 H    7.200535   -1.815517   -2.923704
 H    5.120838    0.012455   -1.999829
 H    5.585040   -0.516359   -4.966578
 H    5.872511    1.021590   -4.130516
 H    3.714628    0.969597   -5.394608
 H    3.117391   -0.323704   -4.367833
 H    1.607515    2.274550   -2.536956
 H    1.421453    0.778974   -3.354824
 H    3.227115   -1.059009   -1.687181
 H    2.820346   -3.698776   -2.961502
 H    3.617506   -3.772085   -0.478540
 H    2.018823   -3.144899   -0.049606
 H    2.036564   -6.678445    0.249502
 H    0.297106   -4.221771   -2.291998
 H   -1.361456   -1.958051   -3.158955
 H   -2.260652   -4.594088   -1.890527
 H   -3.251683   -3.467854   -2.797001
 H   -1.008954   -5.223797   -3.903116
 H   -3.168702   -6.381536   -3.426890
 H   -4.025355   -5.193939   -4.425506
 H   -2.859088   -6.299626   -5.170968
 H   -2.716031   -3.147199   -5.384906
 H   -1.640153   -4.321914   -6.158339
 H   -0.961533   -3.055462   -5.123650
 H   -0.378546   -0.594189   -1.503976
 H   -1.904253   -0.694024    1.022952
 H    1.125900   -0.401284    0.805923
 H   -0.526526   -2.629980    1.176406
 H    1.071516   -0.844236    3.268699
 H   -0.700127   -0.877108    3.229652
 H    0.161666    0.640000    2.866304
 H   -2.356410    0.993374   -1.246707
 H   -2.146949    3.559541    0.134225
 H   -1.022657    3.113363   -2.668403
 H   -0.053168    3.381402   -1.208262
 H   -0.276564    5.503140   -2.520228
 H   -2.038134    5.422463   -2.395949
 H   -1.057879    5.668105   -0.940923
 H   -4.108722    4.490356   -0.186481
 H   -5.723178    5.570525   -1.498830
 H   -5.131915    4.292321   -3.603103
 H   -6.059894    2.944606   -3.009766
 H   -8.075120    4.580906   -2.850413
 H   -7.955721    6.603751   -4.305570
 H   -6.217502    6.345193   -4.526500
 H   -6.863127    6.762535   -2.928996
 H   -6.815864    4.039862   -5.591681
 H   -8.528532    4.398149   -5.304419
 H   -7.817595    2.900343   -4.677758
 H   -7.740203    2.816031   -1.634848
 H   -7.928378    2.653837    1.250390
 H  -10.426676    2.713816    1.198172
 H  -10.388856    3.160890   -0.505118
 H   -9.253423    5.297559    0.067409
 H  -11.734508    5.155225   -0.145781
 H  -11.867470    4.800831    1.586581
 H  -11.267329    6.378679    1.048991
 H   -9.223070    6.068985    2.447068
 H   -9.677882    4.446175    2.983127
 H   -8.108776    4.720185    2.183207
 H   -9.150570    0.550136    1.812995
 H   -9.942705   -1.123716   -0.376360
 H   -8.334353   -2.988278    0.096563
 H   -7.439407   -1.922498    1.205513
 H   -7.522515   -1.536367   -0.529275
 H  -10.557791   -3.310877    0.629549
 H  -11.622259   -2.944995    3.358237
 H  -12.092795   -5.228415    1.379783
 H  -12.693632   -5.176233    3.037251
 H  -14.381966   -4.481094    1.214577
 H  -13.414408   -3.034310    0.960480
 H  -15.919885   -2.060358    3.155633
 H   -9.590819   -5.607506    4.446156
