31 
1okl_ligand_ani.xyz
 C    1.283741   -0.537459   -0.019473
 C    1.140942   -1.901871   -0.014484
 C   -0.142320   -2.471843   -0.022929
 C   -1.258623   -1.677739   -0.024631
 C   -1.157193   -0.252724   -0.016474
 C   -2.314505    0.612509   -0.002276
 C   -2.137724    1.973184   -0.004739
 C   -0.851760    2.541059   -0.012398
 C    0.264361    1.746515   -0.018648
 C    0.138001    0.330742   -0.019734
 N   -3.653240    0.115328    0.015850
 C   -4.092490   -0.515347   -1.213082
 C   -4.055252   -0.535697    1.247167
 S    2.908712    0.189749    0.030943
 O    3.156575    0.687488    1.378354
 O    3.056996    1.068603   -1.122055
 N    3.942040   -1.101608   -0.207511
 H    2.017529   -2.539717   -0.007079
 H   -0.245066   -3.551955   -0.025976
 H   -2.234992   -2.145630   -0.028751
 H   -3.015864    2.614901    0.000572
 H   -0.745195    3.621493   -0.014935
 H    1.252641    2.192025   -0.029371
 H   -3.521378   -1.412578   -1.500995
 H   -5.146750   -0.797512   -1.112574
 H   -4.015690    0.206446   -2.033008
 H   -5.113577   -0.811324    1.175371
 H   -3.480572   -1.440971    1.500375
 H   -3.949269    0.170082    2.077761
 H    4.464357   -0.966623   -1.066594
 H    4.561182   -1.187358    0.591552
