24 
1oko_ligand_ani.xyz
 C    0.418099    1.424533   -0.197237
 C    1.484111    0.388415    0.125681
 C    1.177271   -0.929762   -0.562998
 C   -0.233222   -1.384355   -0.195124
 C   -1.228045   -0.257284   -0.468166
 C   -2.639575   -0.573022    0.002399
 O    0.717904    2.580928    0.525497
 O    2.767814    0.795784   -0.303327
 O    2.070390   -1.937320   -0.128302
 O   -0.284818   -1.709989    1.174428
 O   -0.851711    0.950942    0.196891
 O   -3.516160    0.483548   -0.312394
 H    0.401986    1.633238   -1.285346
 H    1.458714    0.218659    1.211648
 H    1.249051   -0.793036   -1.654792
 H   -0.503814   -2.255623   -0.817159
 H   -1.258103   -0.057836   -1.554226
 H   -2.619562   -0.790786    1.079372
 H   -3.010426   -1.462182   -0.518749
 H   -0.109673    3.068285    0.625640
 H    2.965688    1.621097    0.159199
 H    2.953422   -1.538509   -0.127261
 H    0.507412   -2.242111    1.344672
 H   -3.133878    1.276506    0.087321
