109 
1okv_ligand_ani.xyz
 N    0.069057    1.770975    1.186546
 C    0.264181    2.769951    0.110603
 C    1.202784    2.215707   -0.974284
 O    0.979760    2.385986   -2.168755
 C    0.723719    4.113669    0.688886
 C    1.173388    5.149609   -0.346981
 C    0.166711    5.432296   -1.468226
 N   -1.160257    5.744935   -0.959655
 C   -2.317906    5.079974   -1.320312
 N   -3.450733    5.704713   -0.819055
 N   -2.450648    4.012688   -2.024578
 N    2.296963    1.557055   -0.511355
 C    3.129447    0.739279   -1.360174
 C    3.022598   -0.723399   -0.875481
 O    2.954190   -1.002599    0.324875
 C    4.604570    1.216415   -1.431582
 C    5.107487    2.031268   -0.231647
 C    5.277337    1.237170    1.079218
 N    4.997212    2.026686    2.281961
 C    3.689158    2.213730    2.702938
 N    2.700907    1.400805    2.546425
 N    3.449946    3.440483    3.302456
 N    3.023737   -1.659404   -1.850277
 C    2.683214   -3.083563   -1.688022
 C    1.204100   -3.272187   -1.295545
 O    0.408597   -3.787660   -2.068428
 C    3.670138   -3.822665   -0.773811
 C    3.284340   -5.277148   -0.477854
 C    4.376206   -5.932430    0.367034
 C    3.018968   -6.082874   -1.749396
 N    0.864523   -2.869625   -0.037880
 C   -0.525973   -2.646739    0.292410
 C   -1.008968   -1.315520   -0.313232
 O   -0.244182   -0.385893   -0.570724
 C   -0.721045   -2.709918    1.828487
 C   -2.188551   -2.822177    2.278835
 C   -0.064943   -1.527533    2.557293
 C   -2.973524   -3.977690    1.660469
 N   -2.352114   -1.235646   -0.533616
 C   -2.985680    0.025759   -0.866560
 C   -3.022027    0.978016    0.353661
 O   -2.603310    0.676572    1.461399
 C   -4.381244   -0.230767   -1.480428
 C   -5.297064   -1.046395   -0.593478
 C   -6.030395   -0.451360    0.436700
 C   -5.393658   -2.430495   -0.766330
 C   -6.825474   -1.222027    1.280841
 C   -6.184764   -3.204847    0.078587
 C   -6.901365   -2.600136    1.106580
 N   -3.574719    2.201306    0.097610
 H   -0.835330    1.907400    1.662381
 H    0.849352    1.766857    1.886581
 H    0.012531    0.838615    0.741104
 H   -0.691469    2.908654   -0.403438
 H   -0.110433    4.520629    1.271702
 H    1.553286    3.941058    1.386028
 H    2.114911    4.823420   -0.810751
 H    1.397458    6.085335    0.180009
 H    0.124859    4.566748   -2.129184
 H    0.536432    6.271590   -2.070235
 H   -1.312985    6.714141   -0.715556
 H   -3.378031    6.019324    0.138595
 H   -4.285889    5.159285   -0.982429
 H   -1.570045    3.685590   -2.414012
 H    2.372505    1.380915    0.487064
 H    2.695077    0.805955   -2.365179
 H    5.252930    0.347148   -1.605296
 H    4.695376    1.847721   -2.323107
 H    6.068727    2.484733   -0.505575
 H    4.417070    2.869587   -0.071995
 H    4.641199    0.352028    1.083944
 H    6.305856    0.865713    1.155423
 H    5.540064    2.882603    2.306283
 H    3.008106    0.477153    2.257055
 H    2.575614    3.438810    3.812642
 H    4.208037    3.810359    3.860604
 H    3.039915   -1.320885   -2.800165
 H    2.747429   -3.505127   -2.692830
 H    4.650726   -3.793440   -1.267256
 H    3.778259   -3.273069    0.164699
 H    2.358242   -5.261130    0.113892
 H    4.103119   -6.957032    0.643527
 H    5.321945   -5.975485   -0.188558
 H    4.554283   -5.369028    1.290113
 H    2.151881   -5.704121   -2.299646
 H    2.822404   -7.132263   -1.502359
 H    3.890704   -6.059464   -2.417344
 H    1.543840   -2.270305    0.420186
 H   -1.089243   -3.456931   -0.185714
 H   -0.210174   -3.637160    2.126965
 H   -2.704584   -1.866853    2.112537
 H   -2.177114   -2.957330    3.368298
 H    0.971319   -1.338750    2.242771
 H   -0.638171   -0.609997    2.387873
 H   -0.049227   -1.716136    3.636654
 H   -2.452840   -4.930275    1.811160
 H   -3.129680   -3.851518    0.582726
 H   -3.966084   -4.061443    2.115751
 H   -2.920649   -1.870304    0.010843
 H   -2.361072    0.510829   -1.628564
 H   -4.845432    0.731703   -1.723062
 H   -4.227221   -0.757673   -2.428272
 H   -5.972353    0.626367    0.580993
 H   -4.828453   -2.907123   -1.566249
 H   -7.389223   -0.744256    2.078024
 H   -6.225351   -4.283812   -0.053268
 H   -7.519176   -3.202853    1.767338
 H   -3.487966    2.862390    0.859057
 H   -3.437427    2.617236   -0.824972
