63 
1okz_ligand_ani.xyz
 O    1.044977    4.398657    1.208969
 C    1.560597    3.826998    0.033818
 N    3.005997    3.734925    0.054597
 C    3.502590    2.443609    0.062223
 O    4.672351    2.154402    0.211834
 C    2.305684    1.576984   -0.142511
 C    2.193688    0.186768   -0.276958
 C    3.109705   -0.911608   -0.176481
 C    2.362570   -2.083433   -0.363681
 C    2.955319   -3.348770   -0.312808
 C    4.315826   -3.413656   -0.074566
 C    5.077977   -2.247167    0.109585
 C    4.486962   -1.000284    0.060277
 N    1.037150   -1.743195   -0.579475
 C    0.934055   -0.368889   -0.519832
 C   -0.214498    0.432775   -0.555933
 N   -1.554788    0.072547   -0.636786
 C   -2.294128    1.249823   -0.468468
 C   -1.421920    2.331291   -0.301291
 C   -1.917934    3.629675   -0.116560
 C   -3.281126    3.826487   -0.089607
 C   -4.153410    2.733735   -0.222634
 C   -3.680570    1.446046   -0.392651
 C   -0.090167    1.809142   -0.349844
 C    1.175500    2.378941   -0.190395
 C   -2.055037   -1.223752   -1.137023
 O   -1.002925   -1.989030   -1.736190
 C   -0.028727   -2.657479   -0.955693
 C   -0.600385   -3.400060    0.258528
 C   -1.682120   -2.612740    0.975426
 N   -1.196476   -1.414184    1.746028
 C   -0.855928   -1.629752    3.155245
 C   -2.713254   -2.067863   -0.019798
 O   -3.599728   -1.244126    0.712522
 C   -4.733667   -1.909183    1.226880
 C   -3.021272   -1.021845   -2.300413
 H    1.264907    3.797523    1.936011
 H    1.229611    4.491041   -0.770931
 H    3.563432    4.493659    0.416405
 H    2.365602   -4.251112   -0.453208
 H    4.804855   -4.383260   -0.030580
 H    6.145779   -2.330400    0.294271
 H    5.061648   -0.090003    0.199767
 H   -1.231623    4.460129    0.019835
 H   -3.684126    4.825977    0.047804
 H   -5.226354    2.901519   -0.184153
 H   -4.368155    0.611971   -0.423741
 H    0.420226   -3.382109   -1.640629
 H   -1.027537   -4.343946   -0.091849
 H    0.220528   -3.631090    0.945726
 H   -2.191503   -3.272850    1.687376
 H   -0.372821   -1.013537    1.249050
 H   -1.964992   -0.717245    1.645422
 H   -0.694567   -0.676096    3.661962
 H    0.056757   -2.226897    3.256801
 H   -1.660056   -2.160289    3.674801
 H   -3.245668   -2.895309   -0.505570
 H   -4.456924   -2.626472    2.013804
 H   -5.289927   -2.434185    0.436067
 H   -5.379110   -1.141269    1.662838
 H   -3.186772   -1.995679   -2.770803
 H   -3.988357   -0.611672   -2.004755
 H   -2.543409   -0.363031   -3.028344
