106 
1ol1_ligand_xtb.xyz
 C   -3.777201   -0.110401   -1.452024
 O   -3.863122    0.667103   -2.385420
 C   -3.057263   -1.457616   -1.634768
 N   -2.012820   -1.617084   -0.600692
 C   -4.019575   -2.655236   -1.622766
 C   -3.874719   -3.548134   -2.857014
 C   -2.489698   -4.179557   -3.022063
 N   -2.170188   -5.138589   -1.984937
 C   -1.190053   -4.946050   -1.077259
 O   -0.633366   -3.857653   -0.919191
 N   -0.891213   -6.004947   -0.286105
 C   -3.473875    2.260622    0.413252
 O   -2.998710    2.359072    1.523421
 C   -4.759681    1.446227    0.120712
 N   -4.289830    0.113480   -0.235788
 C   -5.761660    1.452659    1.276552
 C   -5.286891    0.733684    2.543918
 C   -5.748955   -0.730303    2.610430
 N   -4.841219   -1.552430    3.387774
 C   -3.723474   -2.060894    2.835954
 O   -3.509073   -2.005872    1.620529
 N   -2.850935   -2.663026    3.675595
 N   -2.951937    2.794679   -0.712589
 C   -1.567472    3.218509   -0.809366
 C   -0.666238    1.991392   -0.626637
 O   -1.132377    0.885064   -0.362524
 C   -1.220417    4.319653    0.202810
 C   -2.096421    5.569344    0.053664
 C   -1.810938    6.517320    1.216398
 C   -1.853153    6.281351   -1.274734
 N    0.632261    2.201441   -0.803921
 C    1.663552    1.209907   -0.579569
 C    2.940924    2.012895   -0.317237
 O    3.013988    3.188448   -0.614132
 C    1.782116    0.263991   -1.802708
 C    2.686440   -0.952318   -1.572232
 C    2.276549    1.038242   -3.023255
 C    2.255190   -1.880463   -0.440508
 N    3.913839    1.338794    0.320062
 C    5.247494    1.875106    0.456695
 C    6.061411    1.520843   -0.786877
 O    5.665414    0.795815   -1.658959
 C    5.927017    1.332704    1.728529
 C    5.926011   -0.171099    1.712013
 C    4.868124   -0.873873    2.279758
 C    6.938182   -0.877805    1.073057
 C    4.805861   -2.253412    2.199703
 C    6.892706   -2.256871    0.981176
 C    5.818012   -2.925024    1.539405
 F    5.749808   -4.267016    1.440153
 O    7.250473    2.108923   -0.792532
 H   -2.568781   -1.381267   -2.611432
 H   -1.459082   -0.737828   -0.520550
 H   -2.455057   -1.791734    0.325201
 H   -1.396664   -2.450470   -0.809148
 H   -3.847990   -3.239321   -0.717695
 H   -5.048639   -2.296326   -1.587274
 H   -4.083395   -2.957944   -3.749937
 H   -4.620614   -4.342720   -2.804518
 H   -2.448232   -4.687355   -3.990098
 H   -1.706664   -3.419223   -3.007322
 H   -2.605341   -6.044397   -2.049658
 H   -1.181232   -6.937212   -0.523082
 H   -0.088088   -5.913737    0.312910
 H   -5.245197    1.864946   -0.767655
 H   -4.088818   -0.527501    0.526169
 H   -6.702836    1.016477    0.936036
 H   -5.949952    2.500847    1.510791
 H   -5.662497    1.263881    3.419233
 H   -4.198610    0.780387    2.586201
 H   -6.739587   -0.802784    3.061943
 H   -5.799916   -1.166942    1.610827
 H   -4.908855   -1.495117    4.390795
 H   -2.055141   -3.138294    3.288756
 H   -3.047439   -2.786213    4.651936
 H   -3.368798    2.492847   -1.585334
 H   -1.414980    3.594930   -1.825668
 H   -1.352939    3.914521    1.206109
 H   -0.173440    4.602574    0.079531
 H   -3.146368    5.263611    0.104043
 H   -0.771109    6.836440    1.199202
 H   -2.440759    7.400600    1.150520
 H   -2.006394    6.027068    2.166854
 H   -0.799616    6.529055   -1.387166
 H   -2.160808    5.669975   -2.119469
 H   -2.423870    7.205690   -1.310424
 H    1.010194    3.125088   -0.996412
 H    1.394230    0.626216    0.307531
 H    0.764364   -0.094635   -1.998051
 H    3.714621   -0.618965   -1.425729
 H    2.682675   -1.529951   -2.498858
 H    3.314520    1.332256   -2.887664
 H    2.214832    0.414973   -3.911572
 H    1.680190    1.931560   -3.189568
 H    2.200181   -1.368001    0.517878
 H    1.284269   -2.323176   -0.649957
 H    2.977044   -2.687768   -0.342072
 H    3.831242    0.339254    0.437144
 H    5.168504    2.966808    0.502266
 H    5.379383    1.701095    2.596490
 H    6.944842    1.720176    1.763882
 H    4.090406   -0.336880    2.803902
 H    7.776639   -0.346435    0.649076
 H    3.991625   -2.807126    2.639518
 H    7.672369   -2.813612    0.487104
 H    7.744362    1.899042   -1.602314
