106 
1ol1_ligand_ani.xyz
 C   -3.615112   -0.425678   -1.282133
 O   -3.745073    0.217430   -2.319053
 C   -2.763782   -1.698864   -1.255666
 N   -1.849492   -1.751898   -0.097822
 C   -3.626802   -2.973447   -1.336336
 C   -3.771297   -3.503048   -2.765003
 C   -2.470333   -4.060320   -3.360892
 N   -1.880041   -5.159727   -2.616823
 C   -0.914339   -4.941912   -1.673242
 O   -0.466825   -3.831187   -1.407267
 N   -0.497565   -6.077264   -0.996499
 C   -3.680643    2.256475    0.284425
 O   -3.393423    2.636047    1.408756
 C   -4.819591    1.247806    0.025764
 N   -4.221921   -0.076949   -0.118485
 C   -5.894057    1.308553    1.115800
 C   -5.506689    0.647556    2.447533
 C   -6.008310   -0.799093    2.564882
 N   -5.290098   -1.598514    3.541939
 C   -4.091262   -2.149526    3.178292
 O   -3.676749   -2.123073    2.021912
 N   -3.366687   -2.723794    4.201314
 N   -3.039105    2.670498   -0.853379
 C   -1.671959    3.159999   -0.847405
 C   -0.680789    1.998031   -0.594144
 O   -1.036026    0.885876   -0.213839
 C   -1.430113    4.344100    0.102558
 C   -2.432829    5.495319   -0.037169
 C   -2.046332    6.628545    0.914430
 C   -2.542234    6.010895   -1.471970
 N    0.618850    2.275078   -0.850313
 C    1.667356    1.295204   -0.649586
 C    2.949942    2.078843   -0.362389
 O    3.092917    3.235356   -0.728994
 C    1.798382    0.339058   -1.869346
 C    2.747705   -0.848138   -1.644199
 C    2.178176    1.087533   -3.145913
 C    2.404201   -1.726408   -0.444873
 N    3.900224    1.415341    0.362657
 C    5.210477    1.994044    0.541800
 C    6.057029    1.795522   -0.713615
 O    5.695188    1.255251   -1.729747
 C    5.886168    1.440250    1.811437
 C    6.008731   -0.066678    1.812208
 C    5.028026   -0.860125    2.416261
 C    7.083687   -0.700428    1.184452
 C    5.113276   -2.249938    2.403699
 C    7.187986   -2.086829    1.159796
 C    6.198068   -2.837450    1.772709
 F    6.293835   -4.180596    1.758360
 O    7.294638    2.308701   -0.569196
 H   -2.149645   -1.616176   -2.160151
 H   -1.384944   -0.838876    0.021237
 H   -2.346852   -2.020940    0.766266
 H   -1.144394   -2.473381   -0.330032
 H   -3.165407   -3.738332   -0.703698
 H   -4.617223   -2.774858   -0.905811
 H   -4.132575   -2.691346   -3.412666
 H   -4.540608   -4.284612   -2.787773
 H   -2.649549   -4.391374   -4.389128
 H   -1.705583   -3.281447   -3.394860
 H   -2.360668   -6.046225   -2.610636
 H   -0.505259   -6.948180   -1.508208
 H    0.349206   -5.921365   -0.468526
 H   -5.270851    1.482436   -0.944005
 H   -3.951364   -0.575433    0.723646
 H   -6.810731    0.847727    0.726142
 H   -6.126511    2.365969    1.275822
 H   -5.925421    1.229738    3.278297
 H   -4.419037    0.688517    2.572756
 H   -7.074133   -0.809661    2.820787
 H   -5.905671   -1.319721    1.610415
 H   -5.387645   -1.329745    4.510971
 H   -2.610470   -3.308196    3.874889
 H   -3.887974   -3.114088    4.972990
 H   -3.267037    2.106932   -1.667954
 H   -1.482705    3.507495   -1.872988
 H   -1.446643    3.983038    1.134154
 H   -0.418832    4.733672   -0.086970
 H   -3.415212    5.116123    0.264334
 H   -1.070858    7.051723    0.641042
 H   -2.782655    7.439473    0.882845
 H   -1.980479    6.272209    1.948929
 H   -1.566519    6.350656   -1.846170
 H   -2.918788    5.239285   -2.152022
 H   -3.231385    6.861446   -1.523120
 H    0.936594    3.209564   -1.070675
 H    1.399453    0.695595    0.228363
 H    0.786304   -0.077252   -1.991024
 H    3.788663   -0.506164   -1.592689
 H    2.692774   -1.468879   -2.548439
 H    3.195402    1.490791   -3.079937
 H    2.141003    0.409873   -4.005614
 H    1.491730    1.917585   -3.339947
 H    2.537496   -1.206463    0.511299
 H    1.361404   -2.063461   -0.497203
 H    3.040142   -2.616696   -0.421592
 H    3.853237    0.405303    0.344300
 H    5.072190    3.075270    0.650758
 H    5.278990    1.758313    2.666002
 H    6.869729    1.908706    1.915616
 H    4.180684   -0.380773    2.903648
 H    7.851483   -0.096206    0.705683
 H    4.359396   -2.877855    2.869260
 H    8.021015   -2.590572    0.680358
 H    7.749465    2.162473   -1.415875
