104 
1ol2_ligand_ani.xyz
 N   -2.175679   -1.448971   -0.466800
 C   -3.070272   -1.371172   -1.650388
 C   -3.591729    0.074926   -1.789698
 O   -3.216269    0.809916   -2.699868
 C   -4.197381   -2.419138   -1.588465
 C   -3.860375   -3.773647   -2.230426
 C   -2.821587   -4.636903   -1.511898
 N   -3.265406   -5.010341   -0.178030
 C   -2.505825   -4.864734    0.963980
 N   -1.266646   -4.585189    1.093730
 N   -3.282779   -5.040423    2.128260
 N   -4.478109    0.478845   -0.837918
 C   -4.854640    1.889599   -0.737775
 C   -3.695022    2.625907   -0.024991
 O   -3.672028    2.803740    1.186181
 C   -6.237625    2.132047   -0.102975
 C   -6.787410    1.051859    0.837414
 C   -6.101857    0.983850    2.216686
 N   -6.030223   -0.361125    2.786095
 C   -5.074339   -1.255466    2.323252
 N   -5.454451   -2.576284    2.382760
 N   -3.935456   -0.945260    1.803246
 N   -2.710421    3.032016   -0.885928
 C   -1.317452    3.235963   -0.502903
 C   -0.663415    1.866065   -0.240284
 O   -1.263163    0.963665    0.348251
 C   -1.074526    4.166808    0.694907
 C   -1.435237    5.651281    0.503953
 C   -2.940785    5.922399    0.480092
 C   -0.746326    6.269052   -0.714292
 N    0.595928    1.698421   -0.697847
 C    1.333608    0.464734   -0.510490
 C    2.807142    0.863376   -0.374578
 O    3.209950    1.934002   -0.804011
 C    1.150984   -0.512236   -1.717357
 C    1.257467   -1.985960   -1.351356
 O    0.266469   -2.690208   -1.175812
 N    2.509930   -2.488723   -1.187885
 N    3.628684   -0.043979    0.224274
 C    5.058632    0.115143    0.061890
 C    5.474254   -0.212516   -1.389730
 O    4.777169   -0.878526   -2.144277
 C    5.796657   -0.738722    1.111400
 C    7.287076   -0.485565    1.171521
 C    8.201157   -1.461922    0.770672
 C    7.779968    0.748738    1.604138
 C    9.573373   -1.224849    0.802853
 C    9.145708    1.007539    1.643294
 C   10.021518    0.009746    1.240947
 F   11.344825    0.250921    1.278953
 N    6.658093    0.309082   -1.788953
 H   -2.719307   -1.651965    0.402815
 H   -1.721290   -0.533442   -0.302664
 H   -1.415891   -2.139933   -0.621400
 H   -2.469194   -1.527065   -2.551215
 H   -4.501968   -2.546534   -0.542149
 H   -5.068052   -2.012076   -2.114198
 H   -3.520447   -3.602035   -3.260359
 H   -4.787166   -4.356654   -2.318124
 H   -2.636169   -5.541189   -2.107565
 H   -1.863851   -4.114746   -1.454539
 H   -4.265290   -5.000942   -0.030423
 H   -0.802813   -4.471231    0.195760
 H   -2.665089   -5.083733    2.931139
 H   -3.879857   -5.859410    2.084275
 H   -4.516626   -0.073770    0.016668
 H   -4.880842    2.259653   -1.767031
 H   -6.207108    3.098558    0.414681
 H   -6.954750    2.249060   -0.923451
 H   -6.740381    0.079422    0.331475
 H   -7.857489    1.246080    0.983828
 H   -6.646699    1.616469    2.927119
 H   -5.098066    1.406106    2.162349
 H   -6.945990   -0.786507    2.879565
 H   -4.679373   -3.223064    2.270989
 H   -6.044975   -2.826784    3.163836
 H   -3.669851    0.022434    1.964479
 H   -2.800061    2.609843   -1.807490
 H   -0.832644    3.667384   -1.387963
 H   -1.612782    3.771060    1.558181
 H    0.000231    4.111580    0.920021
 H   -1.032865    6.153189    1.396355
 H   -3.132376    6.998218    0.564831
 H   -3.446505    5.413941    1.306661
 H   -3.395658    5.576980   -0.453012
 H   -1.148581    5.859865   -1.649265
 H   -0.903174    7.353415   -0.740362
 H    0.334944    6.085688   -0.701819
 H    1.145356    2.473796   -1.049111
 H    0.970813   -0.022311    0.402106
 H    1.883396   -0.261889   -2.497454
 H    0.150978   -0.358410   -2.133278
 H    3.310547   -2.027123   -1.616005
 H    2.564831   -3.493544   -1.081816
 H    3.285592   -0.997564    0.265575
 H    5.286154    1.171782    0.243954
 H    5.605106   -1.801216    0.914524
 H    5.339399   -0.501496    2.078809
 H    7.830985   -2.423266    0.419012
 H    7.084157    1.524762    1.922740
 H   10.291556   -1.980079    0.497480
 H    9.536340    1.962698    1.978945
 H    6.983750    0.061353   -2.711125
 H    7.313896    0.701919   -1.132042
