34 
1om1_ligand_ani.xyz
 O    3.702214   -0.914222   -1.199359
 C    3.442335   -1.815641   -0.232224
 O    3.898709   -2.925223   -0.282059
 C    2.604011   -1.303186    0.945613
 C    1.504419   -0.359519    0.575391
 C    0.188450   -0.681068    0.348241
 N   -0.392546   -1.922606    0.267475
 C   -1.737920   -2.134974   -0.018845
 O   -2.159851   -3.264648   -0.171340
 C   -2.563681   -0.901817   -0.083906
 C   -3.943968   -1.024735   -0.225272
 C   -4.755550    0.093275   -0.179877
 C   -4.174056    1.347541    0.028567
 C   -2.803177    1.491437    0.153664
 C   -1.974496    0.368464    0.041929
 N   -0.576275    0.438287    0.099068
 C    0.300818    1.532431    0.029485
 C    1.593834    1.053145    0.364203
 C    2.667498    1.956941    0.411525
 C    2.453847    3.277975    0.071723
 C    1.185185    3.715951   -0.341962
 C    0.104851    2.854650   -0.383748
 H    3.202511   -0.097330   -1.035535
 H    3.309949   -0.804587    1.629485
 H    2.237194   -2.178218    1.489626
 H    0.188670   -2.752330    0.295911
 H   -4.354025   -2.022717   -0.354905
 H   -5.832629   -0.000755   -0.283968
 H   -4.802447    2.231209    0.096067
 H   -2.381229    2.466473    0.367724
 H    3.654992    1.625091    0.723419
 H    3.281795    3.979801    0.095000
 H    1.045818    4.752703   -0.634539
 H   -0.851830    3.198431   -0.759057
