34 
1onh_ligand_ani.xyz
 S   -1.426962    0.176037    1.854013
 C   -1.896018   -1.047369    0.606706
 C   -3.027537   -0.554594   -0.227907
 N   -3.056099    0.504175   -0.957391
 C   -2.093105    1.447601   -1.095131
 C   -0.979725    1.796270   -0.396516
 C   -0.269585    2.977599   -0.918506
 O    0.710954    3.460988   -0.394588
 C   -4.262142   -1.402902   -0.193498
 O   -4.361590   -2.408964    0.473251
 O   -5.251252   -0.944645   -0.971320
 C   -0.328415    1.206536    0.827721
 C    0.990377    0.546102    0.499882
 N    1.177388   -0.295108   -0.571736
 C    2.435513   -0.666418   -0.498076
 N    3.079112   -0.110270    0.562365
 C    2.156138    0.671871    1.211553
 C    3.199638   -1.537032   -1.456557
 O    4.412680   -1.983195   -0.889163
 C    5.162293   -0.918479   -0.336996
 C    4.464997   -0.372120    0.906290
 H   -1.007007   -1.284202    0.004502
 H   -2.209778   -1.946350    1.142071
 H   -2.316528    2.108516   -1.941568
 H   -0.695704    3.418953   -1.846335
 H   -5.979471   -1.576243   -0.855884
 H   -0.062825    2.038451    1.485928
 H    2.404864    1.237516    2.098651
 H    3.386494   -0.973219   -2.387126
 H    2.619132   -2.427302   -1.714509
 H    6.143945   -1.323414   -0.080521
 H    5.297072   -0.117636   -1.080285
 H    4.517603   -1.100298    1.722832
 H    4.929897    0.561207    1.236132
