39 
1onz_ligand_ani.xyz
 O   -0.360488    3.176493   -1.325224
 C    0.809880    2.923515   -1.250169
 O    1.772490    3.689743   -1.754676
 C    1.422192    1.668443   -0.581496
 O    2.633803    1.482963   -0.753935
 N    0.654606    0.804973    0.135346
 C    1.365063   -0.230609    0.899856
 C    1.515319   -0.039807    2.269753
 C    2.147173   -0.997201    3.057223
 C    2.602146   -2.175923    2.477963
 C    2.434615   -2.381057    1.113931
 C    1.857825   -1.401493    0.304859
 C    1.729977   -1.721164   -1.165639
 O    2.358433   -0.909165   -2.001821
 O    1.086268   -2.667313   -1.569555
 C   -0.718144    1.045950    0.525714
 C   -1.062687    2.062779    1.381033
 C   -2.387776    2.163072    1.869568
 C   -3.341420    1.247528    1.508100
 C   -3.016613    0.194138    0.612219
 C   -3.949262   -0.808830    0.222240
 C   -3.600414   -1.824278   -0.624562
 C   -2.289251   -1.874236   -1.161251
 O   -1.946257   -2.908565   -1.956568
 C   -1.397934   -0.873144   -0.871414
 C   -1.706883    0.121052    0.085911
 H    2.612120    3.218814   -1.582347
 H    1.116187    0.869476    2.711158
 H    2.264315   -0.823805    4.123369
 H    3.079198   -2.938522    3.088369
 H    2.759052   -3.306038    0.646247
 H    2.746001   -0.156261   -1.505957
 H   -0.323942    2.807537    1.669483
 H   -2.637864    2.975841    2.546219
 H   -4.355121    1.316524    1.897729
 H   -4.958197   -0.763844    0.627171
 H   -4.305334   -2.604420   -0.898045
 H   -0.975570   -2.903170   -2.044563
 H   -0.439927   -0.832603   -1.375061
