69 
1ork_ligand_ani.xyz
 C    3.935467    1.153051    0.673174
 O    3.840887    2.061503    1.490965
 C    4.823933    1.210491   -0.490738
 C    5.379238    2.504266   -0.979531
 O    6.133122    2.538435   -1.967093
 N    5.022920    3.626743   -0.333702
 C    5.182531    0.027441   -1.119652
 O    6.045937   -0.032679   -2.131111
 C    4.675508   -1.313999   -0.675214
 N    5.552925   -1.952457    0.407257
 C    7.004125   -1.656053    0.307115
 C    5.361767   -3.418594    0.456011
 C    3.223700   -1.198501   -0.155235
 C    2.221001   -0.838807   -1.248805
 C    0.788818   -0.900009   -0.708966
 C   -0.223162   -0.365680   -1.731766
 C   -1.628410   -0.422467   -1.195309
 C   -2.709980   -0.703674   -2.019697
 C   -4.018567   -0.662124   -1.547825
 C   -4.257147   -0.321292   -0.222660
 C   -3.173923   -0.052430    0.634062
 O   -3.475290    0.272059    1.905274
 C   -1.850119   -0.128737    0.162991
 C   -0.701619    0.104559    1.078324
 O   -0.904899    0.537277    2.237241
 C    0.652238   -0.183521    0.611246
 C    1.741705    0.114963    1.383828
 O    1.670358    0.668409    2.600131
 C    3.167547   -0.173682    0.990196
 O    3.867630   -0.699430    2.113222
 N   -5.545325   -0.221897    0.349571
 C   -6.745712   -0.248600   -0.287295
 O   -6.915985   -0.461003   -1.479643
 C   -7.965391   -0.002732    0.606464
 N   -9.127090    0.237053   -0.289308
 C  -10.338681   -0.501881    0.111325
 C   -9.437182    1.682606   -0.426762
 H    5.452846    4.483444   -0.643399
 H    4.533403    3.569491    0.549126
 H    6.278884    0.913016   -2.348888
 H    4.724585   -1.972836   -1.548193
 H    5.204080   -1.554504    1.294136
 H    7.404835   -2.005259   -0.648591
 H    7.167216   -0.582941    0.399731
 H    7.530147   -2.161252    1.122104
 H    5.633963   -3.867226   -0.507832
 H    4.322875   -3.671524    0.681192
 H    5.999902   -3.850774    1.232082
 H    2.927914   -2.160864    0.274274
 H    2.328442   -1.516902   -2.103948
 H    2.425621    0.177486   -1.603712
 H    0.526118   -1.954186   -0.527125
 H    0.027856    0.682817   -1.933259
 H   -0.150520   -0.919323   -2.673144
 H   -2.535927   -0.952717   -3.063673
 H   -4.853696   -0.875694   -2.202370
 H   -2.626850    0.477415    2.352370
 H    0.714616    0.759696    2.819378
 H    3.679348   -0.085256    2.838851
 H   -5.536680   -0.003391    1.335640
 H   -7.812992    0.848724    1.275567
 H   -8.161894   -0.881294    1.228931
 H   -8.768237   -0.106734   -1.196411
 H  -10.125515   -1.570070    0.195183
 H  -11.125063   -0.350771   -0.632326
 H  -10.692804   -0.137181    1.083435
 H   -8.561020    2.226950   -0.780861
 H  -10.258443    1.820579   -1.134711
 H   -9.737213    2.090839    0.546138
