69 
1ork_ligand_xtb.xyz
 C    3.640937    0.791781    1.043524
 O    3.167584    1.411793    1.972247
 C    4.681257    1.285365    0.165560
 C    5.249949    2.658904    0.329427
 O    6.110614    3.063138   -0.468783
 N    4.820850    3.404593    1.334912
 C    5.167458    0.547935   -0.888889
 O    6.053485    0.986282   -1.723104
 C    4.687370   -0.865170   -1.183574
 N    5.588628   -1.884967   -0.541219
 C    6.999474   -1.463431   -0.460602
 C    5.498115   -3.187150   -1.221925
 C    3.243936   -1.043246   -0.701410
 C    2.257154   -0.175594   -1.488271
 C    0.813951   -0.471061   -1.068754
 C   -0.141967    0.592600   -1.610343
 C   -1.551423    0.327090   -1.176828
 C   -2.620861    0.654327   -1.988276
 C   -3.928570    0.475315   -1.560099
 C   -4.177603   -0.024848   -0.295403
 C   -3.109995   -0.364717    0.556530
 O   -3.419023   -0.827256    1.774868
 C   -1.787936   -0.207027    0.101652
 C   -0.678490   -0.561046    0.986912
 O   -0.877944   -0.831694    2.189281
 C    0.660013   -0.578033    0.426663
 C    1.716330   -0.759103    1.261180
 O    1.633698   -0.985518    2.560385
 C    3.150687   -0.666961    0.778907
 O    3.983772   -1.526339    1.547123
 N   -5.461608   -0.213083    0.254600
 C   -6.638453    0.076729   -0.282820
 O   -6.863609    0.548070   -1.388749
 C   -7.879132   -0.222418    0.602403
 N   -9.033717    0.235336   -0.193491
 C   -9.994399   -0.829527   -0.513910
 C   -9.705106    1.412604    0.377081
 H    5.213129    4.327344    1.447725
 H    4.117492    3.059791    1.977176
 H    6.289525    1.986612   -1.401619
 H    4.761205   -1.000827   -2.268950
 H    5.219828   -1.985028    0.429293
 H    7.365715   -1.184742   -1.448048
 H    7.110979   -0.614250    0.209777
 H    7.601578   -2.284335   -0.076868
 H    5.929579   -3.112202   -2.219381
 H    4.464784   -3.513646   -1.305138
 H    6.049085   -3.937094   -0.658028
 H    2.942508   -2.090455   -0.805823
 H    2.365810   -0.365106   -2.556715
 H    2.474084    0.879128   -1.311793
 H    0.515599   -1.439046   -1.495623
 H    0.157283    1.574330   -1.228487
 H   -0.085845    0.629577   -2.698300
 H   -2.441363    1.064138   -2.969156
 H   -4.749899    0.737355   -2.205819
 H   -2.573628   -0.952027    2.275075
 H    0.670314   -0.971647    2.817594
 H    3.637788   -1.535461    2.454756
 H   -5.414048   -0.597863    1.193616
 H   -7.813577    0.313800    1.549955
 H   -7.943188   -1.292294    0.806951
 H   -8.528875    0.537115   -1.091512
 H   -9.487900   -1.660419   -1.000809
 H  -10.757101   -0.448619   -1.190325
 H  -10.479790   -1.183361    0.395139
 H   -8.984535    2.209881    0.548009
 H  -10.463091    1.777611   -0.313226
 H  -10.187310    1.150882    1.318397
