17 
1oss_ligand_ani.xyz
 C    0.212651   -0.039344   -0.023799
 C   -0.462471    1.167032   -0.216676
 C   -1.852801    1.207233   -0.196932
 C   -2.579266    0.039493    0.021125
 C   -1.910946   -1.168962    0.203366
 C   -0.522531   -1.210185    0.171964
 C    1.707508   -0.109248   -0.043919
 N    2.270224   -1.193284   -0.415310
 N    2.349219    1.068150    0.330159
 H    0.105279    2.075293   -0.403749
 H   -2.368622    2.153349   -0.343121
 H   -3.665340    0.069319    0.043501
 H   -2.474023   -2.084321    0.365133
 H    0.015483   -2.145438    0.295508
 H    3.288015   -1.108287   -0.395457
 H    3.338728    0.975487    0.516523
 H    1.871518    1.624431    1.026956
