209 
1osv_ligand_ani.xyz
 N  -12.334858   -2.799184    1.013759
 C  -13.277625   -2.445537   -0.103285
 C  -12.530410   -1.552253   -1.102867
 O  -12.692162   -1.646932   -2.306591
 C  -14.580627   -1.816763    0.400356
 C  -15.548798   -1.509385   -0.741777
 C  -15.243559   -0.202240   -1.437298
 O  -15.754498   -0.165036   -2.681731
 O  -14.653115    0.731761   -0.948832
 N  -11.664875   -0.673083   -0.512515
 C  -10.370147   -0.444175   -1.099842
 C   -9.507993   -1.714371   -0.952576
 O   -9.814667   -2.639299   -0.203126
 C   -9.699890    0.753093   -0.415430
 C   -9.595809    0.621967    1.106402
 O  -10.273487   -0.165795    1.765399
 N   -8.741622    1.496603    1.676863
 N   -8.384355   -1.750046   -1.715931
 C   -7.315820   -2.671684   -1.393508
 C   -6.449542   -2.072010   -0.261831
 O   -6.796066   -1.060810    0.338957
 C   -6.521650   -3.010735   -2.657884
 N   -5.301589   -2.753285    0.023353
 C   -4.170814   -2.112255    0.688544
 C   -3.334413   -1.394159   -0.386409
 O   -2.664746   -2.020998   -1.198707
 C   -3.320359   -3.142021    1.433474
 C   -2.002746   -2.600405    2.005958
 C   -2.207404   -1.358061    2.875511
 C   -1.288779   -3.701963    2.788964
 N   -3.411771   -0.040908   -0.377150
 C   -2.643588    0.754594   -1.301532
 C   -2.250301    2.064473   -0.596367
 O   -2.234078    2.131965    0.634237
 C   -3.315208    0.912896   -2.679694
 C   -4.624798    1.723582   -2.756979
 C   -4.716668    2.449308   -4.103922
 C   -5.876863    0.867547   -2.549225
 N   -1.885491    3.106845   -1.379192
 C   -1.411407    4.414552   -0.900164
 C    0.047982    4.312311   -0.415015
 O    0.966176    4.843515   -1.023097
 C   -2.322283    5.048779    0.168928
 C   -3.814161    5.113438   -0.200690
 C   -4.731378    4.918130    1.017571
 N   -4.770213    3.546174    1.509581
 C   -5.612579    2.586423    0.973525
 N   -5.377917    1.328339    1.513704
 N   -6.533357    2.722506    0.087103
 N    0.233301    3.605780    0.736384
 C    1.579385    3.286470    1.165869
 C    2.084131    2.059792    0.396942
 O    1.565961    0.956343    0.551431
 C    1.599034    3.002724    2.670919
 C    2.956893    2.613565    3.236373
 C    3.031742    1.748479    4.333657
 C    4.155493    3.112553    2.721579
 C    4.251622    1.399101    4.903947
 C    5.383667    2.733363    3.251245
 C    5.429999    1.883004    4.347758
 O    6.664935    1.517748    4.829846
 N    3.149099    2.271934   -0.416815
 C    3.994917    1.194539   -0.929812
 C    4.704268    0.451399    0.235715
 O    5.880636    0.623949    0.536620
 C    4.968525    1.667510   -2.018545
 C    5.562971    3.088568   -1.934419
 C    6.351851    3.387345   -0.658867
 C    6.454146    3.318987   -3.159679
 N    3.910286   -0.436465    0.879387
 C    4.346832   -1.132560    2.081835
 C    5.564466   -2.012965    1.774524
 O    6.534303   -2.046254    2.526842
 C    3.133717   -1.914736    2.611931
 C    3.312569   -2.826092    3.839203
 C    3.908123   -2.068112    5.024258
 C    4.095701   -4.111521    3.551678
 N    5.467157   -2.766479    0.642491
 C    6.658965   -3.285420    0.000083
 C    7.100363   -2.261513   -1.062534
 O    6.268680   -1.645760   -1.720862
 C    6.386169   -4.653851   -0.620768
 C    7.659568   -5.380500   -0.969304
 O    7.430819   -6.569912   -1.543985
 O    8.779575   -4.970034   -0.750730
 N    8.434201   -2.065482   -1.184043
 C    8.954031   -0.985791   -1.990038
 C   10.428384   -1.285447   -2.258256
 O   11.057516   -2.074552   -1.570566
 C    8.764286    0.407429   -1.335698
 C    9.810141    0.840078   -0.295660
 C    9.938563   -0.032735    0.970188
 C    9.389147    0.597334    2.258446
 N    7.923101    0.441975    2.428659
 N   10.988586   -0.607043   -3.302967
 C   12.412104   -0.636377   -3.535779
 C   13.023641    0.699667   -3.141216
 O   14.366627    0.663035   -3.177933
 C   12.756973   -0.979670   -4.988113
 O   12.402066    1.693291   -2.848288
 H  -11.362627   -2.910846    0.629017
 H  -12.322126   -2.073054    1.759840
 H  -12.612056   -3.693449    1.455419
 H  -13.520080   -3.354879   -0.655515
 H  -15.050896   -2.523307    1.092120
 H  -14.380262   -0.886133    0.943742
 H  -16.574722   -1.418327   -0.360284
 H  -15.564522   -2.306101   -1.492392
 H  -15.508571    0.701509   -3.045581
 H  -11.616441   -0.690778    0.497924
 H  -10.506743   -0.225860   -2.165168
 H  -10.296725    1.646126   -0.633618
 H   -8.697815    0.930338   -0.828214
 H   -8.561279    1.409311    2.666244
 H   -8.120087    2.067517    1.108807
 H   -8.080437   -0.873198   -2.121072
 H   -7.789418   -3.575976   -1.001435
 H   -5.934201   -2.149462   -3.003629
 H   -7.220758   -3.291702   -3.449437
 H   -5.834551   -3.851375   -2.512899
 H   -5.048354   -3.493243   -0.617177
 H   -4.592334   -1.387904    1.390878
 H   -3.934055   -3.564996    2.240223
 H   -3.084724   -3.959011    0.738343
 H   -1.369092   -2.319608    1.152502
 H   -2.605746   -0.514957    2.297300
 H   -2.901455   -1.564112    3.701387
 H   -1.257539   -1.029993    3.311334
 H   -1.111575   -4.583366    2.162516
 H   -1.892500   -4.016738    3.649853
 H   -0.320801   -3.356791    3.169746
 H   -3.936900    0.440322    0.355653
 H   -1.706572    0.210327   -1.487445
 H   -2.572111    1.354929   -3.357250
 H   -3.481756   -0.102170   -3.059918
 H   -4.617261    2.487817   -1.965094
 H   -4.710781    1.730448   -4.933767
 H   -3.876938    3.138485   -4.250212
 H   -5.641565    3.032528   -4.174884
 H   -6.774701    1.495382   -2.593105
 H   -5.877452    0.352273   -1.585061
 H   -5.967277    0.110567   -3.340650
 H   -1.832068    2.953824   -2.373759
 H   -1.377836    5.056074   -1.782813
 H   -1.943948    6.058609    0.369726
 H   -2.196001    4.500356    1.104265
 H   -4.038937    6.077382   -0.673673
 H   -4.069018    4.344565   -0.938346
 H   -4.389910    5.552340    1.845852
 H   -5.753419    5.249713    0.799151
 H   -3.852566    3.158264    1.710112
 H   -6.072470    0.627898    1.263502
 H   -5.127973    1.315256    2.494406
 H   -6.551991    3.655688   -0.311950
 H   -0.519096    2.981240    1.021085
 H    2.204655    4.154705    0.935596
 H    1.208229    3.894104    3.178056
 H    0.888550    2.188268    2.863957
 H    2.111166    1.341039    4.747762
 H    4.143870    3.821065    1.893308
 H    4.296391    0.740676    5.772247
 H    6.320294    3.093854    2.829161
 H    6.538953    0.916443    5.576227
 H    3.458638    3.223219   -0.544523
 H    3.318983    0.459267   -1.383186
 H    5.775145    0.926662   -2.071321
 H    4.433534    1.605922   -2.975181
 H    4.734440    3.812620   -2.004586
 H    5.744686    3.287270    0.246958
 H    7.204245    2.704238   -0.564048
 H    6.744861    4.409137   -0.688031
 H    6.850483    4.340373   -3.175671
 H    7.310507    2.631841   -3.148504
 H    5.906407    3.153669   -4.094451
 H    2.907518   -0.315759    0.770354
 H    4.690965   -0.406386    2.830361
 H    2.727009   -2.516386    1.785681
 H    2.370732   -1.156535    2.848906
 H    2.288427   -3.124387    4.114638
 H    3.941953   -2.701759    5.917379
 H    3.309162   -1.181162    5.261994
 H    4.934805   -1.745132    4.803928
 H    3.938995   -4.837562    4.357731
 H    5.172499   -3.925299    3.487168
 H    3.774754   -4.577857    2.613009
 H    4.766874   -2.429676   -0.011534
 H    7.432479   -3.389943    0.767365
 H    5.758247   -4.569547   -1.514942
 H    5.832682   -5.263391    0.102433
 H    8.301848   -6.965095   -1.717503
 H    9.100616   -2.757428   -0.851497
 H    8.400221   -0.968910   -2.938045
 H    8.766700    1.152735   -2.145772
 H    7.760046    0.430950   -0.898538
 H   10.783909    0.906037   -0.793799
 H    9.571653    1.872558   -0.001467
 H   11.002540   -0.240841    1.136168
 H    9.463349   -1.011263    0.820693
 H    9.886573    0.147230    3.123914
 H    9.631705    1.665810    2.272768
 H    7.674846   -0.551065    2.554673
 H    7.620283    0.954088    3.267629
 H    7.391377    0.789106    1.618226
 H   10.488692    0.195357   -3.659324
 H   12.817813   -1.405208   -2.871125
 H   14.673680    1.551944   -2.933392
 H   12.395660   -0.206235   -5.675328
 H   13.839531   -1.069031   -5.110223
 H   12.286781   -1.929235   -5.255073
