51 
1ove_ligand_ani.xyz
Cl    3.553974    0.467425   -2.326391
 C    3.999064   -0.018496   -0.718927
 C    5.245722    0.354357   -0.229449
 C    5.597959    0.009155    1.068506
 C    4.717546   -0.700070    1.874157
 C    3.474711   -1.066575    1.368578
Cl    2.383522   -1.949151    2.392444
 C    3.086309   -0.737995    0.063999
 N    1.824409   -1.135467   -0.451686
 C    1.830828   -2.259520   -1.279694
 O    2.855124   -2.852634   -1.543225
 C    0.471422   -2.627650   -1.810014
 C   -0.607836   -2.390345   -0.762052
 C   -0.587733   -0.946913   -0.299626
 C    0.671730   -0.352666   -0.184022
 C    0.805734    0.984585    0.183500
 C   -0.324060    1.760545    0.409941
 C   -1.577743    1.175089    0.297417
 C   -1.723902   -0.179075   -0.011890
 C   -3.107137   -0.730250   -0.064677
 C   -4.091956   -0.072728   -0.807750
 C   -5.393835   -0.547146   -0.896176
 C   -5.725876   -1.692008   -0.190485
 F   -6.981740   -2.159527   -0.258667
 C   -4.803481   -2.368683    0.589490
 C   -3.513399   -1.867378    0.633929
 F   -2.618940   -2.521634    1.402112
 C   -0.155203    3.266033    0.722486
 C   -1.316259    3.842926    1.467481
 C   -2.019908    4.903118    1.028750
 N   -1.696250    5.570326   -0.128459
 C   -0.622011    5.140785   -0.878168
 C    0.111201    4.077141   -0.517093
 H    5.924735    0.912234   -0.866157
 H    6.569722    0.298962    1.456080
 H    4.983096   -0.972082    2.891273
 H    0.508370   -3.668638   -2.133149
 H    0.278331   -2.012035   -2.698744
 H   -0.426109   -3.045402    0.099630
 H   -1.589437   -2.654404   -1.167681
 H    1.799645    1.414442    0.289615
 H   -2.461749    1.778062    0.490311
 H   -3.818574    0.829132   -1.350509
 H   -6.148344   -0.039472   -1.487066
 H   -5.070883   -3.261834    1.140909
 H    0.747754    3.301380    1.373262
 H   -1.611835    3.347156    2.383706
 H   -2.878427    5.291684    1.563882
 H   -2.234871    6.368302   -0.423968
 H   -0.429154    5.721196   -1.774139
 H    0.936986    3.750746   -1.143612
