192 
1ow6_ligand_ani.xyz
 N    2.878971    3.625161    0.276315
 C    2.782769    5.096062    0.458265
 C    1.369816    5.525627    0.875663
 O    1.163196    6.070631    1.948205
 C    3.296625    5.761094   -0.821726
 O    4.616529    5.246357   -0.948532
 C    3.279757    7.276220   -0.740811
 N    0.383372    5.284982   -0.042542
 C   -1.012581    5.295037    0.329216
 C   -1.478068    3.871698    0.684776
 O   -0.825496    2.868211    0.399359
 C   -1.891506    5.928744   -0.776243
 C   -1.539154    5.549342   -2.221945
 C   -1.756660    4.070954   -2.591158
 N   -0.814353    3.555575   -3.585848
 C    0.521765    3.458066   -3.226525
 N    0.959294    3.111324   -2.061934
 N    1.423879    3.734326   -4.239793
 N   -2.679934    3.779469    1.309018
 C   -3.365154    2.508205    1.328755
 C   -3.914214    2.161277   -0.064664
 O   -4.187750    3.003201   -0.911692
 C   -4.501202    2.455288    2.375226
 C   -5.906815    2.786154    1.865388
 C   -6.036367    4.158034    1.255136
 O   -7.195244    4.311401    0.600607
 O   -5.228853    5.059667    1.344537
 N   -4.151378    0.838207   -0.239139
 C   -5.047509    0.373969   -1.286610
 C   -6.049405   -0.569921   -0.594651
 O   -6.474053   -0.296704    0.528404
 C   -4.248724   -0.174584   -2.486942
 C   -4.759383    0.213793   -3.888514
 C   -4.662024    1.725308   -4.124324
 C   -6.160550   -0.317155   -4.196861
 N   -6.417150   -1.711977   -1.223915
 C   -6.992283   -2.820834   -0.465187
 C   -5.885657   -3.603248    0.280751
 O   -5.685095   -4.784436    0.025390
 C   -7.730320   -3.768770   -1.399109
 C   -6.820559   -4.358420   -2.456041
 O   -5.868402   -3.799234   -2.967371
 O   -7.206623   -5.580787   -2.832015
 N   -5.140093   -2.880446    1.150042
 C   -3.837428   -3.289841    1.637142
 C   -3.168186   -2.052114    2.264517
 O   -3.623938   -0.919305    2.121254
 C   -2.929580   -3.922799    0.552958
 C   -2.826247   -3.131671   -0.749642
 C   -1.780854   -3.726871   -1.657261
 O   -1.058251   -4.658738   -1.371527
 O   -1.717607   -3.115828   -2.848814
 N   -2.045374   -2.290520    2.986481
 C   -1.139885   -1.245431    3.425761
 C    0.230349   -1.517030    2.799234
 O    0.602184   -2.662563    2.573100
 C   -0.991808   -1.201607    4.957061
 C   -2.303688   -1.022746    5.730604
 C   -3.020570    0.273180    5.353998
 C   -2.021203   -1.064508    7.232248
 N    1.012650   -0.437408    2.561716
 C    2.293638   -0.570044    1.915154
 C    3.145197    0.648392    2.265013
 O    2.634785    1.757668    2.410434
 C    2.190180   -0.704469    0.378904
 C    1.266220    0.304519   -0.320454
 S   -0.382725   -0.343382   -0.736276
 C   -0.478719    0.039973   -2.505873
 N    4.475966    0.413150    2.359173
 C    5.463284    1.487932    2.290815
 C    5.906459    1.577166    0.823788
 O    5.119345    1.980382   -0.027368
 C    6.587438    1.283272    3.294312
 N    7.128474    1.072032    0.482984
 C    7.436902    0.874265   -0.924708
 C    6.626093   -0.280424   -1.532913
 O    6.270696   -0.260707   -2.703191
 C    8.931157    0.590787   -1.073040
 O    9.620398    1.551554   -0.289595
 N    6.409121   -1.325511   -0.693330
 C    5.650611   -2.501550   -1.042737
 C    4.704149   -2.834814    0.114841
 O    4.930405   -2.480007    1.269263
 C    6.538100   -3.741846   -1.281650
 C    7.566420   -3.617150   -2.412462
 C    8.436320   -4.873930   -2.442047
 C    6.914042   -3.384642   -3.775428
 N    3.593323   -3.545809   -0.211901
 C    2.864212   -4.281653    0.794666
 C    3.657081   -5.527580    1.191484
 O    4.744167   -5.821135    0.759391
 C    1.479903   -4.633544    0.260065
 O    1.646155   -5.209369   -1.016215
 O    3.004893   -6.268347    2.101515
 H    3.865984    3.357855    0.088115
 H    2.594521    3.121356    1.135967
 H    2.311199    3.307515   -0.545750
 H    3.434903    5.396911    1.278589
 H    2.681635    5.416060   -1.670083
 H    5.002701    5.591701   -1.761784
 H    2.260608    7.642008   -0.583590
 H    3.903587    7.615676    0.092918
 H    3.661639    7.721856   -1.665593
 H    0.621948    4.680315   -0.826838
 H   -1.094202    5.912697    1.231602
 H   -1.788083    7.015238   -0.681519
 H   -2.946609    5.697774   -0.573670
 H   -0.495588    5.827157   -2.417973
 H   -2.138303    6.176703   -2.893258
 H   -1.689513    3.426852   -1.714146
 H   -2.769273    3.928311   -2.983132
 H   -0.948921    3.940381   -4.512545
 H    0.199407    2.786131   -1.463572
 H    1.194770    4.520270   -4.833521
 H    2.373930    3.786379   -3.896091
 H   -3.279431    4.596809    1.333813
 H   -2.618369    1.751473    1.600485
 H   -4.225687    3.120562    3.200997
 H   -4.532652    1.434163    2.774704
 H   -6.617232    2.747098    2.700751
 H   -6.256097    2.036463    1.143156
 H   -7.191225    5.217669    0.249682
 H   -3.986655    0.204772    0.539033
 H   -5.621096    1.252285   -1.607887
 H   -3.235738    0.230910   -2.389126
 H   -4.123213   -1.265034   -2.423393
 H   -4.072298   -0.264222   -4.602023
 H   -5.332333    2.293330   -3.467883
 H   -3.641064    2.092094   -3.946450
 H   -4.928378    1.971837   -5.158461
 H   -6.190150   -1.413594   -4.183509
 H   -6.480575    0.008559   -5.193171
 H   -6.905618    0.051346   -3.480133
 H   -5.983276   -1.967012   -2.102576
 H   -7.674738   -2.374713    0.266146
 H   -8.193298   -4.586940   -0.844861
 H   -8.528221   -3.226065   -1.919914
 H   -6.568743   -5.875766   -3.503728
 H   -5.416659   -1.930565    1.377301
 H   -3.959581   -4.044882    2.428003
 H   -1.921768   -4.060692    0.961448
 H   -3.314615   -4.919331    0.336617
 H   -3.777331   -3.130463   -1.294079
 H   -2.546718   -2.080957   -0.578446
 H   -1.022317   -3.567252   -3.359685
 H   -1.608765   -3.199193    2.907685
 H   -1.536395   -0.292339    3.058623
 H   -0.305223   -0.381725    5.213393
 H   -0.501665   -2.129441    5.282892
 H   -2.964689   -1.862677    5.477706
 H   -3.924237    0.404423    5.959725
 H   -3.325637    0.269484    4.303192
 H   -2.374330    1.145105    5.522677
 H   -1.366540   -0.233522    7.525654
 H   -2.947622   -0.979920    7.811294
 H   -1.526679   -1.999351    7.519706
 H    0.685967    0.506220    2.722469
 H    2.772604   -1.479573    2.288058
 H    3.207313   -0.604114   -0.025305
 H    1.859142   -1.724722    0.159999
 H    1.729828    0.613709   -1.261648
 H    1.122562    1.208454    0.280840
 H   -0.923978    1.026368   -2.679185
 H    0.516241    0.016354   -2.958929
 H   -1.099544   -0.721956   -2.983285
 H    4.783960   -0.534427    2.150135
 H    4.913449    2.408993    2.510520
 H    6.163475    1.224561    4.300401
 H    7.132127    0.351366    3.101005
 H    7.297519    2.117541    3.270833
 H    7.927952    1.212890    1.089688
 H    7.174200    1.765299   -1.502766
 H    9.207771    0.654192   -2.134749
 H    9.152918   -0.430924   -0.721389
 H   10.567158    1.409469   -0.403298
 H    6.611632   -1.194868    0.290207
 H    5.074186   -2.272051   -1.946633
 H    7.058372   -3.970805   -0.340491
 H    5.882336   -4.600814   -1.485363
 H    8.217108   -2.757967   -2.193893
 H    8.932334   -5.037110   -1.478474
 H    9.211285   -4.801039   -3.213218
 H    7.828551   -5.761633   -2.661255
 H    6.382347   -2.429121   -3.813047
 H    6.207131   -4.190696   -4.014974
 H    7.676926   -3.373412   -4.562360
 H    3.536867   -3.948600   -1.139300
 H    2.747389   -3.651960    1.683961
 H    0.886396   -3.708051    0.210553
 H    0.974845   -5.320131    0.952667
 H    0.761607   -5.209114   -1.416330
 H    3.572139   -7.034230    2.291799
