37 
1owe_ligand_ani.xyz
 N    6.706831   -1.149140   -0.645606
 C    5.910209   -0.497193    0.108257
 N    6.412844    0.272525    1.144253
 C    4.420764   -0.426447   -0.045248
 C    3.697843   -1.584551   -0.434943
 C    2.336522   -1.550247   -0.555332
 C    1.615707   -0.349158   -0.311156
 C    0.203562   -0.285921   -0.414937
 C   -0.472803    0.883181   -0.161780
 C    0.252724    2.057107    0.172666
 C    1.613260    2.024650    0.291381
 C    2.332589    0.819646    0.059528
 C    3.742590    0.745996    0.189058
 C   -1.970623    1.013974   -0.233811
 O   -2.500781    2.084539   -0.478794
 N   -2.652517   -0.147767    0.030357
 C   -4.047737   -0.349372    0.092166
 C   -4.507697   -1.549156    0.644486
 C   -5.869381   -1.814437    0.712777
 C   -6.787968   -0.889039    0.226978
 C   -6.325307    0.302113   -0.323121
 C   -4.965201    0.584213   -0.394607
 H    6.191581   -1.626601   -1.383726
 H    7.383674    0.070040    1.344694
 H    5.830837    0.330409    1.968078
 H    4.238356   -2.513693   -0.608586
 H    1.783957   -2.440001   -0.848595
 H   -0.320663   -1.182852   -0.739947
 H   -0.309887    2.972400    0.331514
 H    2.165528    2.922825    0.560635
 H    4.294899    1.639282    0.470516
 H   -2.095873   -0.917504    0.368871
 H   -3.795902   -2.278860    1.024725
 H   -6.211171   -2.750933    1.146319
 H   -7.854029   -1.092371    0.276491
 H   -7.033051    1.034380   -0.704868
 H   -4.606435    1.515683   -0.812960
