56 
1owk_ligand_ani.xyz
 N    8.616327   -0.632358   -0.852550
 C    8.111573    0.159733    0.165200
 N    8.897195    0.645215    1.045476
 C    6.620978    0.314584    0.143400
 C    5.809776   -0.729374   -0.231630
 C    4.399282   -0.591787   -0.257678
 C    3.543130   -1.657999   -0.649619
 C    2.185806   -1.498856   -0.655367
 C    1.603605   -0.257099   -0.280551
 C    2.411202    0.794527    0.067802
 C    3.822227    0.654703    0.101501
 C    4.678907    1.723644    0.482426
 C    6.035406    1.553921    0.513113
 C    0.117074   -0.028898   -0.279536
 O   -0.350309    1.080099   -0.478712
 N   -0.629577   -1.145396   -0.000118
 C   -2.029700   -1.238633    0.135910
 C   -2.890006   -0.239882   -0.307378
 C   -4.275457   -0.377218   -0.166524
 C   -4.815557   -1.553374    0.372088
 C   -3.935295   -2.536921    0.832736
 C   -2.562780   -2.391317    0.722812
 C   -6.304666   -1.792063    0.472568
 C   -7.068169   -0.844809   -0.442876
 N   -6.611599    0.523221   -0.157053
 C   -5.190956    0.755858   -0.627355
 C   -4.730447    2.146806   -0.155572
 C   -5.529455    3.256039   -0.846619
 C   -4.780665    2.281229    1.367659
 H    9.623878   -0.577771   -0.926594
 H    8.137952   -0.561784   -1.739624
 H    8.370442    1.162709    1.747691
 H    6.252368   -1.684239   -0.504216
 H    3.984909   -2.611628   -0.931895
 H    1.554548   -2.320033   -0.987868
 H    1.953122    1.748310    0.318431
 H    4.237442    2.678334    0.760953
 H    6.683426    2.381965    0.795820
 H   -0.115823   -1.958307    0.303158
 H   -2.449403    0.633515   -0.773483
 H   -4.342063   -3.444018    1.276382
 H   -1.903612   -3.178542    1.081670
 H   -6.633393   -1.637402    1.510780
 H   -6.541573   -2.833495    0.231264
 H   -6.840988   -1.095654   -1.483547
 H   -8.146201   -0.930213   -0.299984
 H   -6.566235    0.607961    0.882756
 H   -7.243163    1.229379   -0.566449
 H   -5.197657    0.749526   -1.723358
 H   -3.686258    2.250075   -0.470453
 H   -5.497150    3.151356   -1.937050
 H   -5.131451    4.242336   -0.585744
 H   -6.582370    3.236486   -0.541308
 H   -4.251631    1.456389    1.859500
 H   -4.315288    3.220266    1.684726
 H   -5.812650    2.292016    1.738779
