112 
1ox9_ligand_ani.xyz
 N    1.287552    1.353921   -1.404579
 C    1.211617    2.820681   -1.210739
 C    2.573147    3.324553   -0.725487
 O    3.343905    3.895889   -1.493189
 C    0.046540    3.179599   -0.292932
 N    2.888023    3.093388    0.575752
 C    4.162799    3.562941    1.113640
 C    5.252276    2.492272    0.890457
 O    5.786443    1.922614    1.839427
 C    4.035758    3.965485    2.574423
 N    5.554850    2.251293   -0.408744
 C    6.063294    0.997507   -0.963097
 C    4.852265    0.109489   -1.353290
 O    3.927590    0.607966   -1.993122
 C    7.122407    0.341951   -0.063596
 C    7.955056   -0.695024   -0.794685
 O    7.568356   -1.851703   -0.950358
 N    9.131214   -0.263453   -1.308136
 N    4.867249   -1.191749   -0.977336
 C    3.847934   -2.120736   -1.442056
 C    2.584043   -2.083814   -0.568217
 O    1.461221   -2.102063   -1.063717
 C    4.446382   -3.532101   -1.462884
 C    3.681005   -4.484078   -2.350383
 O    2.925791   -4.171139   -3.238419
 O    3.969858   -5.766707   -2.061881
 N    2.793376   -2.102941    0.768136
 C    1.664384   -2.073145    1.672375
 C    0.763179   -0.869197    1.353443
 O    1.206207    0.274236    1.208474
 C    2.092146   -2.098655    3.148222
 C    2.568740   -0.779488    3.760448
 C    3.883475   -0.253896    3.243044
 O    4.179563    0.937859    3.754741
 O    4.621919   -0.827427    2.461979
 N   -0.544944   -1.172489    1.230850
 C   -1.528102   -0.341463    0.573389
 C   -2.846135   -0.536341    1.333867
 O   -3.020590   -1.508808    2.051404
 C   -1.721174   -0.777671   -0.915627
 C   -2.123322    0.359292   -1.838012
 O   -1.289881    1.006712   -2.465191
 N   -3.445576    0.658802   -1.900390
 N   -3.810708    0.407826    1.121013
 C   -5.170708    0.077394    1.487814
 C   -5.778760   -0.940836    0.500253
 O   -5.272980   -1.225970   -0.583867
 C   -6.030580    1.345922    1.642703
 C   -6.193357    2.166123    0.380995
 C   -5.305326    3.207177    0.089737
 C   -7.222205    1.913719   -0.526160
 C   -5.436524    3.972905   -1.062184
 C   -7.366999    2.669471   -1.686517
 C   -6.472693    3.702955   -1.955120
 O   -6.557161    4.481109   -3.072594
 N   -6.936754   -1.511069    0.906954
 C   -7.623952   -2.498120    0.103823
 C   -9.030619   -2.630854    0.655278
 O   -9.792846   -3.435494   -0.099458
 C   -6.905697   -3.853181    0.085619
 O   -9.433161   -2.094228    1.661322
 H    2.148330    1.095896   -1.916428
 H    1.315496    0.881135   -0.489117
 H    0.441415    1.053672   -1.925088
 H    1.075116    3.300225   -2.185332
 H    0.122008    2.652975    0.662597
 H   -0.891132    2.891404   -0.775022
 H    0.025575    4.254491   -0.097391
 H    2.384949    2.372673    1.091360
 H    4.429070    4.431435    0.501446
 H    3.697767    3.125487    3.191383
 H    5.003802    4.300012    2.956997
 H    3.319468    4.786832    2.670272
 H    5.039528    2.815271   -1.080300
 H    6.517705    1.280884   -1.921967
 H    7.755346    1.140898    0.324753
 H    6.639453   -0.133755    0.792469
 H    9.748114   -0.944289   -1.725904
 H    9.503656    0.646772   -1.092251
 H    5.766007   -1.604116   -0.721046
 H    3.515380   -1.856229   -2.449492
 H    5.476953   -3.479529   -1.843616
 H    4.511776   -3.954981   -0.453962
 H    3.455894   -6.305520   -2.686296
 H    3.706455   -1.849311    1.135763
 H    1.074313   -2.975839    1.479112
 H    1.233941   -2.442356    3.737272
 H    2.872851   -2.860518    3.254473
 H    2.688176   -0.904936    4.843961
 H    1.819954    0.009191    3.626064
 H    4.964786    1.276041    3.254018
 H   -0.905669   -2.051917    1.577642
 H   -1.189687    0.701808    0.621872
 H   -2.464119   -1.585966   -0.957573
 H   -0.764834   -1.167959   -1.278659
 H   -4.142516   -0.017378   -1.594091
 H   -3.721021    1.337360   -2.598717
 H   -3.700184    0.962830    0.279000
 H   -5.114046   -0.411565    2.465730
 H   -7.015031    1.054802    2.031657
 H   -5.558144    1.956978    2.419223
 H   -4.491850    3.422436    0.782725
 H   -7.926773    1.107290   -0.326259
 H   -4.748714    4.782257   -1.286030
 H   -8.178716    2.456889   -2.381361
 H   -7.312702    4.190312   -3.598287
 H   -7.373696   -1.259161    1.783108
 H   -7.699023   -2.132162   -0.927182
 H  -10.664369   -3.470691    0.329304
 H   -7.456563   -4.563618   -0.535734
 H   -5.903822   -3.713504   -0.324902
 H   -6.816281   -4.255450    1.099496
