56 
1oxn_ligand_ani.xyz
 N   -0.498575    2.557114    0.566424
 C    0.969041    2.530520    0.269774
 C    1.236335    1.235795   -0.517372
 O    0.631164    1.033946   -1.568397
 C    1.781265    2.695100    1.545917
 N    2.104404    0.331280   -0.005738
 C    2.299859   -0.946164   -0.669457
 C    1.107643   -1.908614   -0.503049
 O    0.893276   -2.766736   -1.342192
 C    3.571160   -1.656929   -0.191899
 C    4.881062   -0.982575   -0.606098
 C    5.278153    0.219318    0.219286
 O    4.683682    0.674131    1.175582
 O    6.425296    0.758334   -0.218988
 N    0.386922   -1.785789    0.654560
 C   -0.982811   -2.253888    0.727554
 C   -1.886863   -1.033418    0.520053
 O   -1.561753    0.062478    0.965888
 C   -1.282925   -2.914484    2.069982
 N   -3.040315   -1.212812   -0.178021
 C   -3.744423   -0.098675   -0.828894
 C   -2.714561    0.905714   -1.358538
 O   -2.675494    2.088679   -1.082314
 C   -4.855254    0.553249    0.013968
 C   -6.044659   -0.400221    0.131923
 C   -4.404481    1.012106    1.398629
 O   -1.860128    0.313304   -2.183449
 H   -0.763246    3.407857    1.092070
 H   -0.774698    1.713263    1.106650
 H   -1.046974    2.539573   -0.316201
 H    1.192117    3.343003   -0.426755
 H    1.563039    3.663194    2.007198
 H    1.544201    1.909672    2.272397
 H    2.854897    2.659111    1.342910
 H    2.773379    0.585365    0.713163
 H    2.362758   -0.776777   -1.750440
 H    3.550678   -2.664733   -0.621628
 H    3.540559   -1.773307    0.898086
 H    5.709409   -1.695401   -0.521226
 H    4.858250   -0.673243   -1.658075
 H    6.617941    1.508073    0.369028
 H    0.555747   -0.932026    1.174774
 H   -1.119952   -2.973673   -0.087063
 H   -2.320165   -3.265063    2.099055
 H   -1.133815   -2.211011    2.896395
 H   -0.618698   -3.769560    2.218939
 H   -3.175512   -2.123793   -0.589400
 H   -4.215926   -0.525456   -1.721919
 H   -5.161173    1.438543   -0.558392
 H   -6.414113   -0.711853   -0.851465
 H   -5.765137   -1.298019    0.695720
 H   -6.872303    0.082976    0.662402
 H   -5.239151    1.490440    1.922275
 H   -3.584693    1.730241    1.330282
 H   -4.064853    0.163585    2.001740
 H   -1.059229    0.876367   -2.260822
