62 
1oy7_ligand_ani.xyz
 N    0.344477   -1.262336    2.276222
 C   -1.132755   -1.458316    2.094137
 C   -1.590648   -0.379047    1.100612
 O   -1.757647    0.777256    1.501319
 C   -1.864240   -1.321759    3.424518
 N   -1.731094   -0.759230   -0.188039
 C   -1.969924    0.139471   -1.330383
 C   -0.707808    0.977513   -1.597114
 O   -0.015590    0.788073   -2.594401
 C   -3.263983    0.952290   -1.187483
 C   -4.507613    0.090830   -1.463675
 C   -4.497337   -1.174827   -0.640430
 O   -4.778745   -0.940513    0.657978
 O   -4.259586   -2.279492   -1.065024
 N   -0.394553    1.887415   -0.638673
 C    1.000637    2.286187   -0.480768
 C    1.793708    1.043071    0.001426
 O    1.882436    0.735989    1.188460
 C    1.154046    3.532600    0.402419
 C    0.483750    3.421272    1.774163
 C    0.634686    4.758260   -0.352549
 N    2.326016    0.326421   -1.023500
 C    3.004149   -0.960047   -0.934012
 C    1.977019   -2.093434   -0.948412
 O    0.997123   -2.179948   -0.233788
 C    3.996864   -1.101533    0.239921
 C    4.673511   -2.473338    0.189416
 C    5.034236    0.018129    0.198572
 O    2.282866   -3.041378   -1.843407
 H    0.829388   -1.677694    1.457134
 H    0.592504   -0.251900    2.283202
 H    0.690601   -1.717940    3.137866
 H   -1.285353   -2.450968    1.655397
 H   -1.698624   -0.323415    3.834864
 H   -2.940930   -1.454804    3.288016
 H   -1.518124   -2.076170    4.138123
 H   -1.394144   -1.679290   -0.429882
 H   -2.053426   -0.515349   -2.201345
 H   -3.244295    1.783187   -1.902088
 H   -3.315691    1.373852   -0.181790
 H   -4.534923   -0.214060   -2.513505
 H   -5.415516    0.661501   -1.245672
 H   -4.724299   -1.805590    1.095919
 H   -0.944268    1.811281    0.214317
 H    1.367158    2.535812   -1.481456
 H    2.233379    3.663795    0.566443
 H    0.680711    4.331474    2.352463
 H   -0.606378    3.319148    1.693394
 H    0.869282    2.567823    2.336058
 H    0.789061    5.668277    0.236966
 H    1.151043    4.887808   -1.310536
 H   -0.438030    4.664077   -0.555544
 H    1.885932    0.509616   -1.922180
 H    3.577421   -1.069209   -1.860810
 H    3.436461   -1.017127    1.176535
 H    3.956612   -3.286925    0.335566
 H    5.166163   -2.627453   -0.778092
 H    5.435995   -2.552681    0.971283
 H    5.592079    0.006287   -0.747179
 H    4.572663    1.003344    0.309745
 H    5.758585   -0.106854    1.011078
 H    1.598400   -3.729564   -1.777619
