41 
1oyn_ligand_dft.xyz
 C    1.312843   -0.214412   -0.229216
 C   -0.009048   -0.571837   -0.504476
 C   -1.045567    0.349054   -0.449451
 C   -0.769063    1.687369   -0.113672
 C    0.544790    2.051821    0.173156
 C    1.570979    1.110285    0.115456
 C    2.414559   -1.250101   -0.327278
 C    3.341271   -1.277996    0.905016
 C    4.565905   -0.457226    0.510620
 O    5.449353   -0.053278    1.239296
 N    4.488569   -0.265323   -0.840460
 C    3.396073   -0.953046   -1.497129
 O   -2.304632   -0.055122   -0.782736
 C   -3.278594   -0.080044    0.275517
 C   -4.543904   -0.661183   -0.341900
 C   -4.268856   -2.176887   -0.422517
 C   -3.217378   -2.471126    0.683072
 C   -2.912553   -1.111174    1.342496
 O   -1.830679    2.534654   -0.102472
 C   -1.587775    3.892241    0.187015
 H   -0.265069   -1.592900   -0.775192
 H    0.786361    3.075072    0.437499
 H    2.584119    1.431098    0.340030
 H    1.950285   -2.226871   -0.486942
 H    2.881458   -0.870547    1.807379
 H    3.682356   -2.294237    1.133219
 H    5.262450    0.150044   -1.336197
 H    2.931029   -0.323651   -2.261047
 H    3.736778   -1.882978   -1.973334
 H   -3.407844    0.931137    0.671934
 H   -4.763471   -0.205645   -1.310907
 H   -5.385320   -0.452456    0.329185
 H   -5.184766   -2.759711   -0.289135
 H   -3.864189   -2.429559   -1.406218
 H   -3.578551   -3.198926    1.415548
 H   -2.308385   -2.890381    0.241168
 H   -3.559105   -0.946544    2.212752
 H   -1.877248   -1.015050    1.683341
 H   -0.899809    4.340111   -0.541459
 H   -2.555634    4.390386    0.121121
 H   -1.179858    4.024413    1.197524
