41 
1oyn_ligand_ani.xyz
 C    1.515660   -0.234676   -0.345792
 C    0.221616   -0.759536   -0.398276
 C   -0.897255    0.050743   -0.271479
 C   -0.732766    1.438190   -0.098829
 C    0.551786    1.965065   -0.048386
 C    1.665911    1.137413   -0.171410
 C    2.710362   -1.164843   -0.450637
 C    3.529364   -1.248467    0.854535
 C    4.785079   -0.419597    0.615829
 O    5.639415   -0.140661    1.432070
 N    4.779970   -0.055825   -0.701567
 C    3.752310   -0.697419   -1.499759
 O   -2.133970   -0.508133   -0.396717
 C   -3.063493   -0.390036    0.687068
 C   -4.344759    0.192203    0.117261
 C   -4.940631   -0.971417   -0.696823
 C   -4.369167   -2.268734   -0.063587
 C   -3.450249   -1.806285    1.085101
 O   -1.879002    2.167705    0.003114
 C   -1.755071    3.554134    0.234647
 H    0.065357   -1.826777   -0.535319
 H    0.695214    3.031266    0.085025
 H    2.654154    1.587174   -0.137369
 H    2.324393   -2.150565   -0.727995
 H    2.995039   -0.871552    1.730875
 H    3.843860   -2.272385    1.086668
 H    5.606421    0.365435   -1.101680
 H    3.322036    0.005049   -2.222698
 H    4.150103   -1.558664   -2.057554
 H   -2.632305    0.197583    1.504778
 H   -4.143301    1.087756   -0.472191
 H   -5.007751    0.471229    0.946998
 H   -6.035458   -0.949920   -0.682339
 H   -4.637842   -0.903435   -1.744493
 H   -5.157488   -2.935736    0.299889
 H   -3.799195   -2.827577   -0.809252
 H   -3.991288   -1.782887    2.039824
 H   -2.565630   -2.436250    1.215917
 H   -1.243928    4.056625   -0.597116
 H   -2.773308    3.936313    0.317020
 H   -1.212599    3.756379    1.167481
