70 
1oyq_ligand_ani.xyz
 N    7.879581    2.531046   -1.945098
 N    8.434674    3.012196    0.237339
 C    7.807243    2.264383   -0.585914
 C    6.922925    1.116168   -0.221666
 C    5.753618    0.854906   -0.936586
 C    4.922498   -0.206029   -0.604872
 C    5.258290   -1.055023    0.457598
 C    6.434268   -0.794789    1.175504
 C    7.242802    0.279701    0.848252
 N    4.463323   -2.135871    0.863238
 C    3.422703   -2.621590   -0.029641
 N    1.520300   -1.373143   -1.046696
 C    2.171263   -1.789250    0.013590
 N    1.573690   -1.434710    1.197784
 C    0.427577   -0.741602    0.852995
 C    0.411837   -0.708002   -0.553301
 C   -0.618751   -0.210487    1.606408
 C   -1.682277    0.344337    0.914459
 C   -1.726383    0.386019   -0.495993
 C   -0.649581   -0.109675   -1.230668
 C    2.013514   -1.763670    2.539979
 C   -3.206920    0.532060   -2.606893
 C   -2.644722    1.897107   -2.384590
 C   -2.915888    0.984027   -1.199005
 C   -4.137514    1.254879   -0.344200
 N   -5.024160    0.382772   -0.043291
 N   -5.579434    2.939093    0.590687
 C   -4.322828    2.603587    0.281605
 C   -3.231706    3.438777    0.533422
 C   -3.457711    4.687002    1.099161
 C   -4.764401    5.053924    1.394645
 C   -5.780028    4.144477    1.119876
 O   -4.766186   -0.832230   -0.638472
 C   -5.477028   -1.857434    0.030812
 C   -4.705606   -3.151113   -0.144162
 O   -5.207554   -4.221103   -0.387348
 O   -3.398081   -2.946146    0.036641
 C   -1.127015   -3.619472   -0.175818
 C   -2.556012   -4.106518   -0.105531
 H    8.612252    3.192307   -2.168693
 H    7.867832    1.723024   -2.552202
 H    8.253121    2.723886    1.197729
 H    5.489567    1.505103   -1.767379
 H    4.024608   -0.375347   -1.191802
 H    6.702388   -1.444260    2.006485
 H    8.156993    0.452435    1.414347
 H    5.041379   -2.884460    1.222495
 H    3.182170   -3.653103    0.259108
 H    3.755857   -2.655471   -1.076930
 H   -0.609596   -0.230975    2.693107
 H   -2.508177    0.771007    1.480930
 H   -0.605194   -0.049568   -2.313635
 H    2.281006   -2.823004    2.588022
 H    2.881808   -1.167286    2.833012
 H    1.186102   -1.584456    3.230185
 H   -2.582793   -0.251172   -3.027409
 H   -4.258579    0.471231   -2.869186
 H   -3.314308    2.743856   -2.520528
 H   -1.605111    2.079387   -2.647837
 H   -2.222632    3.110731    0.296282
 H   -2.629444    5.359928    1.304077
 H   -4.998689    6.019309    1.832964
 H   -6.816917    4.391595    1.343674
 H   -6.482436   -1.982673   -0.377309
 H   -5.548757   -1.621692    1.100240
 H   -0.977284   -2.981308   -1.050830
 H   -0.854074   -3.047196    0.714425
 H   -0.450723   -4.477202   -0.257565
 H   -2.851565   -4.645350   -1.011013
 H   -2.725071   -4.763337    0.754116
