54 
1oyt_ligand_ani.xyz
 O    0.900124   -0.744294    2.884761
 C    1.506047   -0.889273    1.846116
 N    1.386700   -1.996281    1.012715
 C    0.318552   -2.983396    1.153742
 C   -0.968403   -2.566058    0.464200
 C   -1.321910   -3.096987   -0.775750
 C   -2.495965   -2.708560   -1.414910
 C   -3.300627   -1.774887   -0.789162
 F   -4.432411   -1.371285   -1.407211
 C   -2.978351   -1.222000    0.441961
 C   -1.792494   -1.606585    1.053464
 C    2.135874   -1.884250   -0.150821
 O    2.046599   -2.623715   -1.104900
 C    3.060413   -0.690129    0.005922
 C    3.039758    0.250572   -1.196854
 N    2.692094    1.637085   -0.605621
 C    4.008040    2.403649   -0.471579
 C    5.105606    1.445618   -0.948497
 C    4.376700    0.486774   -1.889676
 C    1.901828    1.398469    0.672676
 C    0.391192    1.451581    0.443860
 C   -0.212433    1.323648   -0.811060
 C   -1.562140    1.591018   -0.993703
 C   -2.356486    1.999746    0.081608
 C   -1.784012    2.013472    1.356169
 C   -0.438714    1.726861    1.536250
 C   -3.775511    2.440446   -0.117411
 N   -4.459088    1.785881   -1.127048
 N   -4.344769    3.383358    0.529498
 C    2.496530    0.066496    1.210403
 H    0.691942   -3.922556    0.737598
 H    0.160323   -3.113109    2.228895
 H   -0.660627   -3.812551   -1.259504
 H   -2.786266   -3.109511   -2.381125
 H   -3.631356   -0.479467    0.891786
 H   -1.488100   -1.143480    1.989579
 H    4.068803   -1.063059    0.205388
 H    2.253913   -0.041895   -1.890715
 H    2.079317    2.178776   -1.238622
 H    4.135533    2.719749    0.565122
 H    3.936014    3.293076   -1.102800
 H    5.518619    0.895189   -0.097573
 H    5.924723    1.979895   -1.433387
 H    4.912751   -0.448148   -2.072790
 H    4.187786    0.969640   -2.854006
 H    2.143528    2.195083    1.381748
 H    0.378944    1.027973   -1.675987
 H   -1.999527    1.528589   -1.987983
 H   -2.399079    2.254761    2.221177
 H   -0.023972    1.731919    2.541496
 H   -5.444860    2.012612   -1.133942
 H   -4.264850    0.799308   -1.251510
 H   -3.694150    3.792649    1.200089
 H    3.272976    0.312546    1.934575
