26 
1ozv_ligand_ani.xyz
 N   -2.709950   -1.569674   -0.086098
 C   -1.642626   -0.576379    0.330243
 C   -2.188887    0.805460   -0.011726
 O   -1.574061    1.790301   -0.327509
 C   -0.274983   -0.863603   -0.286037
 C    0.868095   -0.106396    0.390077
 C    2.222547   -0.393312   -0.254887
 C    3.354073    0.365934    0.439824
 N    4.688293    0.140522   -0.216051
 O   -3.540826    0.794600    0.104354
 H   -3.626232   -1.101575    0.024259
 H   -2.579853   -1.827484   -1.084004
 H   -2.675131   -2.411589    0.508101
 H   -1.568961   -0.613455    1.420851
 H   -0.081430   -1.942196   -0.216400
 H   -0.293219   -0.611086   -1.354868
 H    0.656911    0.968656    0.349791
 H    0.906031   -0.377453    1.455757
 H    2.179965   -0.108400   -1.316201
 H    2.420989   -1.474858   -0.222168
 H    3.144979    1.435218    0.426990
 H    3.428513    0.053103    1.480872
 H    4.638717    0.465675   -1.195540
 H    5.429887    0.654043    0.276377
 H    4.902368   -0.870115   -0.201792
 H   -3.842150    1.696160   -0.096700
