29 
1p0y_ligand_ani.xyz
 N   -3.299314   -1.499481   -0.043970
 C   -2.190914   -0.542856    0.350039
 C   -0.840704   -0.899841   -0.268087
 C    0.341244   -0.183498    0.385102
 C    1.673309   -0.545432   -0.268861
 C    2.855368    0.171923    0.366625
 N    4.106017   -0.166745   -0.358414
 C    5.307807    0.478123    0.149851
 C   -2.682430    0.853418   -0.015416
 O   -4.033610    0.898088    0.102289
 O   -2.029297    1.807485   -0.348355
 H   -3.185585   -1.776885   -1.038733
 H   -4.196228   -0.995348    0.064817
 H   -3.292369   -2.333308    0.562350
 H   -2.113398   -0.562699    1.440951
 H   -0.856060   -0.666041   -1.341169
 H   -0.695496   -1.984611   -0.179866
 H    0.377526   -0.436898    1.455182
 H    0.178976    0.899243    0.326282
 H    1.828569   -1.633616   -0.206885
 H    1.630774   -0.286357   -1.337530
 H    2.957898   -0.107357    1.419269
 H    2.705177    1.255224    0.340208
 H    4.217781   -1.205055   -0.308376
 H    3.962411    0.101421   -1.358744
 H    5.200854    1.565459    0.121393
 H    5.483272    0.197304    1.191151
 H    6.169853    0.190309   -0.446878
 H   -4.299702    1.807185   -0.113713
