31 
1p1n_ligand_ani.xyz
 N    1.078727   -0.905792    1.144084
 C    0.082555    0.094104    1.639318
 C   -2.627102    1.314792    1.119291
 C   -1.679973    2.824096   -0.597061
 C    1.389117   -0.566569   -0.284161
 C    0.205527    0.254692   -0.800252
 C   -0.914561   -0.606062   -1.407411
 C   -0.200860    1.051161    0.464181
 C   -1.434150   -1.722982   -0.530091
 C   -1.568325    1.693097    0.402435
 C    2.703785    0.190469   -0.371581
 O    3.540469   -0.198794    0.619706
 O   -2.775421   -1.785185   -0.514682
 O   -0.759262   -2.524599    0.089379
 O    3.002175    1.012377   -1.198404
 H    1.949374   -0.928592    1.696251
 H    0.649921   -1.846455    1.135139
 H   -0.810218   -0.432155    1.976238
 H    0.477020    0.634852    2.502783
 H   -3.591615    1.803220    1.001856
 H   -2.569588    0.527230    1.863177
 H   -2.671776    3.285725   -0.567642
 H   -0.936667    3.607546   -0.398197
 H   -1.502488    2.474626   -1.622654
 H    1.522151   -1.489750   -0.851882
 H    0.550751    0.937029   -1.581415
 H   -0.541961   -1.085600   -2.321868
 H   -1.756257    0.025361   -1.700568
 H    0.525327    1.873101    0.535598
 H    4.362159    0.306092    0.498877
 H   -3.006989   -2.542860    0.049719
