21 
1p1o_ligand_xtb.xyz
 C    2.978568   -0.450996    0.008090
 C    1.586784    0.051111    0.479207
 C    0.517728   -0.533963   -0.455565
 C   -1.440248    1.004278   -0.083922
 C   -3.009907   -0.634178    0.020861
 N    1.627154    1.527933    0.376179
 N   -0.815516   -0.205756   -0.014075
 N   -2.770888    0.744643   -0.021561
 O    3.731160    0.314396   -0.523596
 O    3.157526   -1.720566    0.244441
 O   -0.855322    2.075681   -0.135367
 O   -4.035872   -1.205729    0.068702
 O   -1.770552   -1.220252    0.005675
 H    1.401506   -0.272427    1.506179
 H    0.584372   -1.624784   -0.446488
 H    0.682369   -0.175593   -1.479584
 H    2.362660    1.756698   -0.322711
 H    0.647401    1.920686    0.084068
 H    1.901213    1.973595    1.256206
 H   -3.503588    1.440074   -0.023065
 H    4.025740   -2.051746   -0.049280
