24 
1p1q_ligand_dft.xyz
 N   -2.116819   -1.191269    0.781563
 C   -1.723315    0.254801    0.862836
 C   -1.856051    0.928668   -0.502208
 O   -1.270867    1.934449   -0.789883
 O   -2.725650    0.279992   -1.286804
 C   -0.308174    0.416914    1.432341
 C    0.789767   -0.054734    0.524754
 C    0.869095   -1.358259   -0.092695
 C    1.904617    0.614101    0.130612
 C    2.406015    1.986380    0.389129
 O    0.043835   -2.293155   -0.123543
 N    2.087145   -1.392351   -0.693542
 O    2.698148   -0.162071   -0.634301
 H   -2.350332   -1.562848    1.704677
 H   -1.275185   -1.774354    0.384946
 H   -2.927587   -1.312787    0.167540
 H   -2.440461    0.748890    1.527063
 H   -2.814503    0.761287   -2.127911
 H   -0.172553    1.479742    1.645592
 H   -0.258462   -0.102471    2.397790
 H    3.116566    2.281027   -0.385655
 H    1.572397    2.692884    0.390231
 H    2.912534    2.035671    1.358309
 H    2.389843   -1.962660   -1.471085
