24 
1p1q_ligand_ani.xyz
 N    2.095104    1.440567    0.348400
 C    1.744200    0.055740    0.814900
 C    1.839110   -0.904657   -0.361406
 O    1.285343   -1.970165   -0.452790
 O    2.679900   -0.425153   -1.305019
 C    0.382460   -0.048935    1.512909
 C   -0.796624    0.124605    0.604187
 C   -1.098431    1.374332   -0.075684
 C   -1.726710   -0.761093    0.181199
 C   -1.895112   -2.218535    0.419671
 O   -0.478288    2.430566   -0.136509
 N   -2.332891    1.171357   -0.696941
 O   -2.636625   -0.198578   -0.657228
 H    2.706497    1.914553    1.030802
 H    1.225612    2.000386    0.208185
 H    2.593656    1.344747   -0.551807
 H    2.516762   -0.271890    1.515394
 H    2.712681   -1.087296   -2.014815
 H    0.337794   -1.030224    1.994124
 H    0.353627    0.698833    2.312343
 H   -1.633562   -2.780673   -0.482496
 H   -1.241060   -2.560943    1.226030
 H   -2.930725   -2.457872    0.676249
 H   -2.472773    1.524809   -1.636521
