14 
1p28_ligand_xtb.xyz
 C    1.134794    1.337551   -0.445454
 C    0.681123    0.150616    0.419894
 O    1.556845   -0.933931    0.282285
 C   -0.729948   -0.270588    0.021111
 C   -1.823451    0.733931    0.234646
 O   -0.909455   -1.359966   -0.468673
 H    2.181237    1.538734   -0.233918
 H    0.549173    2.224828   -0.225290
 H    1.038725    1.088961   -1.499939
 H    0.679249    0.455427    1.476538
 H    1.077031   -1.622066   -0.210060
 H   -1.661507    1.307363    1.142546
 H   -1.832782    1.419907   -0.611320
 H   -2.785358    0.228966    0.271360
