110 
1p4u_ligand_xtb.xyz
 N   -0.263183    0.310871   -1.365878
 C   -1.628070   -0.184174   -1.581486
 C   -2.486402    0.634689   -0.596331
 O   -1.962046    1.125153    0.391868
 C   -1.711336   -1.691621   -1.345009
 C   -3.026246   -2.267913   -1.817434
 O   -3.032105   -3.588254   -1.761221
 O   -3.950996   -1.613467   -2.229351
 N   -3.743756    0.865308   -0.963552
 C   -4.607812    1.678835   -0.116969
 C   -3.820498    2.945871    0.279953
 O   -3.787231    3.383558    1.402848
 C   -5.059960    0.924077    1.149830
 C   -5.240664   -0.542195    0.874845
 C   -6.358959   -1.007842    0.194634
 C   -4.262636   -1.450454    1.258799
 C   -6.500930   -2.355168   -0.085280
 C   -4.400079   -2.798871    0.979108
 C   -5.521950   -3.253094    0.306329
 N   -3.196197    3.546419   -0.767897
 C   -2.086485    4.435937   -0.532688
 C   -0.815990    3.841630   -1.121093
 O   -0.866600    2.862178   -1.871299
 N    0.331747    4.450196   -0.835352
 C    1.594445    3.991673   -1.396274
 C    2.004968    2.656606   -0.738424
 O    1.299788    2.115680    0.085349
 C    2.561294    5.134334   -1.074740
 C    2.022335    5.656601    0.255484
 C    0.508731    5.571523    0.069577
 N    3.197264    2.199414   -1.166469
 C    3.842176    0.976087   -0.717270
 C    3.187196   -0.247361   -1.376741
 O    2.242816   -0.145027   -2.147526
 C    3.818205    0.860423    0.815694
 C    4.490696    2.046308    1.520183
 C    4.148807    2.010476    3.008254
 C    6.005194    2.034085    1.327674
 N    3.768170   -1.414840   -1.086810
 C    3.195023   -2.695864   -1.444273
 C    2.670530   -3.323633   -0.148067
 O    3.252499   -3.171655    0.911779
 C    4.232458   -3.595212   -2.155987
 C    3.597299   -4.925358   -2.554112
 C    5.471667   -3.827234   -1.294603
 N    1.536201   -4.031334   -0.272585
 C    0.847048   -4.599481    0.873382
 C    0.183135   -3.456443    1.653643
 O   -0.958996   -3.095024    1.438583
 N    0.996531   -2.878794    2.550995
 C    0.596745   -1.643835    3.193598
 C    0.124141   -0.663484    2.120473
 O    0.552554   -0.703566    0.981236
 C    1.761598   -1.051456    3.976619
 O   -0.753403    0.188823    2.555485
 H   -0.283023    1.353802   -1.489655
 H    0.041208    0.111046   -0.369110
 H    0.478483   -0.067962   -1.975645
 H   -1.946213    0.046251   -2.603495
 H   -0.913003   -2.194985   -1.894581
 H   -1.591093   -1.952650   -0.287835
 H   -3.901213   -3.947708   -2.005832
 H   -4.165818    0.249584   -1.651211
 H   -5.469189    1.968254   -0.724764
 H   -5.988296    1.371618    1.504217
 H   -4.301916    1.068544    1.920695
 H   -7.128020   -0.312594   -0.109429
 H   -3.388754   -1.105538    1.792346
 H   -7.378520   -2.705083   -0.608039
 H   -3.624936   -3.485211    1.285125
 H   -5.638966   -4.306914    0.096246
 H   -3.168036    3.068842   -1.658750
 H   -2.001415    4.560091    0.550608
 H   -2.268990    5.416969   -0.987522
 H    1.473305    3.815781   -2.471279
 H    3.596157    4.806747   -1.004039
 H    2.490388    5.907307   -1.840729
 H    2.354481    6.667453    0.476770
 H    2.333114    4.998629    1.067614
 H    0.113369    6.484674   -0.388400
 H   -0.010966    5.398986    1.013046
 H    3.620560    2.662772   -1.954478
 H    4.880382    1.018818   -1.063784
 H    2.777430    0.795626    1.132349
 H    4.323391   -0.057591    1.118882
 H    4.090932    2.975661    1.101201
 H    3.071973    2.050697    3.153668
 H    4.528207    1.099395    3.465190
 H    4.596021    2.858131    3.520681
 H    6.456025    2.864845    1.863966
 H    6.279535    2.127985    0.279401
 H    6.430712    1.111406    1.716050
 H    4.474025   -1.465901   -0.366683
 H    2.365226   -2.493451   -2.128491
 H    4.532810   -3.065898   -3.066947
 H    2.703923   -4.770458   -3.155486
 H    3.335948   -5.508541   -1.674467
 H    4.301568   -5.504515   -3.144874
 H    6.038939   -2.909023   -1.163087
 H    5.198529   -4.213267   -0.315962
 H    6.121501   -4.551715   -1.777758
 H    1.064678   -4.069089   -1.160942
 H    1.568708   -5.119422    1.507508
 H    0.086591   -5.293787    0.519647
 H    1.991018   -3.070586    2.482152
 H   -0.254750   -1.836435    3.856507
 H    1.458673   -0.119913    4.446099
 H    2.075568   -1.746726    4.750407
 H    2.599177   -0.859122    3.309838
 H   -1.121150    0.765532    1.836093
