18 
1p7m_ligand_ani.xyz
 N    1.126176    1.746397   -0.000611
 C    0.661207    0.512267   -0.000741
 N    1.348696   -0.678778   -0.000578
 C    0.605488   -1.818163   -0.000535
 N   -0.700072   -1.878263   -0.000375
 C   -1.415012   -0.718883   -0.000488
 N   -2.758730   -0.806681   -0.005117
 C   -0.749765    0.503632   -0.000292
 N   -1.199300    1.795396    0.000639
 C   -0.054420    2.458201    0.000028
 C    2.805414   -0.667122    0.001534
 H    1.177414   -2.746624   -0.000895
 H   -3.192490   -1.715178    0.020294
 H   -3.312883    0.035827    0.019188
 H   -0.033766    3.544902    0.000004
 H    3.176988   -0.149484   -0.887085
 H    3.173416   -0.140562    0.886352
 H    3.176468   -1.694969    0.007397
