57 
1p93_ligand_xtb.xyz
 C    3.485397   -1.593814   -0.157996
 C    4.591584   -1.401590   -0.869105
 C    5.249601   -0.091797   -0.962966
 C    4.605283    0.973312   -0.194731
 C    3.496624    0.802219    0.529703
 C    2.841064    1.935767    1.253279
 C    1.422458    2.129459    0.714262
 C    0.608010    0.835087    0.769181
 C    1.355167   -0.286099    0.021217
 C    2.783396   -0.522939    0.621240
 C    0.525293   -1.578092   -0.193979
 C   -0.888253   -1.281102   -0.727853
 C   -1.609326   -0.228451    0.108446
 C   -0.747987    1.040384    0.100815
 C   -1.674346    2.122220    0.653267
 C   -3.082703    1.722025    0.151330
 C   -2.899691    0.360876   -0.575677
 C   -1.921540   -0.762810    1.505355
 C    2.769639   -0.992094    2.088112
 C   -4.054861   -0.618614   -0.487671
 C   -5.099469   -0.533601    0.602401
 C   -3.701224    2.774719   -0.760468
 F    1.576249    0.172755   -1.280818
 O    6.261169    0.088255   -1.618021
 O    0.507846   -2.352638    0.983015
 O   -2.642518    0.582037   -1.943554
 O   -4.170677   -1.475901   -1.342358
 O   -5.940623   -1.647034    0.576175
 H    3.052196   -2.581180   -0.076852
 H    5.067866   -2.212076   -1.402154
 H    5.084144    1.941683   -0.247202
 H    2.801183    1.727437    2.324881
 H    3.416609    2.851163    1.111171
 H    0.912891    2.902799    1.289942
 H    1.483174    2.459763   -0.324227
 H    0.469733    0.529052    1.807492
 H    1.049036   -2.136955   -0.988036
 H   -1.454491   -2.217212   -0.758342
 H   -0.783128   -0.911846   -1.749148
 H   -0.562180    1.279129   -0.951618
 H   -1.641041    2.146147    1.742991
 H   -1.399847    3.107771    0.283563
 H   -3.744851    1.577626    1.006653
 H   -2.563487   -1.639331    1.435409
 H   -2.417246   -0.016425    2.118184
 H   -1.007029   -1.063469    2.007125
 H    2.216158   -0.313466    2.727878
 H    3.797918   -1.041691    2.441252
 H    2.321903   -1.976697    2.164912
 H   -5.678453    0.386656    0.413208
 H   -4.652772   -0.455533    1.596600
 H   -3.064678    2.942001   -1.623713
 H   -3.821750    3.708699   -0.217337
 H   -4.677277    2.449608   -1.113827
 H   -0.085119   -3.099478    0.841854
 H   -2.953322   -0.199108   -2.425335
 H   -5.798664   -2.088007   -0.278993
