57 
1p93_ligand_dft.xyz
 C    3.497336   -1.606230   -0.116974
 C    4.620818   -1.464113   -0.821362
 C    5.283792   -0.150348   -0.963863
 C    4.646431    0.974549   -0.256387
 C    3.521649    0.845472    0.457749
 C    2.864657    2.014588    1.137727
 C    1.414137    2.173238    0.666405
 C    0.607997    0.869373    0.749013
 C    1.362182   -0.276454    0.035661
 C    2.806509   -0.486704    0.617906
 C    0.540590   -1.574762   -0.158119
 C   -0.887868   -1.313079   -0.668018
 C   -1.620959   -0.234833    0.130127
 C   -0.761492    1.041546    0.100087
 C   -1.695582    2.144603    0.608369
 C   -3.115575    1.704809    0.141765
 C   -2.906796    0.338755   -0.573448
 C   -1.936320   -0.720144    1.555952
 C    2.829032   -0.873031    2.120946
 C   -4.077894   -0.635084   -0.499958
 C   -5.125659   -0.588780    0.594036
 C   -3.832074    2.734065   -0.726586
 F    1.559138    0.156048   -1.288482
 O    6.304844   -0.010721   -1.619358
 O    0.563288   -2.314751    1.052391
 O   -2.650065    0.572571   -1.941093
 O   -4.199747   -1.470795   -1.381786
 O   -5.945253   -1.712993    0.556133
 H    3.048794   -2.590151    0.003926
 H    5.104108   -2.304321   -1.310905
 H    5.143554    1.936176   -0.355433
 H    2.881247    1.866310    2.225523
 H    3.427871    2.930607    0.935118
 H    0.914534    2.945740    1.260992
 H    1.414964    2.516403   -0.374238
 H    0.483141    0.594221    1.803071
 H    1.066410   -2.138051   -0.941333
 H   -1.438466   -2.265037   -0.670835
 H   -0.810632   -0.988721   -1.709590
 H   -0.578493    1.246886   -0.960483
 H   -1.651826    2.235813    1.700527
 H   -1.430156    3.121864    0.194261
 H   -3.729072    1.531271    1.032342
 H   -2.556126   -1.624964    1.528838
 H   -2.465547    0.030697    2.150488
 H   -1.022651   -0.985459    2.088274
 H    2.238151   -0.191635    2.737202
 H    3.864919   -0.836892    2.472007
 H    2.436052   -1.877938    2.267405
 H   -5.692978    0.346587    0.432387
 H   -4.657436   -0.501674    1.580421
 H   -3.245579    2.965507   -1.618700
 H   -3.991263    3.658240   -0.161621
 H   -4.810368    2.368348   -1.059105
 H   -0.044053   -3.057426    0.952060
 H   -2.923850   -0.233906   -2.405832
 H   -5.801496   -2.114047   -0.316902
