20 
1pa9_ligand_ani.xyz
 S    2.308068   -0.744657    0.042919
 O    1.568439    0.682405   -0.157175
 O    2.040772   -1.287382    1.344016
 O    3.790855   -0.156248    0.076231
 O    2.123436   -1.533559   -1.149168
 O    0.566892    3.066003   -0.034700
 O   -4.123588   -1.055481    0.065263
 O   -2.426827   -2.381545   -0.085603
 C   -0.657361   -0.344939   -0.077883
 N   -2.926392   -1.272998   -0.010384
 C   -1.708285    2.251063    0.047865
 C    0.178181    0.753688   -0.079364
 C   -2.565755    1.157749    0.053447
 C   -0.330619    2.058874   -0.021814
 C   -2.025464   -0.115146   -0.011320
 H    3.848111    0.502326   -0.634918
 H    0.092195    3.905043    0.005531
 H   -0.291988   -1.365456   -0.125175
 H   -2.116526    3.258514    0.097780
 H   -3.640150    1.283807    0.106266
