67 
1pau_ligand_dft.xyz
 C    6.322272   -0.916103    0.054018
 O    6.223383   -2.066268   -0.349516
 C    7.650467   -0.271146    0.400034
 N    5.232520   -0.125426    0.246337
 C    3.899537   -0.574820   -0.066423
 C    3.007601    0.673805   -0.091943
 O    3.385233    1.741587    0.377641
 C    3.412841   -1.607314    0.977198
 C    2.109269   -2.308981    0.687388
 O    1.851488   -2.452942   -0.604674
 O    1.388563   -2.739012    1.573126
 N    1.791916    0.492751   -0.654547
 C    0.712184    1.431596   -0.467042
 C   -0.468160    0.689429    0.172425
 O   -0.427267   -0.517936    0.390891
 C    0.332819    2.157486   -1.781249
 C    0.956459    3.546304   -1.862127
 C    0.318169    4.505515   -0.888167
 O    0.856798    5.726673   -0.948757
 O   -0.587935    4.239644   -0.122271
 N   -1.524983    1.465461    0.480442
 C   -2.731197    0.911000    1.073618
 C   -3.425312    0.038152    0.011791
 O   -4.070559    0.551148   -0.900131
 C   -3.663513    2.020511    1.574434
 C   -2.957879    2.931850    2.582875
 C   -4.923164    1.404647    2.189356
 N   -3.244993   -1.289884    0.168559
 C   -3.509395   -2.271508   -0.888044
 C   -5.010561   -2.415103   -1.204360
 O   -5.477908   -1.480190   -2.132104
 C   -2.913595   -3.621473   -0.450114
 C   -1.442899   -3.485608   -0.135059
 O   -1.205548   -3.317377    1.151374
 O   -0.582749   -3.480675   -1.004030
 H    7.744155    0.722657   -0.049177
 H    7.745456   -0.161648    1.485684
 H    8.454232   -0.912792    0.038656
 H    5.305127    0.833138    0.562842
 H    3.899401   -1.055697   -1.050284
 H    3.339150   -1.153072    1.968100
 H    4.184799   -2.384902    1.018190
 H    0.966074   -2.900462   -0.728909
 H    1.527299   -0.451454   -0.914068
 H    1.062347    2.168196    0.263267
 H   -0.753007    2.238061   -1.886780
 H    0.688474    1.551121   -2.618591
 H    2.030451    3.508187   -1.642799
 H    0.857748    3.977304   -2.864729
 H    0.394680    6.275479   -0.294155
 H   -1.478147    2.457064    0.263230
 H   -2.431397    0.284911    1.924491
 H   -3.962271    2.608393    0.697383
 H   -3.652017    3.697583    2.943854
 H   -2.612842    2.356966    3.451000
 H   -2.093174    3.446316    2.153162
 H   -5.474501    0.801326    1.462275
 H   -5.595008    2.191408    2.545777
 H   -4.669023    0.768594    3.046431
 H   -2.528436   -1.541423    0.839856
 H   -3.008254   -1.947997   -1.809346
 H   -5.182007   -3.402288   -1.647927
 H   -5.561299   -2.380267   -0.248848
 H   -5.157130   -0.608340   -1.835423
 H   -3.021598   -4.330355   -1.273514
 H   -3.446834   -4.000544    0.427026
 H   -0.237311   -3.122425    1.303757
