15 
1pb8_ligand_ani.xyz
 N    0.465386    1.579117    0.054895
 C    0.197904    0.259662    0.708308
 C   -1.059046   -0.331834    0.087945
 O   -1.348971   -1.498470    0.032360
 O   -1.868011    0.649549   -0.374352
 C    1.405757   -0.646508    0.489393
 O    1.818973   -0.369242   -0.843957
 H   -0.424617    1.940491   -0.314544
 H    0.886977    2.246063    0.714843
 H    1.115641    1.366379   -0.726466
 H   -0.010957    0.391310    1.769869
 H   -2.656207    0.209324   -0.733062
 H    1.110521   -1.692295    0.618159
 H    2.205760   -0.408406    1.203637
 H    2.431561   -1.049296   -1.142985
