144 
1pbk_ligand_ani.xyz
 C    2.194341   -2.833837    0.902209
 O    2.542759   -2.098048   -0.164202
 O    2.124010   -4.040267    0.910110
 C    1.969887   -1.942199    2.127920
 C    3.296548   -1.567307    2.805003
 C    4.018163   -2.782947    3.408459
 C    3.021922   -3.832977    3.930246
 C    1.685076   -3.202778    4.285775
 N    1.097720   -2.572674    3.104752
 C   -0.255919   -2.546590    3.006633
 O   -1.009565   -3.052586    3.824129
 C   -0.820343   -1.791703    1.781022
 O   -0.609783   -2.216757    0.666057
 C   -1.579946   -0.462515    2.031976
 O   -0.588911    0.328668    2.673507
 O   -1.953288    0.116838    0.806044
 C   -2.831757   -0.675427    2.898768
 C   -3.328153    0.665905    3.454608
 C   -2.187087    1.445067    4.102086
 C   -1.065200    1.622711    3.080091
 C    0.137883    2.420041    3.600381
 C    0.832273    3.309987    2.547881
 O   -0.010821    4.433180    2.343460
 C    1.154615    2.570429    1.261792
 C    0.335845    2.653843    0.184396
 C    0.288066    1.744064   -0.916574
 C   -0.645396    1.796260   -1.927424
 C   -1.875459    2.540015   -1.888727
 C   -2.582369    2.908205   -0.797996
 C   -3.917225    3.608377   -0.858771
 C   -5.040062    2.627692   -1.260056
 C   -5.202487    1.414965   -0.318937
 C   -5.985851    0.330989   -1.054174
 O   -7.200804    0.350333   -1.073147
 C   -5.253524   -0.816100   -1.782438
 O   -4.946190   -1.854586   -0.867836
 C   -3.959256   -0.401899   -2.483482
 O   -4.354668    0.430130   -3.569059
 C   -3.161264   -1.606449   -2.957803
 C   -1.921391   -1.763076   -2.480206
 C   -0.978109   -2.941903   -2.420936
 C    0.468166   -2.423410   -2.306130
 O    0.709416   -1.248484   -2.479298
 C    1.565127   -3.423903   -1.982000
 C    2.847966   -2.833290   -1.385767
 C    3.611769   -1.850136   -2.279716
 C    4.982434   -1.514948   -1.655114
 C    5.514498   -0.111054   -1.981355
 C    4.702728    0.967631   -1.246987
 C    5.233023    2.372668   -1.511075
 O    4.560431    3.349738   -0.733951
 C    6.708308    2.482382   -1.140857
 O    7.193222    3.768526   -1.471913
 C    7.533790    1.436761   -1.874370
 C    7.000918    0.023860   -1.613496
 C   -3.924084   -1.415823    2.131485
 C    2.362362    1.692168    1.302987
 C   -3.887539    4.808885   -1.810061
 C   -5.916206    1.783858    0.988128
 C   -3.908924   -2.507260   -3.890349
 C   -1.110503   -4.001093   -3.518395
 C    3.769438   -2.366479   -3.710730
 C    0.664059    5.538283    1.792960
 C   -6.081475   -2.525764   -0.368424
 C    3.341078    3.779002   -1.296539
 H    1.485096   -1.021691    1.784891
 H    3.049962   -0.855394    3.604678
 H    3.939772   -1.034071    2.094100
 H    4.669049   -2.430544    4.217023
 H    4.667910   -3.249968    2.659999
 H    2.837256   -4.573372    3.146921
 H    3.428329   -4.360445    4.800297
 H    1.792218   -2.460489    5.091139
 H    0.971251   -3.951624    4.632228
 H   -1.139380    0.296759    0.303049
 H   -2.502276   -1.296954    3.740274
 H   -3.765588    1.266235    2.644125
 H   -4.128850    0.481269    4.180924
 H   -1.794469    0.903677    4.973541
 H   -2.536302    2.428200    4.445643
 H   -1.483037    2.151608    2.212345
 H   -0.165278    3.095002    4.409790
 H    0.850421    1.696752    4.008224
 H    1.779578    3.659030    2.992536
 H   -0.362158    3.493185    0.126531
 H    1.061986    0.978964   -0.975761
 H   -0.443203    1.242476   -2.834980
 H   -2.289772    2.771761   -2.873934
 H   -2.295128    2.586055    0.204618
 H   -4.125989    3.990570    0.148607
 H   -4.836770    2.263827   -2.274193
 H   -5.993966    3.172773   -1.302242
 H   -4.210198    1.010215   -0.078271
 H   -5.963713   -1.166920   -2.543927
 H   -3.332937    0.170056   -1.780299
 H   -3.549863    0.709445   -4.026500
 H   -1.481088   -0.911925   -1.964547
 H   -1.153377   -3.437642   -1.455292
 H    1.168366   -4.170577   -1.285803
 H    1.817661   -3.967024   -2.903354
 H    3.495718   -3.673082   -1.112721
 H    2.989633   -0.954872   -2.316371
 H    4.925887   -1.605503   -0.562128
 H    5.709586   -2.272198   -1.986474
 H    5.423130    0.073988   -3.065549
 H    4.746734    0.782121   -0.161230
 H    3.641792    0.912543   -1.527964
 H    5.132634    2.619962   -2.580672
 H    6.783946    2.312537   -0.051691
 H    6.559007    4.386933   -1.082327
 H    7.495482    1.664552   -2.948934
 H    8.582601    1.524121   -1.569721
 H    7.594931   -0.712013   -2.171279
 H    7.123678   -0.218850   -0.545812
 H   -3.563116   -2.372285    1.737121
 H   -4.780570   -1.623208    2.783070
 H   -4.278923   -0.822981    1.286694
 H    2.321188    0.906538    0.538805
 H    2.451484    1.199478    2.281404
 H    3.281258    2.269463    1.140234
 H   -3.690120    4.494723   -2.841199
 H   -3.101005    5.512086   -1.519839
 H   -4.846009    5.339593   -1.803471
 H   -6.946581    2.088829    0.784955
 H   -5.941907    0.934343    1.684238
 H   -5.401099    2.610840    1.492105
 H   -3.255683   -3.055053   -4.574222
 H   -4.514590   -3.225146   -3.322145
 H   -4.601331   -1.903613   -4.487342
 H   -0.341146   -4.767627   -3.388636
 H   -2.077525   -4.509971   -3.467015
 H   -0.989379   -3.567961   -4.518044
 H    4.273824   -3.342413   -3.732140
 H    2.801014   -2.471952   -4.210460
 H    4.369755   -1.672504   -4.310365
 H    1.480052    5.883858    2.448456
 H    1.088620    5.313819    0.802514
 H   -0.066804    6.344592    1.685440
 H   -6.739714   -2.849258   -1.187670
 H   -6.661203   -1.891574    0.315133
 H   -5.726197   -3.406687    0.173787
 H    2.880080    4.477853   -0.593046
 H    3.508073    4.294562   -2.254684
 H    2.642244    2.948363   -1.463168
