21 
1pg2_ligand_ani.xyz
 N    0.877242    1.700818   -0.233825
 C    1.286779    0.580177    0.681793
 C    1.917511   -0.507060   -0.177812
 O    2.434579    0.037108   -1.303883
 C    0.163741    0.041118    1.570762
 C   -0.995962   -0.651051    0.853219
 S   -2.032380    0.489849   -0.113175
 C   -3.124648   -0.705631   -0.911817
 O    2.000877   -1.679435    0.083326
 H   -0.102707    1.543710   -0.546237
 H    1.507012    1.678786   -1.053954
 H    0.955043    2.611640    0.242537
 H    2.093236    0.943282    1.323956
 H    2.850713   -0.689253   -1.796771
 H    0.620722   -0.699841    2.234362
 H   -0.216013    0.847126    2.208299
 H   -1.632759   -1.143713    1.594680
 H   -0.600998   -1.418646    0.180952
 H   -3.752482   -1.225722   -0.182640
 H   -3.768813   -0.161986   -1.606479
 H   -2.543731   -1.435389   -1.483540
