77 
1ph0_ligand_dft.xyz
 O    2.149258   -2.019510   -1.780071
 C    2.652899   -2.404827   -0.747632
 O    2.301032   -3.500253   -0.088739
 C    3.839375   -1.701492   -0.091884
 O    4.955172   -2.163336   -0.208695
 N    3.529694   -0.532126    0.548294
 C    2.179133   -0.070181    0.673522
 C    1.247543   -0.776485    1.431295
 C   -0.053965   -0.296565    1.539920
 C   -0.444403    0.896535    0.924044
 C    0.507680    1.586299    0.167304
 C    1.803293    1.106215    0.035005
 C   -1.863950    1.389356    1.122487
 C   -2.408915    2.390689    0.088048
 N   -1.878299    3.730865    0.255832
 C   -1.304708    4.390130   -0.781170
 O   -0.862261    3.880738   -1.797475
 O   -1.227278    5.715630   -0.534415
 C   -3.929988    2.483046    0.275196
 O   -4.408568    3.310573    1.043152
 N   -4.655652    1.594557   -0.434232
 C   -6.077942    1.441802   -0.187118
 C   -6.397371    0.486167    0.971268
 C   -6.463798   -0.995402    0.587480
 C   -5.257200   -1.546773   -0.151826
 O   -4.066750   -1.313831    0.612437
 C   -3.151290   -2.323324    0.567882
 C   -3.276663   -3.331307    1.514487
 C   -2.371996   -4.386760    1.526256
 C   -1.345056   -4.437499    0.600397
 C   -1.194639   -3.415704   -0.337341
 O   -0.173114   -3.580071   -1.209912
 C   -2.096124   -2.325224   -0.372789
 C   -1.942007   -1.193841   -1.326050
 O   -2.802297   -0.402679   -1.653585
 O   -0.694122   -1.118861   -1.808838
 C   -0.386964   -0.056901   -2.725044
 C    4.577616    0.313798    1.024692
 C    4.573457    0.647378    2.376734
 C    5.568158    1.458121    2.908150
 C    6.595641    1.922073    2.092311
 C    6.605277    1.587636    0.745454
 C    5.590395    0.806606    0.188401
 C    5.683087    0.575008   -1.284336
 O    6.713441    0.635075   -1.911451
 O    4.493042    0.364627   -1.877326
 H    1.491783   -3.848994   -0.527144
 H    1.539724   -1.697697    1.926169
 H   -0.777697   -0.860350    2.123900
 H    0.242284    2.491779   -0.362719
 H    2.528292    1.635329   -0.574410
 H   -1.953764    1.855476    2.112690
 H   -2.537385    0.524347    1.132906
 H   -2.171887    2.055379   -0.924012
 H   -2.397675    4.292605    0.921977
 H   -0.771197    6.095514   -1.298784
 H   -4.151547    0.874877   -0.940386
 H   -6.462312    2.437383    0.043030
 H   -6.554889    1.106318   -1.115210
 H   -7.365742    0.764652    1.402755
 H   -5.650521    0.640393    1.756795
 H   -7.333862   -1.164690   -0.061715
 H   -6.625405   -1.592184    1.493080
 H   -5.131880   -1.086407   -1.138714
 H   -5.380959   -2.625522   -0.303787
 H   -4.087410   -3.266355    2.231470
 H   -2.470135   -5.176728    2.264194
 H   -0.634198   -5.256342    0.586112
 H    0.023192   -2.741253   -1.676523
 H   -0.588246    0.911081   -2.264783
 H   -0.977716   -0.168909   -3.636451
 H    0.677062   -0.171093   -2.921009
 H    3.780856    0.257433    3.007418
 H    5.547485    1.711442    3.963551
 H    7.385869    2.542323    2.502649
 H    7.396964    1.934958    0.090410
 H    4.680815    0.195923   -2.814239
