33 
1pmu_ligand_xtb.xyz
 C   -2.536637   -0.516097   -0.055093
 C   -3.815002    0.090084   -0.019544
 C   -4.943806   -0.742889   -0.089929
 C   -4.767109   -2.100942   -0.188627
 N   -3.565808   -2.679957   -0.222734
 C   -2.502847   -1.917767   -0.158695
 C   -1.363086    0.312521    0.018904
 C   -1.524679    1.715978    0.129002
 C   -2.828801    2.288001    0.158779
 C   -3.930288    1.506258    0.086725
 C   -0.051701   -0.177833   -0.016254
 C    1.020922    0.692249    0.063560
 C    0.728855    2.065198    0.182517
 N   -0.480016    2.554138    0.211174
 C    4.074682   -1.406272    0.676137
 C    2.772756   -0.955145    0.697930
 C    2.405979    0.214345    0.031992
 C    3.386617    0.919003   -0.661543
 C    4.691409    0.467965   -0.695131
 C    5.046724   -0.697211   -0.024726
 O    6.317697   -1.175880   -0.025602
 H   -5.932471   -0.309741   -0.064667
 H   -5.607628   -2.779812   -0.243966
 H   -1.562368   -2.451254   -0.191340
 H   -2.892913    3.361823    0.241678
 H   -4.921471    1.935935    0.109385
 H    0.133566   -1.235565   -0.126832
 H    1.530031    2.787442    0.275667
 H    4.363780   -2.305343    1.196601
 H    2.032012   -1.504122    1.260321
 H    3.121917    1.816352   -1.200768
 H    5.441176    1.021136   -1.245818
 H    6.889629   -0.593749   -0.540552
