25 
1pmv_ligand_xtb.xyz
 C   -3.659806   -1.063769   -0.004403
 C   -2.379813   -1.582966   -0.000582
 C   -1.274845   -0.736699    0.002539
 C   -1.458941    0.665744    0.002085
 C   -2.762932    1.160068   -0.000643
 C   -3.851885    0.310920   -0.004103
 C    1.115051   -0.257674    0.001750
 C    2.322813   -0.970735   -0.000210
 C    3.520870   -0.260415   -0.003873
 C    3.430656    1.121596   -0.004402
 C    2.215632    1.818962   -0.002028
 C    1.014955    1.126285    0.000939
 C   -0.356486    1.675284    0.002988
 C    0.081905   -1.219618    0.003728
 O   -0.585116    2.871904    0.004564
 N    0.606792   -2.432518    0.003427
 N    1.942302   -2.282198    0.001270
 H   -4.511229   -1.728533   -0.007831
 H   -2.209257   -2.648596   -0.000516
 H   -2.896287    2.232145   -0.000474
 H   -4.852301    0.717354   -0.006991
 H    4.480110   -0.755294   -0.006573
 H    4.346449    1.694600   -0.006880
 H    2.212487    2.898095   -0.002938
 H    2.524238   -3.103888    0.000107
