25 
1pmv_ligand_ani.xyz
 C   21.944319   31.250448   21.071926
 C   20.875746   30.968543   20.244511
 C   20.506928   29.637145   20.002540
 C   21.240350   28.592512   20.614969
 C   22.316137   28.899158   21.446684
 C   22.668604   30.213370   21.676031
 C   19.111114   27.915543   18.969247
 C   18.015464   27.834988   18.112269
 C   17.519705   26.574413   17.768587
 C   18.168545   25.463728   18.317837
 C   19.271527   25.559827   19.180007
 C   19.761832   26.818866   19.519419
 C   20.910438   27.118450   20.410017
 C   19.391769   29.291673   19.139990
 O   21.557373   26.241957   20.950007
 N   18.535187   30.036582   18.440941
 N   17.716265   29.144923   17.830305
 H   22.228758   32.282619   21.258375
 H   20.305416   31.763136   19.769439
 H   22.860591   28.077107   21.902423
 H   23.508023   30.449265   22.325161
 H   16.668808   26.443318   17.105504
 H   17.794929   24.475447   18.060253
 H   19.746943   24.672144   19.585112
 H   16.975228   29.490836   17.236446
