70 
1pop_ligand_ani.xyz
 C   -2.227635   -0.519209    1.821897
 O   -2.615866    0.648908    1.887322
 C   -2.022218   -1.363715    3.065163
 N   -1.922286   -1.153368    0.665690
 C   -1.928866   -0.554262   -0.661878
 C   -0.737426    0.391554   -0.887875
 O   -0.040272    0.283536   -1.899391
 C   -3.238220    0.157394   -1.050397
 C   -4.470225   -0.728559   -1.317439
 C   -4.223260   -1.762178   -2.418564
 C   -5.048089   -1.386202   -0.061218
 N   -0.530984    1.343024    0.043924
 C    0.493646    2.368613   -0.084622
 C    1.874602    1.784877    0.281090
 O    2.484356    2.159184    1.284760
 C    0.189832    3.576545    0.795661
 C   -0.993550    4.470714    0.379483
 C   -2.364390    3.790356    0.445136
 C   -0.775223    5.108133   -0.995143
 N    2.351068    0.859924   -0.572282
 C    3.620491    0.159979   -0.379959
 C    4.831135    1.108201   -0.482050
 O    5.136399    1.747359    0.724043
 C    3.721862   -0.974033   -1.399966
 C    2.719522   -2.117335   -1.211309
 C    3.041754   -3.001746   -0.000454
 N    2.165665   -4.151411    0.157845
 C    0.854677   -3.999931    0.576677
 N    0.085990   -5.141013    0.372059
 N    0.302861   -2.958377    1.087094
 H   -2.180103   -2.428269    2.863237
 H   -0.991208   -1.239659    3.417957
 H   -2.696899   -1.022285    3.852010
 H   -1.326976   -1.980157    0.766668
 H   -1.746887   -1.370119   -1.367551
 H   -3.486416    0.881147   -0.266866
 H   -3.018498    0.720311   -1.969274
 H   -5.234666   -0.033038   -1.694547
 H   -3.825217   -1.293742   -3.326721
 H   -3.510905   -2.531373   -2.096340
 H   -5.154747   -2.274885   -2.685173
 H   -5.150782   -0.667944    0.760368
 H   -6.042967   -1.793929   -0.274775
 H   -4.424256   -2.214493    0.287839
 H   -1.200418    1.425946    0.803754
 H    0.538406    2.655533   -1.144961
 H    0.043706    3.221633    1.825050
 H    1.092904    4.195278    0.823644
 H   -1.006002    5.283185    1.119901
 H   -2.511064    3.092192   -0.388627
 H   -3.160374    4.540409    0.374508
 H   -2.505575    3.230016    1.376720
 H   -1.562315    5.838841   -1.213154
 H   -0.800206    4.357799   -1.794822
 H    0.190707    5.624075   -1.049113
 H    1.740313    0.564882   -1.333236
 H    3.643181   -0.240286    0.644131
 H    5.715490    0.517206   -0.750785
 H    4.654151    1.822420   -1.304623
 H    4.290484    2.063620    1.095320
 H    4.738181   -1.390665   -1.357365
 H    3.614266   -0.542511   -2.405720
 H    2.735689   -2.744292   -2.111652
 H    1.697060   -1.727021   -1.125743
 H    3.016730   -2.417283    0.927534
 H    4.063086   -3.391419   -0.088013
 H    2.256308   -4.834634   -0.584590
 H    0.559450   -6.003861    0.608089
 H   -0.804820   -5.060814    0.846088
 H    0.957534   -2.190354    1.201263
