70 
1pop_ligand_xtb.xyz
 C   -1.842138    0.804262    2.065667
 O   -1.587747    1.996509    1.917574
 C   -2.089980    0.203164    3.429324
 N   -1.953216   -0.074208    1.060774
 C   -1.863174    0.206201   -0.363360
 C   -0.426615    0.508379   -0.800999
 O    0.087104   -0.091764   -1.743229
 C   -2.792901    1.338730   -0.824524
 C   -4.277542    0.958953   -0.927025
 C   -4.526179   -0.118183   -1.981890
 C   -4.861823    0.535660    0.418197
 N    0.194274    1.441833   -0.085955
 C    1.577387    1.836208   -0.285894
 C    2.478587    0.728756    0.302899
 O    3.074186    0.858958    1.358811
 C    1.856532    3.170503    0.398945
 C    1.367126    4.419850   -0.345563
 C   -0.143419    4.414705   -0.569076
 C    2.102109    4.618176   -1.670428
 N    2.521588   -0.368058   -0.466142
 C    3.142184   -1.629351   -0.083631
 C    4.654953   -1.441647    0.181447
 O    4.935570   -1.122640    1.509910
 C    2.898047   -2.656910   -1.191389
 C    1.429867   -3.036097   -1.399501
 C    0.887314   -3.949539   -0.294819
 N   -0.537777   -4.167498   -0.427288
 C   -1.483638   -3.401734    0.202890
 N   -2.715808   -3.382573   -0.416111
 N   -1.353974   -2.729936    1.281567
 H   -3.159548    0.224696    3.632006
 H   -1.747484   -0.826230    3.471664
 H   -1.586302    0.800263    4.184359
 H   -1.936313   -1.078991    1.291169
 H   -2.139419   -0.719452   -0.875813
 H   -2.684896    2.177634   -0.136828
 H   -2.454397    1.665368   -1.810998
 H   -4.800242    1.867765   -1.249157
 H   -4.084889    0.168623   -2.933543
 H   -4.101614   -1.072261   -1.678706
 H   -5.595198   -0.256807   -2.128092
 H   -4.656641    1.288812    1.175090
 H   -5.940339    0.415417    0.337176
 H   -4.434295   -0.408376    0.745799
 H   -0.320917    1.893548    0.673197
 H    1.772104    1.889206   -1.363614
 H    1.401628    3.139805    1.391271
 H    2.935843    3.248197    0.545005
 H    1.609740    5.271657    0.300533
 H   -0.425820    3.648119   -1.286329
 H   -0.464556    5.377781   -0.960786
 H   -0.671348    4.232356    0.363607
 H    1.841228    5.581856   -2.102047
 H    1.831699    3.847759   -2.388906
 H    3.179229    4.590379   -1.521571
 H    1.897279   -0.388542   -1.269091
 H    2.700079   -1.974196    0.862084
 H    5.182414   -2.377986   -0.019634
 H    5.039970   -0.672595   -0.505983
 H    4.401376   -0.334164    1.734956
 H    3.464812   -3.560115   -0.957462
 H    3.293685   -2.246068   -2.122553
 H    1.340035   -3.558908   -2.355202
 H    0.806740   -2.142105   -1.460870
 H    1.081414   -3.514751    0.686856
 H    1.386243   -4.923777   -0.331916
 H   -0.806225   -4.513039   -1.337934
 H   -2.945839   -4.170621   -1.000075
 H   -3.466476   -3.082392    0.186516
 H   -0.421467   -2.733815    1.675761
