32 
1pot_ligand_dft.xyz
 N    5.093908    0.443587   -0.711287
 C    4.341809    0.189282    0.581497
 C    2.862693    0.590353    0.546959
 C    1.897221   -0.416156   -0.116356
 C    0.443395   -0.072897    0.242346
 N   -0.525575   -1.088628   -0.332938
 C   -1.946405   -1.075103    0.197894
 C   -2.767728    0.145003   -0.243771
 C   -4.215075   -0.043414    0.242083
 N   -5.112022    1.099362   -0.171046
 H    6.086355    0.193281   -0.603012
 H    4.740400   -0.102675   -1.503870
 H    5.071771    1.434683   -0.980969
 H    4.867207    0.776562    1.337058
 H    4.483165   -0.868499    0.815055
 H    2.748851    1.587802    0.104643
 H    2.586269    0.701131    1.601831
 H    2.127721   -1.425919    0.247652
 H    2.018342   -0.421456   -1.207215
 H    0.147828    0.906790   -0.140366
 H    0.293871   -0.090076    1.325328
 H   -0.152165   -2.027081   -0.142982
 H   -0.539422   -1.010550   -1.356982
 H   -1.866215   -1.139259    1.286212
 H   -2.401107   -2.000857   -0.166310
 H   -2.752600    0.230103   -1.337885
 H   -2.348414    1.065875    0.177362
 H   -4.274307   -0.097071    1.331866
 H   -4.667259   -0.946641   -0.174893
 H   -6.072106    0.943428    0.167922
 H   -4.810341    2.003188    0.214090
 H   -5.177485    1.204594   -1.191544
