32 
1pot_ligand_ani.xyz
 N    4.728027    0.558537   -0.891788
 C    4.310908    0.200613    0.509512
 C    2.830274    0.488350    0.782967
 C    1.851281   -0.329371   -0.062482
 C    0.417286   -0.218399    0.435471
 N   -0.460145   -1.108135   -0.361706
 C   -1.870471   -1.162804    0.062251
 C   -2.648277    0.127440   -0.224403
 C   -4.123884   -0.041036    0.141303
 N   -4.930003    1.203933   -0.113837
 H    5.745062    0.443824   -1.008279
 H    4.238622   -0.066553   -1.552744
 H    4.463015    1.540636   -1.084640
 H    4.937529    0.757025    1.204509
 H    4.507148   -0.861488    0.655462
 H    2.628276    1.561115    0.654316
 H    2.654962    0.269531    1.843292
 H    2.152781   -1.387704   -0.043310
 H    1.887399   -0.001601   -1.111546
 H    0.065402    0.813410    0.363218
 H    0.353043   -0.499319    1.491844
 H   -0.037594   -2.062946   -0.327960
 H   -0.434123   -0.770129   -1.356204
 H   -1.910580   -1.372714    1.136909
 H   -2.334900   -2.003108   -0.451224
 H   -2.557201    0.377377   -1.291755
 H   -2.218618    0.960223    0.350049
 H   -4.221016   -0.296951    1.196250
 H   -4.561824   -0.852254   -0.439886
 H   -5.919272    1.051591    0.119841
 H   -4.556414    1.972094    0.467154
 H   -4.849556    1.458846   -1.111705
