32 
1pot_ligand_xtb.xyz
 N    5.405192    0.792166    0.174569
 C    4.298112   -0.090685   -0.289865
 C    2.927729    0.403051    0.184702
 C    1.816900   -0.545960   -0.296412
 C    0.431821   -0.108986    0.195398
 N   -0.613217   -1.096888   -0.213426
 C   -1.969006   -0.946693    0.397881
 C   -2.840584    0.142237   -0.245077
 C   -4.251682    0.079856    0.360581
 N   -5.181418    1.077295   -0.236721
 H    6.313862    0.434252   -0.158051
 H    5.300241    1.752689   -0.183864
 H    5.447635    0.836564    1.203459
 H    4.486251   -1.096756    0.091092
 H    4.327645   -0.126208   -1.380981
 H    2.740697    1.405294   -0.204483
 H    2.911551    0.450106    1.275007
 H    2.034507   -1.548794    0.077395
 H    1.830704   -0.579459   -1.387311
 H    0.175520    0.870204   -0.211875
 H    0.430042   -0.047172    1.285889
 H   -0.262417   -2.029983    0.047551
 H   -0.695538   -1.097038   -1.240268
 H   -1.838520   -0.744754    1.463554
 H   -2.480905   -1.907381    0.298188
 H   -2.900702   -0.026819   -1.323073
 H   -2.408903    1.129028   -0.068830
 H   -4.203599    0.263251    1.436492
 H   -4.679901   -0.913122    0.203533
 H   -6.113147    0.996284    0.201662
 H   -4.859482    2.045655   -0.089929
 H   -5.309172    0.929225   -1.249360
