68 
1ppc_ligand_ani.xyz
 S   -2.699356    1.574875    0.410702
 O   -3.606657    1.904269    1.495920
 O   -2.608573    2.421772   -0.770460
 C   -4.000389   -0.812287    0.511348
 C   -3.016867   -0.086279   -0.102073
 C   -2.228550   -0.636564   -1.139647
 C   -2.439285   -1.929655   -1.536875
 C   -3.696169   -4.065271   -1.318940
 C   -4.679855   -4.804074   -0.716490
 C   -5.469312   -4.237163    0.315010
 C   -5.252910   -2.945377    0.716852
 C   -4.241326   -2.155848    0.110187
 C   -3.450057   -2.722370   -0.924316
 N   -1.137309    1.454847    0.977725
 C   -0.894197    1.086824    2.374045
 C    0.550319    0.608733    2.513627
 O    1.288503    0.921149    3.436851
 C    2.347705   -1.531440    0.110718
 C    2.311786   -0.515779    1.259902
 C    3.165039    0.749453    0.919956
 C    2.400508    1.855332    0.219081
 C    1.823193    1.667384   -1.041551
 C    2.195462    3.083140    0.859792
 C    1.048733    2.661499   -1.627046
 C    1.436340    4.085119    0.270665
 C    0.845309    3.883042   -0.977993
 C    0.040039    4.977361   -1.618875
 O    1.415541   -1.592826   -0.681575
 N    0.928037   -0.207245    1.499972
 N   -1.085236    4.550151   -2.290573
 N    0.366010    6.213994   -1.610639
 N    3.451021   -2.328468   -0.017009
 C    3.422222   -3.395382   -1.017775
 C    4.733361   -3.432726   -1.792746
 C    5.919230   -3.565364   -0.837176
 C    5.894244   -2.435125    0.190719
 C    4.558522   -2.411696    0.930249
 H   -4.597248   -0.367456    1.300888
 H   -1.467073   -0.024515   -1.619707
 H   -1.836140   -2.370105   -2.326807
 H   -3.086973   -4.494691   -2.111571
 H   -4.862458   -5.830166   -1.025481
 H   -6.246505   -4.835524    0.783137
 H   -5.853766   -2.501294    1.508661
 H   -0.580471    2.236634    0.633097
 H   -1.066424    1.920981    3.059099
 H   -1.580208    0.278310    2.645154
 H    2.710999   -0.963067    2.174596
 H    3.546069    1.139948    1.867034
 H    4.033059    0.445849    0.319331
 H    1.942260    0.715857   -1.553356
 H    2.624782    3.248096    1.845963
 H    0.592010    2.498786   -2.601231
 H    1.276496    5.026007    0.796070
 H    0.324503   -0.289887    0.689230
 H   -1.603643    3.770793   -1.895856
 H   -1.662024    5.323443   -2.595566
 H    1.239524    6.343733   -1.100859
 H    3.254451   -4.362659   -0.516941
 H    2.566989   -3.204864   -1.667179
 H    4.829580   -2.503475   -2.368983
 H    4.714575   -4.258926   -2.513791
 H    6.863463   -3.559691   -1.393571
 H    5.863858   -4.534086   -0.318311
 H    6.709665   -2.543701    0.915561
 H    6.042246   -1.472714   -0.317377
 H    4.528845   -1.568971    1.621626
 H    4.462514   -3.331440    1.529814
