48 
1pwp_ligand_ani.xyz
 C   -2.811585    0.089047    0.005577
 C   -4.175602   -0.293313   -0.009906
 C   -4.590900   -1.667287   -0.062348
 N   -3.635750   -2.665109   -0.114288
 C   -5.939675   -1.939557   -0.010893
 C   -6.874215   -0.877058    0.050709
 C   -8.346553   -1.196356    0.097185
 N   -6.529995    0.390919    0.062387
 C   -5.197830    0.680195    0.029254
 C   -4.817491    2.047305    0.036330
 C   -3.501148    2.408643    0.019918
 C   -2.477281    1.423274    0.006332
 N   -1.148545    1.889158   -0.003669
 C    0.001143    1.122328   -0.058030
 O    0.000683   -0.095088   -0.111481
 N    1.150878    1.891377   -0.046468
 C    2.479865    1.426320   -0.033465
 C    2.813389    0.092079   -0.040847
 C    4.175952   -0.291825    0.005845
 C    4.587202   -1.667172    0.048815
 N    3.628902   -2.663443    0.057167
 C    5.936296   -1.941216    0.032298
 C    6.873755   -0.879655    0.014156
 C    8.345970   -1.202820    0.006887
 N    6.532179    0.389135    0.010093
 C    5.199923    0.680559    0.008241
 C    4.820687    2.048160    0.006770
 C    3.504450    2.410748   -0.007727
 H   -2.024182   -0.652060    0.045530
 H   -2.782075   -2.425546   -0.598412
 H   -3.976231   -3.584618   -0.362648
 H   -6.296303   -2.968308   -0.025280
 H   -8.653272   -1.739327   -0.803971
 H   -8.578996   -1.832891    0.958254
 H   -8.924001   -0.272877    0.169369
 H   -5.612885    2.784590    0.057074
 H   -3.231047    3.462454    0.020895
 H   -1.055164    2.892364    0.031230
 H    1.056863    2.894502   -0.010269
 H    2.026948   -0.647597   -0.110524
 H    2.764497   -2.431242    0.525659
 H    3.961546   -3.588211    0.296359
 H    6.290875   -2.970718    0.041246
 H    8.627564   -1.744382    0.917126
 H    8.598345   -1.842652   -0.846030
 H    8.928191   -0.281456   -0.052343
 H    5.616589    2.785162    0.016686
 H    3.235467    3.464870   -0.005263
