27 
1pwy_ligand_ani.xyz
 C    4.102988   -0.192027   -0.698271
 O    3.900324    0.911401    0.176464
 C    2.759589   -0.729381   -1.147468
 O    2.103252   -1.539813   -0.182044
 C    1.658181   -0.889001    0.969599
 N    0.659077    0.129325    0.714422
 C    0.842832    1.492629    0.619300
 N   -0.230976    2.137212    0.256976
 C   -1.179993    1.154644    0.095086
 C   -2.567290    1.238277   -0.309378
 O   -3.232111    2.200515   -0.626937
 N   -3.146757   -0.059249   -0.302979
 C   -2.501347   -1.232678    0.015522
 N   -3.243809   -2.377248   -0.092274
 N   -1.246469   -1.306920    0.357179
 C   -0.646903   -0.093512    0.376525
 H    4.662118   -0.999631   -0.203914
 H    4.664557    0.130591   -1.587653
 H    4.750348    1.138317    0.570674
 H    2.904446   -1.393968   -2.003564
 H    2.115175    0.103203   -1.461311
 H    2.476498   -0.387355    1.489522
 H    1.211115   -1.660075    1.601848
 H    1.824067    1.909958    0.809509
 H   -4.103642   -0.072097   -0.638123
 H   -2.790322   -3.183827    0.314707
 H   -4.231894   -2.317487    0.109692
