41 
1pye_ligand_ani.xyz
 C    0.165829   -2.179537    0.219658
 C   -0.502257   -0.991126    0.241602
 N   -1.845164   -0.957885    0.010188
 C   -2.606271   -2.115219   -0.107951
 C   -1.929800   -3.363603   -0.084408
 C   -0.575230   -3.388907    0.061462
 C   -2.739353    0.116951   -0.067312
 C   -4.003647   -0.507129   -0.180220
 N   -3.907572   -1.850809   -0.222102
 C   -2.543665    1.555234    0.018983
 C   -1.230459    2.218885   -0.273096
 C   -0.310194    1.730160   -1.201908
 C    0.922850    2.353137   -1.358043
 C    1.225175    3.501203   -0.629465
 C    0.282573    4.027351    0.250767
 C   -0.942930    3.398667    0.419249
 C    1.656282   -2.254607    0.279155
 C    2.464992   -0.979706    0.289550
 C    3.451594   -0.789492   -0.683101
 C    4.238099    0.346457   -0.764032
 C    4.077305    1.342981    0.190884
 C    3.153885    1.184339    1.217521
 C    2.375188    0.039694    1.241847
 O    2.211843   -3.335607    0.271470
 O   -3.492013    2.265861    0.356293
 N   -5.191435    0.145479   -0.282159
 F    3.626985   -1.746189   -1.604684
 F    1.498018   -0.082836    2.261888
 H   -0.035369   -0.045016    0.447242
 H   -2.521409   -4.263602   -0.192632
 H   -0.036171   -4.331879    0.059863
 H   -0.536435    0.846351   -1.791766
 H    1.652043    1.930637   -2.042901
 H    2.192080    3.987764   -0.748909
 H    0.501657    4.935609    0.807467
 H   -1.692582    3.804151    1.093101
 H    4.959430    0.426899   -1.570904
 H    4.667176    2.253181    0.132217
 H    3.010605    1.930003    1.991744
 H   -5.186481    1.114119    0.009894
 H   -6.028799   -0.400931   -0.159679
