41 
1pye_ligand_xtb.xyz
 C    0.025115   -2.140690   -0.084703
 C   -0.536577   -0.883662   -0.017308
 N   -1.866003   -0.738099   -0.044480
 C   -2.723929   -1.845441   -0.087759
 C   -2.173145   -3.130549   -0.167735
 C   -0.814855   -3.275790   -0.176780
 C   -2.676035    0.378539    0.026323
 C   -3.998484   -0.140250    0.048108
 N   -3.993853   -1.484104   -0.040230
 C   -2.353472    1.770612    0.045591
 C   -0.941635    2.178192   -0.233606
 C   -0.368561    1.895998   -1.470999
 C    0.921734    2.309546   -1.748192
 C    1.648540    3.001742   -0.793232
 C    1.079350    3.290513    0.435512
 C   -0.216415    2.891140    0.712842
 C    1.486282   -2.324826   -0.084045
 C    2.299018   -1.090738    0.208250
 C    3.204739   -0.580288   -0.715695
 C    4.009772    0.510124   -0.437965
 C    3.925254    1.111731    0.804831
 C    3.034563    0.638371    1.752764
 C    2.238743   -0.447384    1.440488
 O    2.022249   -3.386761   -0.295058
 O   -3.222135    2.617603    0.249394
 N   -5.104319    0.596384    0.134631
 F    3.273017   -1.138604   -1.932800
 F    1.372733   -0.902526    2.365825
 H    0.058435    0.012652    0.047727
 H   -2.846050   -3.969767   -0.215519
 H   -0.349354   -4.246565   -0.240182
 H   -0.939495    1.358258   -2.215139
 H    1.359401    2.092069   -2.710987
 H    2.655045    3.325069   -1.012230
 H    1.642285    3.837961    1.176661
 H   -0.673298    3.123823    1.663024
 H    4.691611    0.866460   -1.193016
 H    4.555129    1.955637    1.036937
 H    2.949378    1.092936    2.726339
 H   -4.981013    1.597626    0.206985
 H   -6.005524    0.156674    0.107911
