79 
1pyn_ligand_xtb.xyz
 C   -0.665610   -2.373459   -0.925726
 C   -1.515749   -2.516009    0.162291
 C   -0.964893   -2.653223    1.436847
 C    0.400241   -2.631639    1.616356
 C    1.261705   -2.479869    0.535056
 C    0.707349   -2.362198   -0.729942
 C    3.334301   -1.081209    0.290169
 N    4.766676   -1.046628    0.508921
 C    5.590940   -0.261703   -0.219580
 C    2.633221    0.096290    0.999827
 N    2.894538    1.280297    0.425720
 C    2.168625    2.479998    0.773065
 C    1.450700    3.087457   -0.440601
 C   -0.133056    1.081296   -0.700372
 C    0.826819    2.052373   -1.380696
 O   -1.307472    1.777202   -0.313998
 O    5.196903    0.482397   -1.095829
 O    6.857001   -0.439704    0.170042
 C   -3.585239   -2.369968   -1.071865
 O    1.898877   -0.047056    1.958013
 C    2.752253   -2.421961    0.745460
 C   -3.838360   -0.856760   -1.279696
 C   -4.925436   -3.090499   -0.958614
 O   -5.322048   -3.699414   -0.012585
 O   -5.610096   -2.958390   -2.099485
 C   -2.051627    1.355211    0.734896
 C   -1.564878    0.624675    1.808928
 C   -2.403721    0.315501    2.867177
 C   -3.711989    0.741167    2.889519
 C   -4.226254    1.490140    1.832924
 C   -3.403502    1.788743    0.729258
 C   -3.927511    2.426454   -0.483714
 O   -3.515398    2.248241   -1.615744
 O   -4.975934    3.244253   -0.262809
 C   -5.576371    3.814880   -1.417562
 O   -5.510172    1.863602    1.932290
 O   -4.821328   -0.293621   -0.878437
 O   -2.833193   -0.279264   -1.893632
 O   -2.880919   -2.557884    0.128841
 C    7.938163    0.287301   -0.468324
 C    8.011917   -0.072331   -1.951528
 C    9.189086   -0.196960    0.264771
 C    7.750822    1.791491   -0.274628
 H   -1.046530   -2.254425   -1.927954
 H   -1.640325   -2.768798    2.268513
 H    0.805418   -2.717684    2.612514
 H    1.350721   -2.255691   -1.591803
 H    3.176632   -0.945376   -0.786985
 H    5.152884   -1.560059    1.284513
 H    3.558633    1.318773   -0.339601
 H    2.852517    3.222146    1.199072
 H    1.451174    2.195471    1.546104
 H    2.161114    3.679930   -1.020935
 H    0.673012    3.758128   -0.074199
 H    0.344089    0.595804    0.147590
 H   -0.424218    0.301242   -1.415217
 H    0.279664    2.580762   -2.162643
 H    1.613205    1.463786   -1.855515
 H   -3.051614   -2.768849   -1.944148
 H    3.244916   -3.222315    0.187125
 H    2.964696   -2.551337    1.807885
 H   -6.485850   -3.369427   -2.014579
 H   -0.541195    0.291251    1.851002
 H   -2.012143   -0.259434    3.691899
 H   -4.370616    0.508112    3.709697
 H   -6.369690    4.463858   -1.055732
 H   -5.981139    3.027674   -2.056618
 H   -4.838985    4.386693   -1.983273
 H   -5.776108    2.364659    1.145917
 H   -2.955709    0.721542   -1.914418
 H    8.878960    0.403742   -2.400281
 H    7.117031    0.266668   -2.465953
 H    8.099643   -1.150160   -2.070521
 H    9.118655    0.043282    1.322242
 H    9.287367   -1.274235    0.161258
 H   10.070737    0.281628   -0.150337
 H    7.645649    2.022055    0.783470
 H    8.615120    2.319884   -0.666502
 H    6.862334    2.130986   -0.799575
