46 
1q1m_ligand_xtb.xyz
 C   -3.919851    2.441523    0.709902
 C   -3.308837    1.305669    0.173175
 C   -1.945233    1.367240   -0.107552
 C   -1.198786    2.517413    0.132289
 C   -1.852662    3.632167    0.665744
 C   -3.202262    3.596170    0.955770
 C   -4.047460    0.086896   -0.097736
 O   -3.365310   -0.976435   -0.573757
 N   -4.205687   -2.001643   -0.767737
 C   -5.409851   -1.598395   -0.420230
 C   -5.374304   -0.257562    0.022403
 C   -6.572024   -2.519651   -0.526358
 O   -7.688365   -2.207691   -0.224974
 O   -6.258327   -3.732637   -0.991335
 C    0.227297    2.605373   -0.151549
 C    4.455734    0.468001   -0.487659
 C    5.247812    1.365556   -1.190245
 C    6.604890    1.127238   -1.349908
 C    7.194011    0.005270   -0.817993
 C    6.426276   -0.915677   -0.102241
 C    5.040049   -0.694166    0.072002
 C    4.270969   -1.685881    0.830847
 O    4.770483   -2.691950    1.321856
 O    2.971804   -1.429350    0.962012
 C    2.221693   -2.380131    1.700299
 O    7.051638   -1.983043    0.392400
 O    3.129811    0.633470   -0.298603
 C    2.474461    1.762887   -0.840482
 C    1.017287    1.609713   -0.543602
 F   -5.233208    2.429631    0.998472
 H   -1.476631    0.492882   -0.528129
 H   -1.293837    4.535637    0.857938
 H   -3.711211    4.452039    1.369907
 H   -6.200108    0.326993    0.363813
 H   -5.308304   -3.798526   -1.181099
 H    0.654498    3.591934   -0.019579
 H    4.820541    2.256991   -1.618914
 H    7.202495    1.837418   -1.901164
 H    8.246541   -0.193222   -0.934086
 H    2.237287   -3.350935    1.199732
 H    2.636570   -2.499167    2.703647
 H    1.208216   -1.990646    1.749207
 H    6.389077   -2.539757    0.870603
 H    2.618790    1.794368   -1.932995
 H    2.869663    2.691658   -0.407486
 H    0.655970    0.600322   -0.665541
