46 
1q1m_ligand_ani.xyz
 C   -4.016510    2.428683    0.643444
 C   -3.406459    1.255774    0.206471
 C   -2.023401    1.275560    0.008931
 C   -1.273842    2.431959    0.228998
 C   -1.934038    3.587286    0.666840
 C   -3.305056    3.594206    0.879105
 C   -4.185630    0.044637   -0.056024
 O   -3.488408   -1.073262   -0.359372
 N   -4.355084   -2.099188   -0.594159
 C   -5.554014   -1.604163   -0.437954
 C   -5.522128   -0.232103   -0.089190
 C   -6.742374   -2.493597   -0.638509
 O   -7.869699   -2.094007   -0.518848
 O   -6.446348   -3.756993   -0.959690
 C    0.183926    2.516915    0.010452
 C    4.476749    0.508465   -0.484444
 C    5.181109    1.513951   -1.143285
 C    6.539548    1.343761   -1.408762
 C    7.200289    0.188958   -1.052059
 C    6.501618   -0.829996   -0.387191
 C    5.140841   -0.662246   -0.027545
 C    4.512716   -1.720032    0.804744
 O    4.994508   -2.845089    0.918934
 O    3.409265   -1.380763    1.464540
 C    2.842295   -2.393180    2.301569
 O    7.189494   -1.937687   -0.103257
 O    3.147570    0.586522   -0.269095
 C    2.450107    1.734885   -0.722037
 C    1.001198    1.540492   -0.388061
 F   -5.346793    2.444317    0.850509
 H   -1.551440    0.357691   -0.330642
 H   -1.364109    4.495805    0.843162
 H   -3.831337    4.480632    1.218205
 H   -6.359113    0.421907    0.092692
 H   -5.480671   -3.867558   -1.006063
 H    0.587303    3.512650    0.200432
 H    4.692487    2.427644   -1.460506
 H    7.079948    2.135450   -1.922269
 H    8.250344    0.030997   -1.272499
 H    2.541354   -3.259925    1.707271
 H    3.557164   -2.715790    3.063815
 H    1.972847   -1.927717    2.765806
 H    6.563242   -2.577749    0.303802
 H    2.583605    1.839730   -1.809866
 H    2.842382    2.643102   -0.237530
 H    0.629986    0.527537   -0.529930
