61 
1q1y_ligand_dft.xyz
 C   -3.860384    1.532479   -0.199757
 C   -5.057693    0.616750   -0.062931
 O   -5.874984    0.422358   -0.958843
 N   -5.195022    0.014464    1.147884
 O   -6.153941   -0.993689    1.201250
 C   -2.699429    0.847190   -0.931817
 C   -2.065894   -0.238417   -0.059858
 O   -2.319572   -0.368391    1.134010
 C   -1.583830    1.850922   -1.321621
 C   -0.749611    2.355829   -0.139480
 C    0.532510    3.067077   -0.570135
 C    1.425433    3.419275    0.620553
 C    2.726082    4.109863    0.216037
 N   -1.113730   -0.990473   -0.681545
 C    0.016149   -1.494021    0.080634
 C    0.266980   -3.004508   -0.128042
 C   -0.906254   -3.800557    0.444270
 C    0.524469   -3.355449   -1.594588
 C    1.224767   -0.659146   -0.349384
 O    1.308712   -0.222705   -1.496783
 N    2.190599   -0.423933    0.564924
 C    3.392303    0.274696    0.151070
 C    2.230214   -0.860752    1.962691
 C    3.690478   -0.619746    2.359228
 C    4.106946    0.566055    1.481789
 C    4.235752   -0.622095   -0.747234
 O    5.120749    0.099696   -1.452641
 O    4.167635   -1.825220   -0.795511
 H   -3.529114    1.880493    0.782313
 H   -4.188301    2.396219   -0.784600
 H   -4.337360   -0.257522    1.622140
 H   -6.549134   -0.930160    0.306837
 H   -3.088643    0.390482   -1.850505
 H   -0.907244    1.377309   -2.042535
 H   -2.045042    2.696429   -1.845914
 H   -1.352257    3.019519    0.494423
 H   -0.466054    1.510447    0.501859
 H    1.086191    2.409864   -1.254090
 H    0.289464    3.978920   -1.133219
 H    1.652038    2.494517    1.171576
 H    0.870720    4.060071    1.318427
 H    3.348062    4.337087    1.088539
 H    3.316437    3.483133   -0.463233
 H    2.524005    5.052994   -0.303785
 H   -0.839404   -0.696565   -1.612328
 H   -0.217640   -1.319165    1.134219
 H    1.174410   -3.254601    0.439294
 H   -1.059519   -3.584925    1.507162
 H   -0.732101   -4.875723    0.333503
 H   -1.832222   -3.549284   -0.083733
 H    1.390580   -2.821741   -1.994820
 H    0.709541   -4.429652   -1.694671
 H   -0.348947   -3.111782   -2.210569
 H    3.144827    1.182894   -0.402335
 H    1.543195   -0.256069    2.567989
 H    1.947070   -1.911307    2.062043
 H    4.288503   -1.500630    2.105842
 H    3.802480   -0.422747    3.427594
 H    5.187914    0.665485    1.361775
 H    3.723532    1.506736    1.891163
 H    5.638369   -0.530191   -1.979604
