61 
1q1y_ligand_ani.xyz
 C   -3.865164    1.148263    0.069963
 C   -4.871028    0.043512    0.292841
 O   -5.691088   -0.320448   -0.543031
 N   -4.814617   -0.543333    1.524188
 O   -5.622429   -1.662482    1.677090
 C   -2.717157    0.673122   -0.829907
 C   -1.861187   -0.360366   -0.096812
 O   -1.901720   -0.519438    1.117854
 C   -1.819664    1.830609   -1.304758
 C   -1.210953    2.647584   -0.164999
 C   -0.093289    3.571597   -0.641801
 C    0.469770    4.455320    0.468356
 C    1.601785    5.361602   -0.010992
 N   -1.020069   -1.098052   -0.889607
 C    0.169435   -1.677424   -0.294911
 C    0.719302   -2.840420   -1.153540
 C   -0.212325   -4.047882   -1.073133
 C    0.966884   -2.429770   -2.607800
 C    1.245162   -0.585767   -0.130339
 O    1.279938    0.387787   -0.877760
 N    2.179057   -0.748510    0.845860
 C    3.329463    0.139593    0.866102
 C    2.289177   -1.847152    1.807761
 C    3.754370   -1.786426    2.246204
 C    4.104852   -0.300650    2.119687
 C    4.169809   -0.056615   -0.388323
 O    4.923822    1.025384   -0.647377
 O    4.211907   -1.065682   -1.049444
 H   -3.479220    1.494934    1.032453
 H   -4.394399    1.970889   -0.420643
 H   -3.878862   -0.707195    1.894261
 H   -6.050105   -1.721358    0.796487
 H   -3.154069    0.188974   -1.713922
 H   -1.014830    1.419907   -1.926407
 H   -2.405029    2.492072   -1.957172
 H   -1.998808    3.240769    0.322104
 H   -0.813893    1.972268    0.606461
 H    0.714601    2.958580   -1.064457
 H   -0.462910    4.209269   -1.459339
 H    0.829878    3.815906    1.286922
 H   -0.339222    5.068892    0.888852
 H    1.982024    5.991926    0.799510
 H    2.440347    4.770604   -0.398647
 H    1.261377    6.021402   -0.817904
 H   -0.859664   -0.705891   -1.808797
 H   -0.122100   -2.062673    0.686737
 H    1.696946   -3.114952   -0.728681
 H   -0.324383   -4.400846   -0.041531
 H    0.179155   -4.877222   -1.671601
 H   -1.206389   -3.789817   -1.453522
 H    1.558378   -1.510830   -2.674219
 H    1.509687   -3.223496   -3.132361
 H    0.025695   -2.270389   -3.147051
 H    3.021611    1.187822    0.905099
 H    1.600831   -1.690612    2.649401
 H    2.038616   -2.805426    1.341926
 H    4.366993   -2.377166    1.558545
 H    3.902096   -2.174343    3.256934
 H    5.177916   -0.107255    2.028255
 H    3.735325    0.257361    2.986562
 H    5.432929    0.813823   -1.447608
