21 
1q4w_ligand_xtb.xyz
 C   -2.581217   -0.030743    0.000100
 N   -3.886782    0.375861    0.001405
 C   -2.262695   -1.400019   -0.000117
 C   -0.958953   -1.828013   -0.000589
 C    0.095202   -0.906617   -0.000706
 N    1.386448   -1.368486   -0.000679
 C    2.336184   -0.499665    0.000033
 N    3.627430   -0.916229    0.001867
 N    2.124678    0.858054    0.000126
 C    0.862185    1.441342   -0.000341
 O    0.755625    2.651883   -0.000364
 C   -0.218943    0.466560   -0.000613
 C   -1.545047    0.891790   -0.000390
 H   -4.629306   -0.295928    0.000603
 H   -4.108717    1.352402    0.000552
 H   -3.068136   -2.121299    0.000205
 H   -0.719712   -2.879581   -0.000676
 H    3.799553   -1.903248   -0.000756
 H    4.393602   -0.270910   -0.000820
 H    2.909266    1.498298    0.000899
 H   -1.744257    1.952989   -0.000389
