52 
1q4x_ligand_ani.xyz
 C    5.197421    1.335880   -1.291458
 C    5.455314    2.690477   -1.103259
 C    5.709530    3.177106    0.174408
 C    5.700906    2.303235    1.257648
 C    5.439332    0.951121    1.065819
 C    5.186802    0.451164   -0.213168
 C    4.862104   -1.019522   -0.411968
 C    3.439580   -1.350811   -0.010395
 C    2.394113   -1.232812   -0.919492
 C    3.125745   -1.708394    1.304023
 O    4.164312   -1.848892    2.185529
 C    1.803081   -1.922885    1.680760
 C    0.780039   -1.785579    0.750419
 C    1.057860   -1.439049   -0.571386
 C   -0.029364   -1.280138   -1.627557
 C   -1.335956   -0.717775   -1.105221
 C   -2.431677   -1.554120   -0.852258
 C   -2.316072   -3.050957   -1.023191
 C   -3.644598   -1.009449   -0.421803
 C   -1.429536    0.655518   -0.809990
 C   -0.235998    1.568053   -0.957601
 C   -2.640096    1.183742   -0.376736
 C   -3.748741    0.356917   -0.199547
 O   -4.901157    0.976401    0.214914
 C   -6.066460    0.187378    0.346129
 C   -7.241429    1.076458    0.742643
 O   -6.958909    2.374963    0.883536
 O   -8.340094    0.620715    0.911159
 H    5.008904    0.964071   -2.297565
 H    5.460881    3.365082   -1.956478
 H    5.914781    4.234004    0.326664
 H    5.900732    2.677711    2.258749
 H    5.433813    0.272914    1.913656
 H    5.559186   -1.637293    0.163935
 H    5.008317   -1.279672   -1.467171
 H    2.625312   -0.966841   -1.949405
 H    3.810914   -2.094673    3.049343
 H    1.570867   -2.196920    2.709530
 H   -0.250799   -1.939355    1.066894
 H   -0.201376   -2.243202   -2.125284
 H    0.361959   -0.616041   -2.409066
 H   -2.181376   -3.329356   -2.075601
 H   -1.452494   -3.444652   -0.472101
 H   -3.212993   -3.556682   -0.656127
 H   -4.488743   -1.671802   -0.257076
 H    0.614181    1.213250   -0.364432
 H    0.098438    1.628777   -1.999707
 H   -0.482201    2.580042   -0.627825
 H   -2.730473    2.247500   -0.171808
 H   -5.941412   -0.578247    1.119830
 H   -6.318668   -0.307255   -0.598360
 H   -6.012368    2.499804    0.697398
