39 
1q66_ligand_ani.xyz
 C   -3.068016   -3.343469   -0.378141
 N   -3.030707   -3.954832    1.006369
 C   -2.492816   -1.937971   -0.382979
 C   -1.113125   -1.736918   -0.583463
 C   -0.545676   -0.479501   -0.541404
 C   -1.366482    0.643553   -0.301129
 N   -0.762815    1.895765   -0.259983
 C   -1.524771    2.905319   -0.022858
 N   -1.010087    4.184577    0.001731
 N   -2.885748    2.820879    0.170027
 C   -3.602192    1.623130    0.115208
 O   -4.809368    1.614482    0.251526
 C   -2.746134    0.451736   -0.116166
 C   -3.296982   -0.830534   -0.161280
 C    0.925355   -0.278870   -0.763623
 S    1.894552   -1.302513    0.411832
 C    3.502698   -0.559995    0.219025
 C    4.205451   -0.657739   -0.984431
 C    5.469413   -0.088965   -1.101588
 C    6.041065    0.580035   -0.022827
 C    5.342029    0.678074    1.177078
 C    4.077904    0.110542    1.301178
 H   -4.103814   -3.331098   -0.714408
 H   -2.495701   -3.985947   -1.045512
 H   -3.392020   -4.916489    0.995596
 H   -2.055864   -3.952516    1.343603
 H   -3.600609   -3.376581    1.642581
 H   -0.476209   -2.597484   -0.781361
 H    0.001503    4.174406    0.022448
 H   -1.410440    4.808976    0.688553
 H   -3.452796    3.658116    0.248545
 H   -4.371610   -0.926267   -0.019077
 H    1.165888    0.777464   -0.615420
 H    1.222108   -0.564780   -1.783242
 H    3.763100   -1.182706   -1.828629
 H    6.009172   -0.168447   -2.041290
 H    7.028563    1.024367   -0.116570
 H    5.781802    1.198748    2.023901
 H    3.528222    0.189301    2.236156
