40 
1q6k_ligand_dft.xyz
 N    0.154878    0.843985    0.167479
 C   -0.944477    1.199951   -0.695359
 C   -1.303577    2.653087   -0.471090
 O   -0.789369    3.356424    0.365683
 C   -2.781315    0.427677    0.909144
 C   -4.031489   -0.441714    1.072370
 C   -3.748353   -1.900346    0.704712
 C   -3.172087   -2.009092   -0.709634
 C   -1.920946   -1.141355   -0.869767
 C   -2.205342    0.321868   -0.509348
 C    1.227293    0.158278   -0.331713
 O    1.236956   -0.396072   -1.415421
 O    2.228660    0.183197    0.562612
 C    4.303816   -0.204697    1.549182
 C    3.492987   -0.486646    0.286980
 C    3.271284   -1.988543    0.114876
 C    4.164904    0.140663   -0.933677
 H    0.334992    1.476609    0.936488
 H   -0.616598    1.092311   -1.738836
 H   -2.114219    3.037881   -1.123200
 H   -3.017966    1.471151    1.154768
 H   -2.012564    0.101957    1.622974
 H   -4.827812   -0.054090    0.420974
 H   -4.404152   -0.371007    2.100574
 H   -3.026892   -2.318457    1.420827
 H   -4.663611   -2.497215    0.790778
 H   -2.934033   -3.052815   -0.944113
 H   -3.933039   -1.688431   -1.435558
 H   -1.527933   -1.207925   -1.889918
 H   -1.129179   -1.517405   -0.209050
 H   -2.960434    0.703339   -1.216262
 H    5.294812   -0.661480    1.464983
 H    4.427673    0.872533    1.695250
 H    3.802872   -0.619544    2.429050
 H    2.691619   -2.199108   -0.784723
 H    2.743484   -2.394789    0.983881
 H    4.240621   -2.492031    0.037138
 H    5.165547   -0.286469   -1.058251
 H    3.587250   -0.047575   -1.839824
 H    4.269246    1.221505   -0.793350
