40 
1q6k_ligand_ani.xyz
 N    0.095790    0.235498    0.109548
 C   -0.877583    0.906085   -0.722766
 C   -0.811089    2.410134   -0.504608
 O   -0.352168    2.898252    0.500473
 C   -2.730037    0.464731    0.992697
 C   -4.158235   -0.046231    1.193535
 C   -4.298403   -1.484518    0.690806
 C   -3.870503   -1.598516   -0.774177
 C   -2.452869   -1.060503   -0.986423
 C   -2.310536    0.382107   -0.483037
 C    1.355961    0.033773   -0.408394
 O    1.645237    0.105103   -1.584939
 O    2.198127   -0.268364    0.599335
 C    4.186969   -0.830740    1.695969
 C    3.602514   -0.535897    0.318545
 C    3.736072   -1.755736   -0.587497
 C    4.263474    0.698784   -0.287496
 H    0.137017    0.565405    1.065869
 H   -0.595484    0.708150   -1.763346
 H   -1.218727    3.054401   -1.312715
 H   -2.627343    1.490902    1.367853
 H   -2.048167   -0.159270    1.589866
 H   -4.855043    0.603130    0.644135
 H   -4.436663    0.020166    2.251963
 H   -3.661054   -2.139862    1.302620
 H   -5.327743   -1.840831    0.820108
 H   -3.934726   -2.639094   -1.114151
 H   -4.568833   -1.022327   -1.399279
 H   -2.187737   -1.117056   -2.050751
 H   -1.727427   -1.686628   -0.447977
 H   -2.989569    1.020384   -1.070777
 H    5.256359   -1.051390    1.618426
 H    4.058648    0.030762    2.358998
 H    3.687162   -1.694316    2.146172
 H    3.341094   -1.546116   -1.583751
 H    3.191158   -2.604093   -0.160803
 H    4.793068   -2.029316   -0.674427
 H    5.343091    0.531382   -0.364859
 H    3.864391    0.904770   -1.283112
 H    4.091999    1.571594    0.351209
