38 
1q8w_ligand_ani.xyz
 O   -0.758472   -1.305555    0.372959
 S   -0.582494   -0.243038   -0.632283
 O   -0.654834   -0.603149   -2.041799
 N   -1.734226    0.942505   -0.329788
 C   -1.901949    1.306155    1.085859
 C   -2.993425    0.539483    1.861460
 N   -3.178641   -0.871122    1.415363
 C   -4.192303   -0.978371    0.322852
 C   -3.676058   -0.555717   -1.054200
 C   -2.969523    0.803138   -1.126619
 C    0.964163    0.572913   -0.312026
 C    1.038047    1.949418   -0.354987
 C    2.250301    2.613161   -0.078302
 C    3.381635    1.899530    0.210408
 C    3.345590    0.480639    0.208023
 C    2.141345   -0.206649   -0.073561
 C    2.208647   -1.620709   -0.110921
 C    4.515274   -0.290028    0.466989
 N    4.559166   -1.597010    0.441730
 C    3.403345   -2.243644    0.147115
 H   -2.136534    2.375968    1.116440
 H   -0.925205    1.181845    1.567152
 H   -3.946426    1.061845    1.736446
 H   -2.755503    0.553514    2.926715
 H   -3.489622   -1.435737    2.220098
 H   -2.261771   -1.256371    1.096041
 H   -5.049029   -0.346855    0.589081
 H   -4.552139   -2.008585    0.277897
 H   -4.535279   -0.526126   -1.735948
 H   -2.996563   -1.320268   -1.450144
 H   -2.699569    1.008250   -2.166508
 H   -3.630308    1.610667   -0.790387
 H    0.151941    2.532364   -0.591160
 H    2.275866    3.698540   -0.093573
 H    4.322641    2.396506    0.431194
 H    1.327795   -2.208961   -0.334301
 H    5.444583    0.233396    0.697537
 H    3.466856   -3.328272    0.127003
