38 
1q8w_ligand_dft.xyz
 O   -0.730408   -1.409478    0.191848
 S   -0.568696   -0.198225   -0.644694
 O   -0.742381   -0.324036   -2.078495
 N   -1.726282    0.894749   -0.109969
 C   -1.860002    1.031709    1.331796
 C   -2.972493    0.177401    1.979281
 N   -3.268533   -1.071027    1.198933
 C   -4.293446   -0.890552    0.102020
 C   -3.732450   -0.231860   -1.152767
 C   -2.920915    1.056033   -0.951536
 C    0.976720    0.569268   -0.231147
 C    1.019924    1.945905   -0.195517
 C    2.230019    2.618407    0.059725
 C    3.377396    1.893794    0.255713
 C    3.360970    0.480924    0.193907
 C    2.153944   -0.225571   -0.061014
 C    2.242670   -1.638259   -0.136114
 C    4.553688   -0.273701    0.373073
 N    4.617316   -1.577836    0.307054
 C    3.461480   -2.239788    0.046724
 H   -2.061629    2.081275    1.568533
 H   -0.898473    0.787328    1.787304
 H   -3.911462    0.729037    2.054949
 H   -2.673725   -0.120949    2.986008
 H   -3.613777   -1.784473    1.844388
 H   -2.366035   -1.432668    0.802004
 H   -5.110448   -0.313574    0.543410
 H   -4.669807   -1.887236   -0.137829
 H   -4.589188   -0.006408   -1.796716
 H   -3.117832   -0.949478   -1.703703
 H   -2.607378    1.424999   -1.929289
 H   -3.521041    1.843193   -0.482043
 H    0.114083    2.518993   -0.361385
 H    2.242246    3.701888    0.092978
 H    4.319521    2.397609    0.452661
 H    1.371735   -2.249135   -0.332614
 H    5.483658    0.256641    0.575625
 H    3.548471   -3.320790   -0.013000
