41 
1q9m_ligand_ani.xyz
 C    1.402759    0.011644    0.360280
 C    0.087103   -0.378000    0.623618
 C   -0.992343    0.430615    0.281206
 C   -0.757570    1.677731   -0.318625
 C    0.547779    2.064707   -0.586718
 C    1.619105    1.244138   -0.255157
 C    2.553487   -0.908373    0.726613
 C    3.336972   -1.420477   -0.499690
 C    4.630201   -0.615768   -0.536869
 O    5.470169   -0.626542   -1.413445
 N    4.677364    0.117724    0.614971
 C    3.640685   -0.201689    1.578181
 O   -2.265331    0.020481    0.587123
 C   -3.121346   -0.243483   -0.540068
 C   -4.510868   -0.469355    0.034176
 C   -4.419873   -1.878222    0.651229
 C   -3.318932   -2.622097   -0.151302
 C   -2.766884   -1.592014   -1.161857
 O   -1.791185    2.512468   -0.673439
 C   -2.427313    3.135231    0.434320
 H   -0.114905   -1.331675    1.104659
 H    0.704170    3.030019   -1.056906
 H    2.627924    1.584517   -0.471084
 H    2.126340   -1.743884    1.289572
 H    3.604734   -2.479734   -0.412205
 H    2.796367   -1.303651   -1.442942
 H    5.526953    0.607090    0.857933
 H    4.011651   -0.873777    2.366627
 H    3.258122    0.706546    2.058006
 H   -3.062362    0.591453   -1.243881
 H   -5.250964   -0.442714   -0.775977
 H   -4.776835    0.306813    0.758281
 H   -5.384056   -2.395063    0.615355
 H   -4.134459   -1.810577    1.703773
 H   -3.704803   -3.511089   -0.659927
 H   -2.524801   -2.958392    0.522636
 H   -1.693195   -1.694620   -1.351775
 H   -3.279313   -1.676424   -2.128066
 H   -1.737344    3.818469    0.946271
 H   -3.266738    3.705856    0.030691
 H   -2.795032    2.387980    1.146218
