80 
1qbs_ligand_ani.xyz
 C   -0.284132    0.428316   -0.983823
 C    0.964185   -0.708826    0.842863
 C    0.821825    0.217624    2.049351
 C   -0.556098    0.853675    2.211161
 C   -0.996039    1.751058    1.055027
 C    1.993880   -0.217146   -1.369947
 C    3.380919   -0.054792   -0.799446
 C    4.326441   -1.080445   -0.872278
 C    5.598751   -0.919252   -0.332848
 C    5.956833    0.274592    0.294328
 C    5.020182    1.305200    0.355468
 C    3.747560    1.142514   -0.182074
 C    7.333482    0.431796    0.905489
 C   -0.010938   -1.912726    0.882768
 C    0.405338   -3.050380   -0.021304
 C    1.193155   -4.098775    0.461331
 C    1.613102   -5.123435   -0.382807
 C    1.245802   -5.119580   -1.724293
 C    0.457172   -4.084353   -2.218148
 C    0.038976   -3.059900   -1.371314
 C   -0.101907    2.986958    0.831247
 C   -0.759912    3.981219   -0.100045
 C   -1.763237    4.832382    0.371773
 C   -2.408103    5.720648   -0.483643
 C   -2.062227    5.763762   -1.831864
 C   -1.072400    4.914031   -2.316881
 C   -0.430223    4.025931   -1.456983
 C   -2.565991    1.212577   -0.803805
 C   -3.525526    0.094373   -0.461892
 C   -4.543642    0.239318    0.482730
 C   -5.372280   -0.829092    0.806328
 C   -5.202319   -2.071692    0.197866
 C   -4.194177   -2.219115   -0.755100
 C   -3.368678   -1.148771   -1.080671
 C   -6.089398   -3.236457    0.584132
 N    0.932083    0.076824   -0.397409
 N   -1.252621    1.015458   -0.185576
 O   -0.490056    0.222784   -2.176612
 O    1.052023   -0.491951    3.269319
 O   -0.566150    1.641524    3.386841
 O    8.336310   -0.295994    0.223487
 O   -7.395009   -2.845217    0.962373
 H    1.975343   -1.121921    0.905715
 H    1.570029    1.018016    1.945611
 H   -1.305034    0.049134    2.300484
 H   -1.976179    2.117467    1.372483
 H    1.875323   -1.228036   -1.783700
 H    1.844274    0.477093   -2.201719
 H    4.060858   -2.023992   -1.349324
 H    6.330798   -1.721072   -0.392416
 H    5.291223    2.246953    0.828030
 H    3.041194    1.970083   -0.140881
 H    7.342604    0.037186    1.928395
 H    7.589985    1.500973    0.976819
 H   -1.020686   -1.577320    0.620080
 H   -0.044639   -2.255604    1.922719
 H    1.479000   -4.121109    1.512171
 H    2.225648   -5.930838    0.011913
 H    1.571997   -5.920150   -2.383527
 H    0.165410   -4.073974   -3.264890
 H   -0.548690   -2.235024   -1.774439
 H    0.860494    2.669435    0.419022
 H    0.094128    3.440220    1.809307
 H   -2.042150    4.797553    1.425125
 H   -3.183229    6.377830   -0.097018
 H   -2.563800    6.457673   -2.501668
 H   -0.797481    4.945802   -3.368945
 H    0.335933    3.353167   -1.840279
 H   -2.953855    2.185731   -0.485611
 H   -2.405482    1.256553   -1.885361
 H   -4.700197    1.198910    0.974708
 H   -6.167781   -0.708055    1.537416
 H   -4.054230   -3.178900   -1.247659
 H   -2.590232   -1.271818   -1.832411
 H   -6.110697   -3.975688   -0.232621
 H   -5.681825   -3.750112    1.462977
 H    1.994720   -0.690919    3.323650
 H   -0.088763    1.114926    4.045884
 H    8.401371    0.067725   -0.668877
 H   -7.810842   -2.440461    0.190280
