85 
1qca_ligand_ani.xyz
 C   -3.997716    1.416149    0.683791
 C   -5.526457    1.430545    0.804244
 C   -6.202913    0.424532   -0.123888
 C   -5.613298   -0.990255    0.043169
 C   -4.073990   -0.958680   -0.098683
 C   -3.460117   -2.368274   -0.069563
 C   -1.951969   -2.417006    0.243110
 C   -1.203240   -1.137572   -0.183532
 C   -1.801337    0.021781    0.696912
 C   -3.369886    0.015882    0.894857
 C   -1.103657    1.366611    0.421035
 C    0.403848    1.252695    0.705158
 C    1.022495    0.133459   -0.124598
 C    0.327047   -1.234557    0.139028
 C    1.161721   -2.139120   -0.788233
 C    2.613069   -1.622167   -0.667983
 C    2.500122   -0.216108   -0.096097
 C   -6.277922   -1.953303   -0.946946
 C   -3.647472   -0.427958    2.349492
 C   -1.399816   -0.941554   -1.702363
 C    0.610805   -1.705694    1.577896
 C    3.535455    0.507048    0.366212
 C    3.487671    1.693373    1.310776
 C    3.812363    3.035073    0.624026
 C    2.894604    3.370707   -0.520362
 C    1.999594    4.356071   -0.604174
 C    1.159147    4.540709   -1.844292
 C    1.710777    5.334501    0.500357
 C    4.962996    0.178131    0.011363
 C    3.959474   -3.526490   -0.259575
 C    4.886525   -4.177580    0.733682
 O   -1.335838    1.788358   -0.916816
 O    3.410447   -2.404720    0.252591
 O    3.714887   -3.952172   -1.362481
 O    5.920276    0.559783    0.646634
 O    5.122023   -0.556730   -1.108859
 O   -6.152273    0.870827   -1.476140
 H   -3.698379    1.797966   -0.300934
 H   -3.588543    2.116229    1.422068
 H   -5.824341    1.220260    1.839295
 H   -5.908630    2.431806    0.570073
 H   -7.275520    0.380643    0.105837
 H   -5.868153   -1.335969    1.055073
 H   -3.912947   -0.543415   -1.103056
 H   -3.643656   -2.835372   -1.044869
 H   -3.990069   -2.982418    0.671405
 H   -1.498329   -3.286973   -0.250563
 H   -1.822207   -2.577087    1.319375
 H   -1.436878   -0.213348    1.699563
 H   -1.510670    2.129590    1.102651
 H    0.533661    1.069759    1.777513
 H    0.878746    2.212410    0.476460
 H    0.819744    0.385126   -1.173711
 H    1.092582   -3.198166   -0.530841
 H    0.859413   -2.023544   -1.832782
 H    3.097738   -1.653457   -1.643844
 H   -5.971756   -2.989721   -0.775635
 H   -6.030219   -1.682612   -1.979154
 H   -7.369071   -1.914696   -0.851633
 H   -3.208493    0.285470    3.058396
 H   -3.218670   -1.412939    2.565393
 H   -4.714118   -0.486271    2.572964
 H   -0.612862   -0.341885   -2.156777
 H   -2.330914   -0.435893   -1.947413
 H   -1.408804   -1.915475   -2.204615
 H    0.109249   -1.105875    2.342211
 H    0.304652   -2.749792    1.701556
 H    1.682786   -1.662882    1.777764
 H    2.536508    1.756208    1.845228
 H    4.256767    1.520006    2.069937
 H    3.807528    3.827788    1.377124
 H    4.836742    2.969665    0.242856
 H    2.982515    2.697815   -1.378459
 H    1.335927    3.743097   -2.575229
 H    0.089780    4.564423   -1.599352
 H    1.381462    5.500998   -2.327697
 H    1.775278    6.365400    0.132048
 H    2.392480    5.236405    1.347367
 H    0.687352    5.196392    0.872674
 H    5.669363   -3.474725    1.036247
 H    5.336024   -5.060023    0.278784
 H    4.330366   -4.469056    1.630347
 H   -0.740229    2.532345   -1.080780
 H    6.079298   -0.702308   -1.187328
 H   -5.236208    1.105638   -1.673863
