48 
1qfs_ligand_xtb.xyz
 C    2.722334   -1.955716   -0.645869
 C    3.783040   -1.418833    0.064515
 C    3.595381   -0.975712    1.362575
 C    2.345497   -1.078679    1.952842
 C    1.288442   -1.625225    1.246840
 C    1.468764   -2.064881   -0.059508
 C    0.296836   -2.613404   -0.828166
 O   -0.723388   -1.619861   -0.927681
 C   -1.857815   -1.835290   -0.203998
 O   -2.118904   -2.867436    0.363834
 N   -2.662412   -0.758460   -0.266437
 C   -2.206621    0.534291   -0.747433
 C   -0.923269    0.928429   -0.000376
 O   -0.915964    0.909048    1.223418
 C   -3.348274    1.486600   -0.357804
 C   -3.965536    0.814616    0.868004
 C   -3.884414   -0.665728    0.511965
 C    2.264730    2.182255   -1.245310
 C    1.818653    1.232186   -2.347911
 C    1.139269    2.964443    0.912427
 O    0.971994    2.544940    2.231241
 N    0.127078    1.342591   -0.720669
 C    0.305000    1.187969   -2.154557
 C    1.364433    1.801273   -0.071738
 H    2.871293   -2.302183   -1.659553
 H    4.755861   -1.342114   -0.399408
 H    4.419588   -0.548041    1.913600
 H    2.192172   -0.726003    2.961216
 H    0.313643   -1.701944    1.705120
 H    0.584348   -2.881238   -1.849378
 H   -0.126575   -3.491096   -0.324234
 H   -2.055300    0.504274   -1.827866
 H   -2.982560    2.489535   -0.143716
 H   -4.073699    1.541001   -1.170632
 H   -3.347612    1.017791    1.741777
 H   -4.984448    1.143845    1.058809
 H   -3.821895   -1.326086    1.377489
 H   -4.734041   -0.975270   -0.108276
 H    2.072557    3.216370   -1.537224
 H    3.317131    2.076576   -0.993998
 H    2.240895    0.242230   -2.174490
 H    2.097153    1.570422   -3.343699
 H    0.279884    3.563761    0.570057
 H    2.026457    3.604321    0.912144
 H    0.249082    1.887716    2.225251
 H   -0.111463    0.240167   -2.496017
 H   -0.180731    2.015280   -2.686659
 H    1.796984    0.966668    0.493947
