38 
1qhr_ligand_dft.xyz
 C    0.355069   -0.860748   -0.040769
 C    1.550176   -1.029225    0.901775
 C    2.730370   -1.762017    0.256004
 C    3.444396   -0.975008   -0.855194
 C    4.132111    0.265614   -0.321593
 N    3.436535    1.443514   -0.497355
 N    5.286265    0.130029    0.218229
 O    0.526061    1.952553    0.053257
 O   -3.067889    2.003183   -0.283444
 C   -2.096484   -0.195926   -0.244863
 C   -4.202503   -1.499661   -0.062262
 C   -2.662786   -1.638314   -0.190447
 C   -3.265317    0.690353    0.201705
 C   -4.492715   -0.025525   -0.362617
 C   -0.782155   -0.024061    0.548703
 C   -0.409455    1.445314    0.632367
 H   -0.025046   -1.855323   -0.303172
 H    0.666490   -0.390642   -0.980699
 H    1.885018   -0.050728    1.267018
 H    1.221414   -1.591437    1.785973
 H    2.377977   -2.716226   -0.158318
 H    3.474972   -2.001408    1.022593
 H    2.747582   -0.707199   -1.657586
 H    4.219392   -1.610148   -1.290680
 H    2.427668    1.410629   -0.594549
 H    3.754859    2.243828    0.031255
 H    5.631497    1.027148    0.569652
 H   -3.796769    2.554104    0.024793
 H   -1.895929    0.079016   -1.289274
 H   -4.743245   -2.176210   -0.728999
 H   -4.517009   -1.739482    0.959508
 H   -2.248344   -2.188484    0.661576
 H   -2.383889   -2.196213   -1.088472
 H   -3.321523    0.690957    1.305498
 H   -5.435017    0.328879    0.068941
 H   -4.524467    0.158587   -1.443366
 H   -0.987032   -0.344843    1.583602
 H   -1.057813    2.069716    1.273235
