45 
1qi0_ligand_ani.xyz
 C   -1.094704    0.559051    0.142343
 C   -2.155804    1.635804   -0.087679
 C   -3.509058    1.132281    0.386770
 C   -3.839558   -0.212431   -0.248996
 C   -2.666869   -1.172146   -0.070358
 C   -2.834646   -2.499957   -0.799221
 O   -1.873669    2.818103    0.633232
 O   -4.549054    2.023454    0.041461
 O   -4.976883   -0.788233    0.350630
 O   -1.474853   -0.580441   -0.598453
 O   -1.675018   -3.284819   -0.634521
 C    3.853089   -0.716378   -0.242308
 C    2.803175   -1.498542    0.528038
 C    1.403266   -1.006305    0.212489
 C    1.299638    0.517304    0.328204
 C    2.480080    1.196019   -0.374565
 C    2.581351    2.694382   -0.105235
 O    5.108390   -1.171981    0.166958
 O    2.839967   -2.873796    0.206869
 O    0.496844   -1.604373    1.121772
 O    0.135441    1.034600   -0.313004
 O    3.731040    0.653760    0.058416
 O    3.690266    3.248257   -0.771305
 H   -1.031075    0.309717    1.215534
 H   -2.208933    1.827882   -1.172021
 H   -3.467182    0.996040    1.483173
 H   -3.991049   -0.049113   -1.329707
 H   -2.523010   -1.375562    1.005298
 H   -3.684103   -3.049609   -0.383208
 H   -3.042436   -2.307824   -1.865274
 H   -0.989732    3.099749    0.362962
 H   -4.316652    2.882423    0.420965
 H   -5.690198   -0.140926    0.262256
 H   -0.945243   -2.686304   -0.855506
 H    3.719456   -0.860039   -1.331905
 H    2.992986   -1.330309    1.600235
 H    1.165925   -1.275650   -0.828389
 H    1.294162    0.779341    1.398568
 H    2.376093    1.035287   -1.460272
 H    1.693464    3.206496   -0.485334
 H    2.633825    2.864355    0.983638
 H    5.739822   -0.469018   -0.031737
 H    3.729615   -3.186389    0.419286
 H    0.550702   -2.560334    0.982245
 H    4.454039    2.719059   -0.504131
