53 
1qj1_ligand_ani.xyz
 C    2.873025   -0.265440    1.759662
 C    3.160286   -1.674368    1.231569
 C    4.652491   -2.018735    1.170887
 C    5.434873   -1.236484    0.102878
 C    4.978482   -1.551629   -1.299913
 N    5.490832   -2.727812   -1.817920
 N    4.193811   -0.763854   -1.937500
 O    1.961700    2.089311    2.898752
 O    2.340712    1.548301   -1.912349
 C    1.178696    0.545825   -0.017139
 C   -0.359313    2.317392   -0.541687
 C   -0.257890    0.955673   -0.270458
 C    1.977975    1.765883   -0.571639
 C    1.004436    2.962974   -0.547465
 C   -1.388099    0.160561   -0.164606
 C   -2.655290    0.723710   -0.346886
 C   -2.745109    2.092562   -0.634360
 C   -1.611425    2.893037   -0.723829
 C   -3.877802   -0.109295   -0.214866
 C   -3.994036   -1.038991    0.825504
 C   -5.126206   -1.822102    0.975576
 C   -6.174326   -1.701619    0.062294
 C   -6.078276   -0.788270   -0.986817
 C   -4.942883    0.002065   -1.111459
 O   -7.259892   -2.499179    0.247666
 C    1.446520    0.219799    1.476426
 C    1.123862    1.433106    2.324093
 H    3.040217   -0.240670    2.842744
 H    3.585943    0.460448    1.351273
 H    2.725182   -1.808923    0.234303
 H    2.649745   -2.399605    1.877638
 H    4.767689   -3.092652    0.972813
 H    5.114097   -1.837820    2.150382
 H    5.325139   -0.160286    0.268922
 H    6.503427   -1.465428    0.185533
 H    5.793418   -3.421814   -1.151726
 H    5.013721   -3.124804   -2.616321
 H    4.051294   -1.150701   -2.876425
 H    2.994672    0.817884   -1.923887
 H    1.420255   -0.348441   -0.609969
 H    2.870464    1.979505    0.041778
 H    1.176820    3.602875   -1.417298
 H    1.149443    3.575709    0.351009
 H   -1.305404   -0.905905    0.040919
 H   -3.726816    2.542869   -0.765977
 H   -1.715652    3.955450   -0.936683
 H   -3.182662   -1.131883    1.544624
 H   -5.212365   -2.538641    1.786543
 H   -6.892423   -0.687260   -1.702771
 H   -4.877215    0.706723   -1.937255
 H   -7.904660   -2.322919   -0.448947
 H    0.734643   -0.567863    1.771526
 H    0.048421    1.704439    2.396044
