68 
1qj7_ligand_ani.xyz
 N    6.268709    1.653907    0.055649
 C    6.213797    1.588994   -1.401113
 O    5.335835    1.190797    2.071377
 C    2.880589   -1.593719   -0.232467
 C    3.673803   -2.602087   -0.793741
 C   -5.062138   -0.655278   -0.468760
 C   -5.828022    0.177356   -1.501539
 C   -7.299789    0.400248   -1.138760
 C   -7.547081    1.255055    0.118430
 C   -7.170391    2.721172   -0.030991
 N   -8.000528    3.675975   -0.226239
 N   -5.829703    3.014079    0.019925
 O   -3.266776    1.317507    0.517173
 O   -3.177644   -3.229116    2.042906
 C   -2.876788   -1.928529   -0.017513
 C   -0.710571   -1.533013    0.926319
 C   -1.379527   -1.940670   -0.225613
 C   -3.000808   -1.916782    1.533843
 C   -1.690239   -1.279869    2.048076
 C   -0.674795   -2.227848   -1.389015
 C    0.711709   -2.123936   -1.377414
 C    1.397021   -1.707577   -0.228424
 C    0.667414   -1.401752    0.927016
 C    5.060359   -2.509570   -0.765345
 C    5.678571   -1.394283   -0.209730
 C    5.517300    0.878653    0.902944
 C    4.899338   -0.363925    0.319638
 C    3.513117   -0.483834    0.333177
 C    7.525191    1.130249   -2.027835
 C    6.895311    2.836408    0.644974
 C    5.953187    4.030409    0.782843
 C   -3.554682   -0.727157   -0.734091
 C   -2.848352    0.545906   -0.319355
 H    5.397163    0.923080   -1.691474
 H    5.961716    2.587367   -1.786255
 H    3.199923   -3.478386   -1.229725
 H   -5.475462   -1.673918   -0.457623
 H   -5.218388   -0.246301    0.535176
 H   -5.338379    1.146187   -1.650059
 H   -5.782995   -0.337234   -2.470763
 H   -7.781533   -0.574538   -0.984253
 H   -7.814719    0.860688   -1.991854
 H   -7.011510    0.821220    0.974028
 H   -8.611528    1.212446    0.376113
 H   -8.951670    3.313022   -0.243750
 H   -5.617594    3.999097    0.088945
 H   -5.152438    2.373954    0.410284
 H   -2.392723   -3.741540    1.803247
 H   -3.341265   -2.848673   -0.400831
 H   -3.881917   -1.369302    1.879247
 H   -1.817475   -0.205092    2.212250
 H   -1.388035   -1.726945    3.001279
 H   -1.193835   -2.534335   -2.294715
 H    1.275693   -2.344202   -2.281183
 H    1.206330   -1.091695    1.821671
 H    5.665408   -3.305674   -1.188004
 H    6.762600   -1.333069   -0.169741
 H    2.922002    0.316169    0.773107
 H    7.764026    0.101333   -1.743476
 H    8.357529    1.770674   -1.718100
 H    7.456846    1.170896   -3.120158
 H    7.274243    2.542646    1.627480
 H    7.753788    3.104356    0.017720
 H    5.124879    3.789463    1.454849
 H    5.539395    4.328928   -0.188399
 H    6.494017    4.888383    1.196423
 H   -3.383071   -0.863687   -1.813157
 H   -1.862830    0.735721   -0.798622
