44 
1qkt_ligand_xtb.xyz
 C    2.642071   -1.479427   -0.415027
 C    3.998826   -1.439581   -0.157498
 C    4.595976   -0.240410    0.203045
 O    5.928520   -0.138545    0.473636
 C    3.812561    0.900590    0.283409
 C    2.450379    0.860428    0.023560
 C    1.681953    2.148781    0.143813
 C    0.297896    2.066665   -0.485502
 C   -0.381003    0.785526   -0.013444
 C    0.356852   -0.417195   -0.626042
 C    1.839027   -0.348673   -0.317263
 C   -0.289800   -1.740955   -0.189145
 C   -1.796021   -1.785463   -0.468458
 C   -2.505715   -0.575801    0.133275
 C   -1.843735    0.694225   -0.422278
 C   -2.807646    1.814015   -0.022622
 C   -4.197463    1.151601   -0.099064
 C   -3.952311   -0.356747   -0.350135
 O   -4.863649   -1.197539    0.315860
 C   -2.511050   -0.669486    1.659940
 H    2.211078   -2.424850   -0.703502
 H    4.593928   -2.339979   -0.239380
 H    6.343756   -1.003358    0.373789
 H    4.286365    1.832284    0.552719
 H    2.259857    2.956740   -0.310781
 H    1.578958    2.387305    1.207768
 H   -0.288729    2.940495   -0.197948
 H    0.379969    2.059164   -1.574637
 H   -0.302257    0.741894    1.076285
 H    0.247732   -0.344736   -1.718525
 H   -0.097062   -1.899233    0.872718
 H    0.166298   -2.570585   -0.730375
 H   -1.956119   -1.792349   -1.550139
 H   -2.216281   -2.707658   -0.063822
 H   -1.873777    0.618879   -1.517304
 H   -2.735556    2.667928   -0.695089
 H   -2.592605    2.164550    0.986628
 H   -4.803480    1.584042   -0.895756
 H   -4.743449    1.268524    0.837558
 H   -3.996459   -0.558833   -1.433461
 H   -5.751631   -0.990516    0.008004
 H   -2.921704    0.228394    2.109569
 H   -3.138377   -1.508434    1.949676
 H   -1.514209   -0.829553    2.056660
