61 
1ql7_ligand_ani.xyz
 N    8.058239    3.089466   -0.957018
 C    8.063915    2.409691    0.191839
 C    7.086510    1.508551    0.582985
 C    5.973229    1.989089   -1.471645
 C    7.016330    2.859958   -1.756285
 C    5.988985    1.277091   -0.261671
 N    4.969925    0.412198    0.128429
 C    5.360351   -0.902650    0.631095
 C    4.242345   -1.537016    1.445649
 C    2.602262   -0.240247    0.096352
 C    3.758070    0.380181   -0.678367
 C    2.970460   -1.638764    0.606920
 C    1.824818   -2.204416    1.442451
 O    1.849306   -2.130125    2.663323
 N    0.753318   -2.754514    0.784357
 C    0.596993   -2.934292   -0.651682
 C   -0.706851   -2.302288   -1.131625
 C   -1.660591   -2.625149    1.113583
 C   -0.360971   -3.277249    1.565938
 N   -1.818871   -2.824046   -0.331298
 S   -3.355459   -2.658626   -0.962474
 O   -4.253234   -3.344250   -0.049881
 O   -3.270965   -3.017841   -2.366411
 C   -3.697129   -0.916274   -0.862619
 C   -4.122879   -0.378789    0.322279
 C   -3.485309   -0.111134   -2.005585
 C   -3.674142    1.242477   -1.920799
 C   -4.315726    1.026349    0.432331
 C   -4.085116    1.847250   -0.700589
 C   -4.272932    3.252607   -0.590729
 C   -4.905891    2.988168    1.738940
 C   -4.730377    1.633838    1.645454
 C   -4.670732    3.795493    0.599551
Cl   -4.900362    5.517246    0.739432
 H    8.914454    2.589954    0.848742
 H    7.157732    1.019217    1.549528
 H    5.179385    1.855209   -2.197736
 H    7.004244    3.413781   -2.695229
 H    6.254970   -0.796395    1.246629
 H    5.632381   -1.571088   -0.207585
 H    4.027537   -0.940164    2.337684
 H    4.555401   -2.527882    1.791212
 H    2.363109    0.393787    0.958292
 H    1.706671   -0.263216   -0.535784
 H    3.919868   -0.182996   -1.617815
 H    3.497001    1.406982   -0.946850
 H    3.175988   -2.298300   -0.247745
 H    0.572775   -4.009095   -0.882030
 H    1.437172   -2.499249   -1.192593
 H   -0.883640   -2.564460   -2.176821
 H   -0.659746   -1.205391   -1.054863
 H   -2.511919   -3.085020    1.621967
 H   -1.644172   -1.550630    1.351957
 H   -0.159126   -3.071937    2.617757
 H   -0.429341   -4.365388    1.424595
 H   -4.314102   -1.013879    1.182174
 H   -3.179338   -0.587132   -2.932327
 H   -3.510706    1.876197   -2.788220
 H   -4.097261    3.888413   -1.454156
 H   -5.220702    3.455217    2.666846
 H   -4.908021    0.999469    2.511452
