11 
1qpb_ligand_ani.xyz
 C    0.745534    0.288028   -0.000043
 N    1.696566   -0.669256    0.000441
 O    0.949395    1.489387   -0.000358
 C   -0.688381   -0.298306   -0.000129
 O   -0.836233   -1.502005   -0.000355
 C   -1.818847    0.688533    0.000286
 H    2.667210   -0.398874    0.000134
 H    1.430402   -1.642759    0.000226
 H   -2.439906    0.523552   -0.884473
 H   -2.437029    0.525899    0.887529
 H   -1.431772    1.708389   -0.001480
