109 
1qsc_ligand_ani.xyz
 C    3.576473   -2.229620    2.849085
 O    4.536093   -1.803650    3.472708
 C    2.542857   -3.165553    3.439966
 N    3.361267   -1.902914    1.540502
 C    4.121011   -0.853310    0.914793
 C    3.599165    0.529749    1.360116
 O    2.447421    0.670353    1.798404
 C    4.030992   -0.983817   -0.620020
 C    4.647984   -2.262913   -1.140081
 C    3.854648   -3.365350   -1.472871
 C    6.030242   -2.387250   -1.272879
 C    4.419208   -4.548498   -1.930578
 C    6.613316   -3.563696   -1.731357
 C    5.804088   -4.649414   -2.062872
 O    6.307191   -5.830752   -2.518968
 N    4.407577    1.596080    1.207822
 C    3.954301    2.946728    1.583015
 C    3.126713    3.616350    0.463965
 O    3.438428    4.700487   -0.013795
 C    5.258744    3.693947    1.842186
 C    6.229428    3.052392    0.848921
 C    5.831900    1.572850    0.848387
 N    2.038493    2.916328    0.057417
 C    1.067634    3.437115   -0.875942
 C   -0.310972    2.953868   -0.397573
 O   -0.427903    2.177828    0.549302
 C    1.370178    3.077228   -2.361894
 C    1.780314    1.614820   -2.591710
 C    2.437506    4.013773   -2.931427
 C    0.728122    0.586141   -2.198554
 N   -1.400246    3.419639   -1.056596
 C   -2.741823    3.003858   -0.662802
 C   -3.101375    1.645477   -1.297441
 O   -3.901413    1.544046   -2.215728
 C   -3.785491    4.055669   -1.017490
 C   -5.195163    3.706682   -0.515466
 C   -5.260904    3.759141    1.003986
 O   -5.299157    4.826621    1.595343
 N   -5.244049    2.564963    1.652639
 N   -2.467693    0.559474   -0.761656
 C   -3.037155   -0.752797   -0.971426
 C   -4.321685   -0.918721   -0.142697
 O   -4.551274   -0.276317    0.873990
 C   -2.049136   -1.881325   -0.636085
 C   -1.562980   -1.885751    0.825798
 C   -0.111129   -1.492610    0.968140
 O    0.140220   -0.809072    2.075810
 O    0.750925   -1.800160    0.159332
 N   -5.192086   -1.857722   -0.615722
 C   -6.181428   -2.398132    0.282807
 C   -5.496950   -3.291330    1.316042
 O   -4.329828   -3.601634    1.301914
 C   -7.220533   -3.214880   -0.491872
 O   -6.458080   -4.172212   -1.221106
 C   -8.072530   -2.354550   -1.412682
 O   -6.351951   -3.715125    2.258908
 H    1.555763   -2.689318    3.446607
 H    2.836226   -3.405076    4.462744
 H    2.465479   -4.090348    2.858813
 H    2.483504   -2.152872    1.095056
 H    5.159801   -0.962427    1.238654
 H    2.972190   -0.932909   -0.908544
 H    4.530747   -0.121243   -1.077947
 H    2.772083   -3.292835   -1.368558
 H    6.674747   -1.547027   -1.015415
 H    3.805414   -5.405154   -2.192728
 H    7.695474   -3.636663   -1.831499
 H    7.269410   -5.766056   -2.566749
 H    3.319384    2.860002    2.473411
 H    5.141595    4.768527    1.696008
 H    5.582362    3.510940    2.873144
 H    7.277938    3.198637    1.120172
 H    6.069915    3.476962   -0.146484
 H    5.983978    1.113624   -0.133254
 H    6.406331    0.995676    1.585986
 H    1.717493    2.135457    0.623753
 H    1.082870    4.534396   -0.808153
 H    0.439178    3.248221   -2.925106
 H    2.715508    1.410479   -2.048936
 H    2.021367    1.506988   -3.657764
 H    2.572713    3.837804   -4.003774
 H    2.161236    5.064762   -2.791902
 H    3.401543    3.860364   -2.435742
 H   -0.236156    0.782350   -2.682235
 H    1.044689   -0.425395   -2.477422
 H    0.572892    0.587959   -1.116204
 H   -1.286083    3.973973   -1.891925
 H   -2.693452    2.866340    0.424729
 H   -3.482088    5.014938   -0.582875
 H   -3.821219    4.166716   -2.107256
 H   -5.896771    4.462920   -0.883747
 H   -5.500586    2.730547   -0.906492
 H   -5.119997    1.662820    1.209561
 H   -5.257764    2.600737    2.661471
 H   -1.913454    0.720748    0.071988
 H   -3.304828   -0.816031   -2.032049
 H   -1.186567   -1.794193   -1.307064
 H   -2.534080   -2.835683   -0.868769
 H   -1.644501   -2.891824    1.251000
 H   -2.174807   -1.237665    1.462080
 H    1.056344   -0.435318    2.026214
 H   -4.835622   -2.530537   -1.282818
 H   -6.659205   -1.570231    0.813812
 H   -7.862280   -3.719977    0.242757
 H   -7.047440   -4.886562   -1.491307
 H   -8.784734   -2.974842   -1.967175
 H   -8.644152   -1.625854   -0.827598
 H   -7.444676   -1.815273   -2.127381
 H   -5.839343   -4.283447    2.858241
