27 
1qvu_ligand_xtb.xyz
 C    2.470515    1.605117    0.008934
 C    3.615315    0.874275    0.007307
 C    3.572231   -0.546522   -0.000540
 C    2.357791   -1.188128   -0.002536
 C   -2.357729   -1.188096    0.003817
 C   -3.572196   -0.546574   -0.000512
 C   -3.615267    0.874221   -0.009134
 C   -2.470479    1.605146   -0.009181
 C    0.000074    1.669449    0.000768
 N   -0.000049   -1.134874    0.001794
 C    1.148593   -0.462200   -0.001843
 C   -1.203493    0.973166   -0.001398
 C    1.203523    0.973017    0.002595
 C   -1.148638   -0.462073    0.003992
 N    4.755741   -1.246966   -0.073357
 N   -4.755978   -1.246830    0.070666
 H    2.507754    2.685950    0.017086
 H    4.581070    1.360431    0.010375
 H    2.299860   -2.265755   -0.006287
 H   -2.299597   -2.265704    0.007809
 H   -4.581069    1.360347   -0.014489
 H   -2.507996    2.685943   -0.017268
 H    0.000388    2.752861    0.001093
 H    5.588203   -0.772299    0.234659
 H    4.712245   -2.226654    0.153918
 H   -4.712367   -2.226887   -0.155110
 H   -5.587927   -0.772345   -0.239118
