66 
1qxl_ligand_ani.xyz
 C    1.952214   -1.640298    0.503244
 N    3.216240   -2.177446    0.401206
 C    3.088899   -3.282870   -0.392243
 N    1.857255   -3.466806   -0.801296
 C    1.139581   -2.431312   -0.259565
 C   -0.289200   -2.198631   -0.560333
 O   -0.843219   -1.144733   -0.254279
 N   -0.912692   -3.218193   -1.183177
 C    4.455097   -1.557622    0.879413
 C    5.131783   -2.448343    1.914097
 O    5.631377   -3.606623    1.267756
 C    5.412719   -1.200804   -0.267430
 C    4.846133   -0.208563   -1.287856
 N    4.713765    1.146130   -0.782494
 C    5.769872    1.961066   -0.436428
 C    5.310581    3.130646    0.095232
 C    3.876527    3.052522    0.093103
 C    3.539821    1.803246   -0.477369
 C    2.835660    3.892501    0.518209
 C    1.524720    3.484412    0.394476
 C    1.209313    2.225184   -0.165383
 C    2.217958    1.395041   -0.650469
 N   -0.108215    1.740956   -0.227840
 C   -1.274889    2.448400   -0.096845
 O   -1.331054    3.659439    0.035291
 C   -2.525494    1.576930   -0.143099
 C   -3.800064    2.404048   -0.002307
 C   -6.712094   -1.250167   -0.555350
 C   -6.608019   -0.284865    0.448671
 C   -7.751732    0.035035    1.181954
 C   -8.966581   -0.594472    0.922967
 C   -9.055161   -1.557799   -0.076989
 C   -7.922201   -1.884697   -0.816541
 C   -5.079508    1.609848   -0.265627
 C   -5.296738    0.429978    0.691225
 H    1.743818   -0.754844    1.087742
 H    3.936275   -3.915291   -0.623717
 H   -0.367746   -4.005307   -1.502846
 H   -1.868069   -3.102335   -1.481634
 H    4.129481   -0.644358    1.386995
 H    5.949035   -1.878637    2.383853
 H    4.398477   -2.708310    2.688062
 H    5.903280   -4.234949    1.946541
 H    5.692319   -2.120453   -0.788387
 H    6.332847   -0.786460    0.162857
 H    3.860472   -0.539670   -1.623785
 H    5.499644   -0.178832   -2.167250
 H    6.783304    1.619821   -0.613957
 H    5.907171    3.959941    0.452725
 H    3.053579    4.865671    0.952176
 H    0.719478    4.128202    0.724049
 H    1.970674    0.462543   -1.149652
 H   -0.200918    0.733448   -0.332103
 H   -2.445106    0.819566    0.649626
 H   -2.523858    1.017509   -1.090545
 H   -3.825229    2.845265    1.002140
 H   -3.742584    3.248612   -0.697104
 H   -5.833722   -1.509850   -1.144105
 H   -7.695592    0.783871    1.970342
 H   -9.846168   -0.331874    1.506294
 H  -10.002369   -2.051337   -0.280141
 H   -7.980223   -2.636322   -1.600295
 H   -5.939271    2.287004   -0.193485
 H   -5.071227    1.234513   -1.298166
 H   -4.473765   -0.288464    0.579641
 H   -5.260499    0.793693    1.726635
