23 
1qy2_ligand_ani.xyz
 C   -2.750669   -0.158895   -1.047201
 C   -1.646995   -0.698069   -0.136969
 C   -2.161125   -0.905465    1.292548
 C   -0.469403    0.244101   -0.081078
 N   -0.698472    1.538625    0.026018
 C    0.358479    2.364939    0.117830
 C    1.649764    1.884729    0.107913
 N    1.916207    0.570644    0.014361
 C    0.874148   -0.228117   -0.066985
 O    1.052648   -1.558541   -0.139807
 C    2.393624   -2.034559   -0.140509
 H   -3.095783    0.816026   -0.690118
 H   -2.389824   -0.037937   -2.074266
 H   -3.601149   -0.849494   -1.061265
 H   -1.293137   -1.660335   -0.522864
 H   -1.385680   -1.353508    1.922337
 H   -2.454106    0.053137    1.737366
 H   -3.031631   -1.571210    1.298579
 H    0.147192    3.427734    0.198684
 H    2.501598    2.556661    0.178183
 H    2.944413   -1.634370   -0.996635
 H    2.910293   -1.735180    0.775813
 H    2.315552   -3.120055   -0.203300
