56 
1r0p_ligand_xtb.xyz
 O   -4.981477   -0.677450    0.948401
 C   -3.988399   -1.239822    0.551434
 O   -3.974136   -2.380752   -0.115691
 C   -5.244761   -2.957489   -0.404064
 C   -2.605528   -0.644669    0.771308
 O   -2.686469    0.354871    1.737370
 C   -2.064053   -0.089395   -0.615534
 O   -1.465413   -1.213771   -1.204864
 C   -3.147981    0.383555   -1.587746
 N   -1.083898    0.946153   -0.351668
 C    0.272513    0.717763   -0.221835
 C    0.997242   -0.465842   -0.167834
 N    0.537394   -1.762005   -0.188829
 C   -0.864434   -2.038492   -0.229522
 C   -1.556593   -1.712510    1.113813
 C    1.617199   -2.611877   -0.108730
 C    1.659806   -3.997358   -0.085503
 C    2.900772   -4.599813    0.001535
 C    4.072660   -3.848044    0.069915
 C    4.039540   -2.468566    0.055403
 C    2.802498   -1.839685   -0.032713
 C    2.404680   -0.462370   -0.063231
 C    3.071592    0.766144    0.007377
 C    4.508568    1.085616    0.122823
 O    5.472598    0.350921    0.168807
 C    2.348201    1.952839   -0.005328
 C    3.293171    3.110334    0.105627
 N    4.568435    2.446246    0.172262
 C    0.959436    1.947923   -0.108760
 C   -0.048149    2.966491   -0.109886
 C   -1.297887    2.309622   -0.231008
 C   -2.473927    3.045144   -0.171415
 C    0.015651    4.349411    0.008878
 C   -1.160026    5.069889    0.029747
 C   -2.387266    4.418566   -0.045251
 H   -5.829252   -2.285635   -1.035035
 H   -5.794867   -3.140570    0.520628
 H   -5.041754   -3.890072   -0.923044
 H   -3.626286    0.562321    1.873575
 H   -3.457814   -0.476160   -2.177254
 H   -4.012510    0.789714   -1.072363
 H   -2.742076    1.133790   -2.260670
 H   -1.017948   -3.076535   -0.541495
 H   -0.844058   -1.276193    1.814735
 H   -2.003812   -2.596071    1.562153
 H    0.758028   -4.589723   -0.135441
 H    2.962376   -5.678240    0.018387
 H    5.021031   -4.359716    0.136636
 H    4.937765   -1.874060    0.110109
 H    3.230596    3.773392   -0.766552
 H    3.103221    3.706934    1.006827
 H    5.439439    2.942407    0.253016
 H   -3.443320    2.578259   -0.193373
 H    0.970124    4.845295    0.092768
 H   -1.133183    6.145240    0.121872
 H   -3.297197    4.998129    0.002992
