56 
1r0p_ligand_ani.xyz
 O   -5.082163   -0.677699    0.748091
 C   -4.024632   -1.223200    0.504374
 O   -3.935316   -2.439167   -0.040897
 C   -5.172865   -3.014639   -0.473289
 C   -2.681750   -0.557616    0.758892
 O   -2.859380    0.443106    1.711363
 C   -2.104232   -0.016095   -0.620310
 O   -1.558925   -1.199212   -1.195080
 C   -3.121891    0.509578   -1.626906
 N   -1.050061    1.002265   -0.389957
 C    0.316284    0.750739   -0.283623
 C    1.001711   -0.467177   -0.222232
 N    0.495366   -1.754759   -0.217167
 C   -0.940849   -1.996251   -0.199513
 C   -1.591371   -1.568670    1.153271
 C    1.557346   -2.632263   -0.079931
 C    1.550959   -4.026980   -0.009462
 C    2.769698   -4.669533    0.115931
 C    3.972920   -3.944405    0.174250
 C    3.972876   -2.563993    0.111233
 C    2.752063   -1.892235   -0.015003
 C    2.392903   -0.504978   -0.097812
 C    3.093542    0.707832   -0.036657
 C    4.558977    0.975342    0.066100
 O    5.502088    0.205595    0.106372
 C    2.415235    1.923415   -0.055895
 C    3.406009    3.056634    0.039749
 N    4.659148    2.340733    0.107673
 C    1.019874    1.947826   -0.148321
 C    0.031169    2.985836   -0.086482
 C   -1.222225    2.368740   -0.178085
 C   -2.399199    3.113180   -0.043922
 C    0.117059    4.377023    0.058471
 C   -1.043033    5.118900    0.146244
 C   -2.296219    4.483966    0.103882
 H   -5.668912   -2.351481   -1.187715
 H   -5.838967   -3.189527    0.376068
 H   -4.902393   -3.956943   -0.949600
 H   -3.776757    0.736976    1.602518
 H   -3.508420   -0.339006   -2.194153
 H   -3.957537    1.043220   -1.167814
 H   -2.596337    1.179950   -2.308150
 H   -1.101626   -3.045888   -0.458119
 H   -0.850368   -1.034191    1.756035
 H   -1.974371   -2.413314    1.730562
 H    0.614543   -4.578767   -0.048284
 H    2.795729   -5.754631    0.169948
 H    4.913740   -4.479389    0.271741
 H    4.892931   -1.989373    0.157164
 H    3.374194    3.716228   -0.838218
 H    3.251530    3.670023    0.937877
 H    5.562790    2.781398    0.168322
 H   -3.371353    2.632679   -0.037184
 H    1.085003    4.869496    0.100970
 H   -0.986837    6.197910    0.258099
 H   -3.200332    5.080138    0.187552
