60 
1rd4_ligand_ani.xyz
 O   -2.966911    4.562488   -0.351071
 N   -3.395836    3.520143    0.116674
 C   -2.482103    2.364326    0.128877
 C   -2.961738    1.049842    0.195101
 C   -2.002003    0.038878    0.337074
 C   -0.646146    0.329165    0.337054
 C   -0.185038    1.641595    0.215877
 C   -1.128440    2.658208    0.109149
 C    1.274934    1.929101    0.203294
 C    1.815653    3.036371    0.867700
 C    3.185773    3.219888    0.827959
 N    4.037420    2.412969    0.189905
 C    3.529139    1.344969   -0.440217
 N    4.422859    0.521953   -1.117674
 C    5.852343    0.771998   -0.967577
 C    6.402914    0.057892    0.269493
 N    6.072190   -1.358896    0.202730
 C    4.656669   -1.653852    0.007675
 C    4.151417   -0.906205   -1.225491
 C    6.951617   -2.395930    0.364804
 O    6.591510   -3.562792    0.313111
 C    8.405436   -2.037114    0.607522
 C    2.143751    1.081658   -0.464812
 S   -4.698260    0.632571    0.131846
 C   -4.621677   -0.882907   -0.801253
 C   -4.710980   -2.137111   -0.170244
 C   -4.657767   -3.303148   -0.937545
 C   -4.520068   -3.229058   -2.320928
 C   -4.429559   -1.996318   -2.950644
 C   -4.481139   -0.833966   -2.185402
 O   -4.843179   -2.139741    1.175748
 C   -4.724630   -3.369015    1.876764
 C   -4.733882   -3.039038    3.353917
 O   -4.508215    3.372722    0.585564
 H   -2.322854   -0.991838    0.449317
 H    0.076699   -0.475357    0.440094
 H   -0.832291    3.694833   -0.002402
 H    1.175283    3.721807    1.413358
 H    3.631953    4.073357    1.333150
 H    6.022769    1.847932   -0.908216
 H    6.340134    0.380101   -1.868167
 H    5.951791    0.511221    1.163446
 H    7.483866    0.190224    0.335524
 H    4.086919   -1.345152    0.896093
 H    4.564414   -2.735359   -0.105703
 H    4.684040   -1.271483   -2.111755
 H    3.086262   -1.082863   -1.382466
 H    8.954268   -2.970911    0.728564
 H    8.828776   -1.482763   -0.236667
 H    8.524094   -1.431033    1.511210
 H    1.747118    0.255546   -1.044618
 H   -4.721293   -4.274758   -0.457823
 H   -4.480271   -4.148441   -2.900690
 H   -4.318531   -1.933194   -4.029384
 H   -4.398601    0.137967   -2.666163
 H   -3.790315   -3.870067    1.589512
 H   -5.563315   -4.027299    1.612272
 H   -3.896988   -2.379487    3.602692
 H   -5.666128   -2.535642    3.625569
 H   -4.644553   -3.954450    3.946577
