26 
1rdi_ligand_ani.xyz
 C   -1.134958   -0.163472    0.665514
 C   -0.058687   -1.237645    0.566182
 C    0.868223   -0.936726   -0.607284
 C    1.443744    0.463940   -0.477269
 C    0.303691    1.469409   -0.321980
 C    0.800205    2.870981   -0.041060
 O   -1.971383   -0.308196   -0.451842
 O   -0.614631   -2.530734    0.429827
 O    1.947496   -1.852107   -0.603738
 O    2.290950    0.532805    0.645638
 O   -0.565482    1.112516    0.759266
 C   -3.088947    0.562256   -0.427958
 H   -1.734854   -0.301877    1.577489
 H    0.532672   -1.236655    1.485184
 H    0.299308   -1.011815   -1.548651
 H    2.001319    0.709763   -1.399268
 H   -0.270657    1.456922   -1.263255
 H    1.359710    2.888505    0.897892
 H    1.460275    3.215639   -0.845564
 H   -0.049064    3.555183    0.034534
 H   -1.323283   -2.442055   -0.225519
 H    1.559083   -2.715880   -0.396536
 H    2.834324   -0.269326    0.608270
 H   -3.684184    0.341994   -1.316636
 H   -2.775443    1.613155   -0.445055
 H   -3.704431    0.389720    0.467040
