26 
1rdi_ligand_xtb.xyz
 C   -1.134617   -0.003247    0.659133
 C   -0.186274   -1.210470    0.587855
 C    0.756693   -1.029760   -0.608935
 C    1.493912    0.308749   -0.468744
 C    0.468081    1.445100   -0.328928
 C    1.148651    2.772931   -0.034905
 O   -1.979257   -0.101655   -0.464315
 O   -0.893775   -2.419381    0.491920
 O    1.714587   -2.063568   -0.644239
 O    2.346957    0.279615    0.644612
 O   -0.451269    1.205015    0.731376
 C   -3.062935    0.805535   -0.439586
 H   -1.735026   -0.044123    1.583449
 H    0.405628   -1.257026    1.507698
 H    0.160095   -1.029535   -1.535127
 H    2.081528    0.483352   -1.385795
 H   -0.089779    1.498807   -1.277835
 H    1.751870    2.665048    0.860658
 H    1.784506    3.054904   -0.868519
 H    0.398413    3.540466    0.129062
 H   -1.596972   -2.287840   -0.158801
 H    1.260448   -2.881288   -0.401262
 H    2.811814   -0.567743    0.608443
 H   -3.593831    0.670391   -1.379287
 H   -2.708680    1.835723   -0.354701
 H   -3.729027    0.585623    0.401847
