23 
1rdj_ligand_xtb.xyz
 C    0.664424   -1.318957   -0.248741
 C    1.249956    0.039123    0.183980
 C    0.490989    1.157586   -0.531001
 C   -1.007794    1.017749   -0.221502
 C   -1.486331   -0.403575   -0.571679
 C   -2.925526   -0.627690   -0.133427
 O    1.320557   -2.362042    0.393588
 O    2.615914    0.127447   -0.142950
 O    0.909077    2.425314   -0.084286
 O   -1.245602    1.283173    1.135062
 O   -0.694400   -1.392056    0.061017
 H    0.837103   -1.448310   -1.334124
 H    1.106338    0.147211    1.271990
 H    0.660545    1.060538   -1.615039
 H   -1.562050    1.735903   -0.847697
 H   -1.391478   -0.523377   -1.665180
 H   -3.208706   -1.656952   -0.330777
 H   -3.585010    0.043787   -0.674060
 H   -3.002994   -0.430849    0.930959
 H    0.838069   -2.539492    1.210936
 H    3.014056   -0.734085    0.036706
 H    1.873920    2.426894   -0.098031
 H   -0.738474    2.078633    1.349082
