24 
1rdl_ligand_xtb.xyz
 C   -1.197752   -1.483895    0.011020
 C   -1.860781   -0.104975    0.117058
 C   -0.954909    0.957861   -0.511008
 C    0.450551    0.867725    0.097584
 C    0.989816   -0.554570   -0.098014
 C    2.342689   -0.755218    0.590120
 O   -1.275845   -1.883803   -1.324573
 O   -2.106432    0.177060    1.467067
 O   -1.526374    2.219568   -0.254997
 O    1.245000    1.845471   -0.530805
 O    0.120844   -1.510539    0.485537
 O    3.312220    0.059856   -0.037795
 H   -1.730571   -2.179044    0.677058
 H   -2.804889   -0.146046   -0.447262
 H   -0.883487    0.778666   -1.593684
 H    0.377647    1.069398    1.180068
 H    1.100013   -0.739590   -1.178120
 H    2.238474   -0.496292    1.651363
 H    2.609967   -1.815679    0.516033
 H   -0.873823   -2.757131   -1.410300
 H   -2.287995    1.127052    1.511736
 H   -0.855504    2.876040   -0.480435
 H    2.168533    1.561047   -0.474163
 H    4.168644   -0.100881    0.371679
