24 
1rdl_ligand_ani.xyz
 C   -1.219729   -1.480188    0.009668
 C   -1.853412   -0.100530    0.131429
 C   -0.952689    0.940987   -0.511860
 C    0.446206    0.840086    0.077616
 C    0.983981   -0.580009   -0.113731
 C    2.327369   -0.807288    0.558589
 O   -1.265331   -1.820414   -1.352589
 O   -2.015084    0.188541    1.501101
 O   -1.504824    2.211575   -0.224788
 O    1.217949    1.820953   -0.581354
 O    0.096396   -1.510101    0.507892
 O    3.273168    0.094059   -0.011498
 H   -1.784139   -2.200139    0.615002
 H   -2.820234   -0.123092   -0.393335
 H   -0.897384    0.770198   -1.597921
 H    0.381402    1.043878    1.160571
 H    1.068330   -0.785342   -1.192930
 H    2.206690   -0.626060    1.635650
 H    2.634172   -1.849700    0.409387
 H   -0.809539   -2.667289   -1.453579
 H   -2.196477    1.139809    1.534190
 H   -0.806961    2.856392   -0.416424
 H    2.151315    1.577729   -0.459240
 H    4.064286    0.108358    0.538257
