30 
1rdn_ligand_ani.xyz
 C   -0.223785   -1.449314   -0.365645
 C    0.766867   -0.285771   -0.437401
 C    0.242123    0.952403    0.313507
 C   -1.208271    1.235220   -0.057495
 C   -2.050306   -0.009334    0.142045
 C   -3.503741    0.161976   -0.268188
 C    3.211096   -0.142748   -0.162089
 C    4.450709   -0.794225    0.404974
 N    2.035448   -0.759891    0.090381
 O   -0.153771   -1.988042    0.939310
 O    0.946692    2.130216   -0.002771
 O   -1.716934    2.276961    0.741276
 O   -1.529218   -1.055886   -0.691917
 O   -4.233554   -1.024584   -0.059307
 O    3.274510    0.901829   -0.813827
 H    0.057206   -2.217164   -1.099787
 H    0.916766    0.005411   -1.483198
 H    0.295258    0.751359    1.396812
 H   -1.235255    1.504903   -1.128211
 H   -2.004844   -0.318651    1.196920
 H   -3.544770    0.481179   -1.323416
 H   -3.966707    0.944405    0.338467
 H    4.817988   -0.187526    1.238965
 H    4.282403   -1.816807    0.754392
 H    5.224342   -0.791874   -0.366606
 H    2.001015   -1.541917    0.731510
 H   -0.879379   -2.620928    1.020337
 H    1.841361    1.893355   -0.320787
 H   -1.094040    3.012170    0.648795
 H   -3.769442   -1.711879   -0.557214
