62 
1re8_ligand_xtb.xyz
 O    9.578986   -2.493027    0.818741
 C    8.396690   -1.966731    0.457498
 C    7.845163   -2.362045   -0.763307
 C    6.638373   -1.845719   -1.169921
 C    5.938032   -0.933940   -0.373019
 C    6.497847   -0.535570    0.840991
 C    7.713243   -1.043638    1.249213
 C    4.653417   -0.437326   -0.888694
 O    4.304805   -0.541714   -2.050329
 N    3.840610    0.216026    0.019919
 C    2.485896    0.547213   -0.368910
 C    1.745588    1.207521    0.807497
 C    2.216486    2.640977    1.108070
 C    1.407533    3.720016    0.386394
 C    1.568816    3.717635   -1.128332
 N    1.352098    2.357600   -1.692584
 C    2.540708    1.466282   -1.605248
 O    0.342235    1.197286    0.519101
 C   -0.437457    0.302400    1.223798
 O    0.051014   -0.463829    2.005626
 C   -1.860303    0.419338    0.887957
 C   -2.742138   -0.478333    1.495730
 C   -4.093054   -0.417948    1.226160
 C   -4.583500    0.540333    0.343232
 C   -3.709875    1.451790   -0.243996
 C   -2.358180    1.390734    0.017266
 C   -6.049333    0.683743    0.082011
 O   -6.558583    1.782942    0.052345
 C   -6.822199   -0.561118   -0.092877
 C   -8.153194   -0.574731    0.326655
 C   -8.930285   -1.706424    0.195648
 C   -8.388724   -2.842118   -0.387538
 C   -7.082790   -2.837240   -0.841440
 C   -6.286807   -1.706262   -0.701877
 O   -5.014449   -1.678207   -1.183587
 H    9.869850   -2.152224    1.674563
 H    8.386777   -3.070344   -1.368457
 H    6.204260   -2.138914   -2.113057
 H    6.009237    0.196635    1.467308
 H    8.143273   -0.723303    2.188502
 H    3.985076    0.011010    0.996224
 H    1.934836   -0.369627   -0.637284
 H    1.895686    0.574796    1.692970
 H    3.275466    2.716915    0.861122
 H    2.113127    2.821831    2.178078
 H    1.722168    4.696076    0.755178
 H    0.354251    3.600103    0.644564
 H    2.567458    4.052691   -1.414247
 H    0.840907    4.402226   -1.567980
 H    1.058586    2.431972   -2.668899
 H    0.595169    1.907512   -1.136891
 H    2.621976    0.841866   -2.495894
 H    3.446434    2.072036   -1.554669
 H   -2.341998   -1.212823    2.177806
 H   -4.773641   -1.104827    1.705933
 H   -4.112965    2.206750   -0.901998
 H   -1.694066    2.112278   -0.435778
 H   -8.550748    0.325956    0.769194
 H   -9.952476   -1.706477    0.538466
 H   -8.986735   -3.733071   -0.500469
 H   -6.670423   -3.717727   -1.316247
 H   -4.822202   -2.517341   -1.622327
