86 
1rhk_ligand_ani.xyz
 C   -6.829145   -2.266740   -0.481059
 O   -6.614018   -2.455120    0.712100
 C   -8.217007   -2.273584   -1.074781
 N   -5.813743   -2.061889   -1.375988
 C   -4.472300   -1.815232   -0.894016
 C   -4.267000   -0.305640   -0.684555
 O   -4.836611    0.521879   -1.377383
 C   -3.434213   -2.376045   -1.872846
 C   -2.039463   -2.350435   -1.300028
 O   -1.099226   -2.149073   -2.196861
 O   -1.819068   -2.509050   -0.100641
 N   -3.401596    0.001611    0.322849
 C   -2.990828    1.346107    0.624526
 C   -1.627890    1.641492   -0.026738
 O   -0.838444    0.749802   -0.315584
 C   -2.913778    1.547341    2.148593
 C   -4.268455    1.358924    2.844853
 C   -4.758215   -0.070092    2.719241
 O   -5.974560   -0.147710    2.177226
 O   -4.105811   -1.027486    3.077631
 N   -1.325887    2.951824   -0.227155
 C   -0.072201    3.318514   -0.867640
 C    1.082341    2.732754   -0.040718
 O    1.247461    2.988130    1.142362
 C    0.051729    4.842202   -1.060103
 C    1.286411    5.167568   -1.902191
 C    0.071640    5.624386    0.254797
 N    1.912824    1.901771   -0.729535
 C    2.831478    1.012386   -0.043272
 C    3.748967    0.397071   -1.125654
 O    3.041910    0.040075   -2.297477
 C    2.124799    0.037110    0.917936
 C    1.153214   -0.968776    0.342981
 O    1.174855   -1.372790   -0.819548
 O    0.326137   -1.450429    1.240412
 C    4.607754   -0.751378   -0.602112
 C    5.599365   -1.240728   -1.655697
 C    6.510374   -2.372945   -1.157626
 C    7.367799   -1.978072    0.026092
 C    7.174164   -2.553388    1.283290
 C    7.950939   -2.172386    2.374721
 C    8.940522   -1.207300    2.221577
 C    9.145438   -0.626017    0.973408
 C    8.362279   -1.005465   -0.111400
 H   -8.928571   -2.566622   -0.302869
 H   -8.275077   -2.972726   -1.913871
 H   -8.480544   -1.276703   -1.444016
 H   -6.057226   -1.545684   -2.213991
 H   -4.377044   -2.341439    0.059196
 H   -3.691406   -3.421296   -2.073405
 H   -3.445123   -1.835496   -2.823653
 H   -0.234174   -2.035620   -1.732644
 H   -2.816941   -0.741514    0.683136
 H   -3.759112    2.006298    0.202473
 H   -2.533210    2.553824    2.358923
 H   -2.193364    0.832875    2.566421
 H   -5.024511    2.042538    2.447126
 H   -4.151788    1.559638    3.915414
 H   -6.167045   -1.088028    1.967020
 H   -2.009007    3.669439   -0.039629
 H   -0.049718    2.843202   -1.856982
 H   -0.840757    5.141390   -1.630380
 H    2.206885    4.908648   -1.365335
 H    1.283429    4.620424   -2.852061
 H    1.326156    6.237799   -2.132419
 H    0.072904    6.700844    0.052728
 H    0.964489    5.375539    0.835129
 H   -0.797699    5.399933    0.882174
 H    1.666891    1.609215   -1.667497
 H    3.462417    1.632038    0.603539
 H    4.417569    1.211265   -1.439791
 H    2.391293   -0.634661   -2.037327
 H    1.587380    0.626578    1.665800
 H    2.877613   -0.539449    1.472334
 H   -0.346049   -2.006090    0.775859
 H    3.956491   -1.586100   -0.302565
 H    5.139164   -0.410428    0.296754
 H    5.037857   -1.572195   -2.538510
 H    6.222705   -0.398191   -1.987467
 H    5.897003   -3.241697   -0.885485
 H    7.153571   -2.700253   -1.985821
 H    6.400868   -3.310348    1.407123
 H    7.782458   -2.633393    3.345560
 H    9.551262   -0.908855    3.070364
 H    9.917505    0.129334    0.844021
 H    8.527984   -0.542867   -1.083956
