36 
1rhq_ligand_ani.xyz
 C    3.443548    1.392775   -0.557075
 O    3.752892    0.886315   -1.625262
 C    4.081441    2.656574   -0.019133
 N    2.497572    0.843593    0.260933
 C    1.676670   -0.266297   -0.159448
 C    0.242208    0.023458    0.291536
 O    0.003504    0.778427    1.228016
 C    2.151372   -1.629190    0.408745
 C    2.222902   -1.627276    1.936451
 C    3.494465   -2.031016   -0.200868
 N   -0.739109   -0.620949   -0.383414
 C   -2.121736   -0.537685    0.022607
 C   -2.879672   -1.657621   -0.675741
 O   -2.346102   -2.364477   -1.499973
 C   -2.725907    0.831123   -0.301643
 C   -4.137969    0.959877    0.206401
 O   -4.719411    2.095662   -0.216971
 O   -4.706145    0.164598    0.918763
 H    3.324186    3.416604    0.204074
 H    4.630844    2.447313    0.905325
 H    4.772849    3.047353   -0.766089
 H    2.120078    1.382087    1.031521
 H    1.727710   -0.320124   -1.253056
 H    1.397073   -2.368738    0.096154
 H    2.460592   -2.630407    2.306242
 H    3.009188   -0.946621    2.281885
 H    1.279258   -1.308599    2.391380
 H    3.460584   -2.014470   -1.295714
 H    3.775366   -3.039614    0.119979
 H    4.287400   -1.342945    0.113259
 H   -0.531578   -1.299767   -1.105071
 H   -2.215586   -0.691088    1.103352
 H   -3.935551   -1.797403   -0.392427
 H   -2.116932    1.601392    0.183459
 H   -2.702813    1.031240   -1.377797
 H   -5.613749    2.102753    0.163321
