87 
1riw_ligand_ani.xyz
 N   -1.319893   -1.880533   -0.732864
 C   -0.642803   -2.909942    0.049064
 C   -2.691628   -2.258680   -1.068938
 C   -0.741862   -0.768345   -1.269222
 C   -1.569292   -4.158972   -0.023117
 C   -0.369282   -2.467981    1.492850
 C   -2.627878   -3.793290   -1.081187
 C   -3.766168   -1.757809   -0.087746
 C    0.802765   -0.727720   -1.273524
 O   -1.436914    0.133169   -1.730893
 C   -2.158168   -4.487601    1.352815
 C    0.072177   -3.672993    2.325495
 N   -3.467340   -0.666287    0.667224
 O   -4.840813   -2.336825   -0.002363
 C    1.424766   -1.656616   -2.336200
 N    1.309652    0.610342   -1.418933
 C   -1.065897   -4.705701    2.411995
 O    1.194431   -4.315200    1.719260
 C   -4.484276   -0.080732    1.527580
 C    2.868174   -1.974261   -2.008253
 C    1.230706    1.470598   -0.368445
 C   -5.342290    0.971242    0.809703
 C    3.905635   -1.190572   -2.518195
 C    3.191402   -3.023270   -1.141129
 C    1.801255    2.863246   -0.655388
 O    0.794198    1.140841    0.725066
 C   -4.558941    2.197518    0.430744
 C    5.231308   -1.453326   -2.185086
 C    4.516243   -3.288540   -0.804221
 C    3.310538    2.918436   -0.361600
 O    1.636529    3.195950   -2.013978
 C   -3.613534    2.310738   -0.549607
 C   -4.577865    3.448772    1.123659
 C    5.540066   -2.503576   -1.327355
 C    3.690843    2.735561    1.088898
 N   -3.048877    3.580276   -0.491666
 C   -3.652840    4.270392    0.550182
 C    3.947459    1.467114    1.615030
 C    3.796194    3.842220    1.934127
 C   -1.977761    4.019792   -1.281139
 C    4.301171    1.308061    2.951747
 C    4.147905    3.687777    3.272162
 N   -1.868378    5.394052   -1.360147
 N   -1.121042    3.257912   -1.848953
 C    4.402822    2.419093    3.783534
 H    0.312864   -3.168763   -0.415529
 H   -2.943638   -1.840313   -2.050220
 H   -0.976216   -5.019543   -0.354500
 H   -1.276518   -2.052024    1.939465
 H    0.385523   -1.668637    1.519627
 H   -3.609090   -4.229534   -0.887590
 H   -2.292589   -4.123569   -2.069703
 H    1.146624   -1.062618   -0.292119
 H   -2.823217   -3.669626    1.660121
 H   -2.786174   -5.384161    1.284769
 H    0.345603   -3.343292    3.339258
 H   -2.684581   -0.089278    0.386870
 H    1.339494   -1.175424   -3.318261
 H    0.844671   -2.584208   -2.406058
 H    1.375667    1.021538   -2.339511
 H   -1.525692   -4.679877    3.406777
 H   -0.603044   -5.688937    2.285728
 H    1.929015   -3.687593    1.732788
 H   -5.121687   -0.899206    1.869842
 H   -3.992743    0.359336    2.402545
 H   -5.793295    0.500355   -0.073998
 H   -6.173582    1.255073    1.466869
 H    3.671055   -0.358747   -3.181353
 H    2.402203   -3.643299   -0.713893
 H    1.262485    3.565381   -0.000854
 H    6.025494   -0.836177   -2.598527
 H    4.751383   -4.109039   -0.129837
 H    3.662707    3.886502   -0.733590
 H    3.789358    2.151847   -0.983253
 H    0.671896    3.371628   -2.128524
 H   -3.264254    1.596263   -1.290772
 H   -5.210409    3.687381    1.970631
 H    6.574413   -2.709888   -1.064689
 H   -3.323072    5.270106    0.801356
 H    3.860903    0.593547    0.970250
 H    3.613048    4.841159    1.541002
 H    4.500126    0.314137    3.345841
 H    4.227750    4.561471    3.914699
 H   -1.173258    5.678743   -2.038923
 H   -2.740983    5.896527   -1.461442
 H   -1.272431    2.258498   -1.687676
 H    4.680226    2.296664    4.827625
