41 
1rmz_ligand_dft.xyz
 C   -1.638955   -1.295132   -0.916588
 C   -2.919573   -1.377144   -0.378893
 C   -3.478576   -0.257020    0.241220
 C   -2.750636    0.939458    0.311509
 C   -1.479971    1.017347   -0.223303
 C   -0.920700   -0.108367   -0.836424
 O   -4.707249   -0.223400    0.796139
 C   -5.496958   -1.394362    0.751046
 S    0.726577   -0.059792   -1.505959
 O    0.943506    1.238907   -2.142649
 O    0.904102   -1.290219   -2.257185
 N    1.765816   -0.088840   -0.206469
 C    1.595664   -1.120662    0.820451
 C    2.493186    1.124013    0.146836
 C    1.604061    2.143046    0.838905
 N    1.221394    3.187057    0.059754
 O    0.186133    3.961249    0.577542
 O    1.229415    2.056635    2.005018
 C    2.847667   -1.980758    1.024277
 C    3.226769   -2.729485   -0.252144
 C    2.611088   -2.939666    2.193243
 H   -1.197259   -2.152936   -1.412130
 H   -3.465479   -2.309728   -0.455457
 H   -3.209211    1.798892    0.787743
 H   -0.945663    1.958974   -0.167752
 H   -5.705659   -1.695846   -0.282679
 H   -5.013986   -2.222790    1.283642
 H   -6.432884   -1.141942    1.249425
 H    0.767939   -1.771548    0.519708
 H    1.296954   -0.633859    1.757324
 H    2.961155    1.545817   -0.743897
 H    3.284111    0.836373    0.842938
 H    1.101670    3.030363   -0.937188
 H    0.132430    3.616729    1.494514
 H    3.679867   -1.316624    1.298762
 H    2.432582   -3.428845   -0.539741
 H    3.373030   -2.041744   -1.089194
 H    4.148189   -3.303017   -0.105348
 H    2.365674   -2.400305    3.114888
 H    1.783394   -3.624959    1.971381
 H    3.501772   -3.546822    2.383670
