60 
1ros_ligand_xtb.xyz
 N    2.399088   -2.249859   -0.447721
 C    1.450444   -1.706732   -1.305607
 C    0.142778   -1.935053   -0.644637
 C    0.379511   -2.589876    0.567222
 C   -0.659600   -2.940213    1.403816
 C   -1.951896   -2.619128    0.998425
 C   -2.186109   -1.969989   -0.203301
 C   -1.136990   -1.615489   -1.045671
 C    1.843867   -2.780452    0.708721
 O    2.469210   -3.274684    1.612114
 O    1.696673   -1.173981   -2.357742
 C    3.824666   -2.192029   -0.695608
 C    4.501975   -1.143936    0.190875
 C    3.904357    0.241194   -0.050201
 C    4.210859    1.233480    1.085009
 C    3.291960    2.442214    1.004535
 O    3.720868    3.570053    0.937115
 C    1.840340    2.139899    0.964510
 C    1.016489    2.983875    0.221448
 C   -0.325584    2.706043    0.070683
 C   -0.894225    1.587739    0.679761
 C   -0.077648    0.772947    1.464596
 C    1.269487    1.035194    1.597749
 C   -2.312065    1.262140    0.494475
 C   -2.926290    1.440448   -0.740836
 C   -4.254363    1.110925   -0.941775
 C   -5.010253    0.596791    0.107665
 C   -4.403351    0.425166    1.354968
 C   -3.078943    0.747996    1.541282
 O   -6.313922    0.230327    0.028157
 C   -7.007941    0.407067   -1.191961
 C   -8.438883   -0.061371   -0.981292
 C    4.417967    0.839862   -1.348102
 O    5.432637    0.527472   -1.907993
 O    3.601596    1.796822   -1.790573
 H   -0.469829   -3.445894    2.337966
 H   -2.787508   -2.877636    1.631160
 H   -3.199450   -1.731724   -0.487468
 H   -1.312505   -1.107582   -1.980571
 H    3.957118   -1.943576   -1.750764
 H    4.249589   -3.178072   -0.492286
 H    4.371140   -1.430831    1.235232
 H    5.567683   -1.127902   -0.039009
 H    2.817723    0.165297   -0.146354
 H    4.058793    0.739663    2.046789
 H    5.247988    1.570136    1.033924
 H    1.459655    3.847452   -0.250485
 H   -0.947713    3.369972   -0.510681
 H   -0.501915   -0.092531    1.951863
 H    1.870574    0.382262    2.213551
 H   -2.350776    1.820320   -1.571934
 H   -4.687869    1.257215   -1.918781
 H   -5.002221    0.037170    2.163837
 H   -2.635541    0.624956    2.517891
 H   -6.529766   -0.182351   -1.987030
 H   -6.993933    1.466425   -1.482801
 H   -9.007200    0.063244   -1.898467
 H   -8.448369   -1.109358   -0.694586
 H   -8.905800    0.518193   -0.189834
 H    3.946667    2.193828   -2.606226
