21 
1rq2_ligand_xtb.xyz
 C    2.562312    0.237639   -0.265011
 O    3.276501    0.592173   -1.155803
 O    2.659046    0.729113    0.967572
 C    1.471320   -0.822143   -0.451575
 C    0.108476   -0.362224    0.096108
 O    0.202086   -0.253241    1.507167
 C   -0.349066    0.951431   -0.569928
 C   -1.704069    1.313031    0.015095
 O   -2.715655    1.481837   -0.816532
 O   -1.849615    1.412558    1.210275
 C   -0.932826   -1.461856   -0.257317
 O   -1.466976   -1.507779   -1.329056
 O   -1.150317   -2.316559    0.724945
 H    1.946631    0.388909    1.546347
 H    1.782763   -1.722661    0.085493
 H    1.388619   -1.059069   -1.511938
 H   -0.494960    0.372372    1.806005
 H   -0.387207    0.804419   -1.648966
 H    0.361468    1.748838   -0.338042
 H   -2.512586    1.258455   -1.736141
 H   -0.662176   -2.031350    1.524466
