28 
1rri_ligand_xtb.xyz
 N   -5.070381   -2.130137    0.025627
 C   -4.062255   -1.227489    0.053930
 N   -4.419394    0.100244    0.010266
 C   -3.536794    1.190629   -0.029648
 O   -3.963475    2.319255   -0.070728
 C   -2.175570    0.712032   -0.009173
 N   -1.013414    1.353625   -0.029976
 N   -0.115297    0.398688    0.001976
 N   -0.580798   -0.839187    0.044966
 C   -1.897295   -0.688906    0.038481
 N   -2.840838   -1.656542    0.076817
 C    1.249081    0.671628   -0.011855
 C    1.682375    1.994783   -0.011535
 C    3.038107    2.261246   -0.035928
 C    3.958584    1.225578   -0.041022
 C    3.521010   -0.098191   -0.032756
 C    2.159206   -0.376072   -0.031832
 C    4.465974   -1.258045   -0.061259
 O    4.175656   -2.324428   -0.523179
 O    5.681661   -1.045467    0.474633
 H   -4.802988   -3.087943    0.173978
 H   -6.008107   -1.856524    0.259750
 H   -5.401604    0.346253   -0.022827
 H    0.950898    2.786583   -0.000746
 H    3.382275    3.283907   -0.051441
 H    5.012850    1.463297   -0.091197
 H    1.812659   -1.397190   -0.044598
 H    5.769593   -0.163264    0.859131
