19 
1rrw_ligand_ani.xyz
 C   -2.743180   -1.596590    0.003086
 N   -1.932872   -0.391692    0.000124
 C   -2.353367    0.919424   -0.011050
 N   -1.377346    1.782312   -0.014150
 C   -0.240301    1.011252   -0.006148
 C    1.153355    1.390729    0.000777
 O    1.665139    2.489723    0.014683
 N    1.967528    0.226806   -0.008496
 C    1.518135   -1.072639    0.005495
 N    2.488706   -2.038935    0.059080
 N    0.260437   -1.416397    0.017510
 C   -0.565023   -0.338009    0.003824
 H   -3.369511   -1.631395    0.899002
 H   -3.379691   -1.626298   -0.885627
 H   -2.072309   -2.458350   -0.002915
 H   -3.409366    1.165099   -0.016212
 H    2.958501    0.430055    0.059209
 H    2.129521   -2.969069   -0.108155
 H    3.358870   -1.847489   -0.417146
