19 
1rrw_ligand_xtb.xyz
 C   -2.739991   -1.577129   -0.003693
 N   -1.933655   -0.389940   -0.000768
 C   -2.349996    0.914742    0.003219
 N   -1.374930    1.768800    0.003776
 C   -0.233440    1.014356    0.000576
 C    1.148722    1.391415   -0.000553
 O    1.687329    2.472599   -0.001814
 N    1.958586    0.223924   -0.006070
 C    1.520897   -1.066326   -0.002606
 N    2.461015   -2.046895    0.062429
 N    0.262866   -1.400930   -0.008694
 C   -0.577824   -0.339945   -0.001166
 H   -3.369361   -1.613608    0.887541
 H   -3.377872   -1.603229   -0.889305
 H   -2.069637   -2.434628   -0.011401
 H   -3.388298    1.180940    0.005810
 H    2.954487    0.408408    0.015219
 H    2.123243   -2.981350   -0.092763
 H    3.401433   -1.844728   -0.229973
