23 
1rs2_ligand_xtb.xyz
 N    1.713804   -0.639077    0.000034
 C    0.601125   -1.501098   -0.002256
 C   -0.622189   -0.764150   -0.003119
 C   -0.659613    0.606950   -0.001955
 N    0.464852    1.366716   -0.002213
 C    1.707256    0.735676   -0.000257
 N   -1.937018   -1.213392   -0.002067
 C   -2.794880   -0.153220    0.001131
 N   -1.967958    0.995703   -0.000090
 N   -4.052796   -0.244961    0.004714
 C    0.470825    2.814861   -0.001244
 C    3.033376   -1.249871    0.004953
 O    2.724365    1.392775    0.001286
 O    0.728265   -2.709264   -0.002519
 H   -2.225617   -2.174207   -0.001078
 H   -2.320247    1.936984    0.002134
 H   -4.554513    0.632909    0.007163
 H    0.993072    3.177440    0.885295
 H    1.006720    3.177729   -0.879409
 H   -0.546596    3.193168   -0.009173
 H    3.589222   -0.937482   -0.878412
 H    3.582747   -0.936338    0.892003
 H    2.892575   -2.328107    0.005174
