42 
1rs4_ligand_dft.xyz
 N    6.793044    3.489314   -0.426595
 C    6.163073    2.308777   -0.129929
 N    6.961072    1.347590    0.465156
 C    6.565017    0.039794    0.819588
 O    7.343585   -0.734170    1.328854
 C    5.170556   -0.143149    0.458214
 N    4.383695   -1.208845    0.595650
 N    3.243204   -0.795944    0.080008
 N    3.206375    0.456592   -0.389162
 C    4.442093    0.895846   -0.157005
 N    4.915566    2.144760   -0.448557
 C    2.098580   -1.638884    0.026262
 C    2.149326   -2.904656    0.602042
 C    1.026691   -3.721080    0.524706
 C   -0.128052   -3.278815   -0.109172
 C   -0.171420   -2.000275   -0.665808
 C    0.952045   -1.177273   -0.609943
 C   -1.448734   -1.576412   -1.332146
 O   -2.250575   -2.396860   -1.757488
 N   -1.652467   -0.230259   -1.431818
 C   -2.870693    0.307924   -2.011226
 C   -3.955030    0.568471   -0.984575
 C   -4.571246   -0.509077   -0.342670
 C   -5.545141   -0.260218    0.613070
Cl   -6.319236   -1.601998    1.418871
 C   -5.931203    1.034407    0.950196
 C   -5.308004    2.088170    0.297094
Cl   -5.768769    3.725328    0.695196
 C   -4.325218    1.871622   -0.663690
 H    6.154017    4.209254   -0.733711
 H    7.514832    3.813511    0.200460
 H    7.946522    1.532057    0.603394
 H    3.057488   -3.236039    1.091081
 H    1.058555   -4.712234    0.965063
 H   -1.006483   -3.909986   -0.186040
 H    0.974123   -0.199367   -1.076528
 H   -1.099193    0.384819   -0.854425
 H   -3.216122   -0.422172   -2.746336
 H   -2.622542    1.232616   -2.541129
 H   -4.286017   -1.525060   -0.595608
 H   -6.695178    1.212586    1.697257
 H   -3.857269    2.718146   -1.156355
