42 
1rs4_ligand_xtb.xyz
 N    6.603901    3.609574   -0.310761
 C    6.037594    2.409440   -0.040484
 N    6.841164    1.469258    0.559052
 C    6.476622    0.149168    0.871309
 O    7.270348   -0.592360    1.397723
 C    5.110321   -0.080972    0.471712
 N    4.332884   -1.155171    0.558602
 N    3.196491   -0.777506    0.031633
 N    3.141372    0.472138   -0.404544
 C    4.347981    0.956939   -0.143938
 N    4.808486    2.204399   -0.393852
 C    2.103479   -1.635693   -0.068593
 C    2.185873   -2.921608    0.455421
 C    1.099414   -3.767763    0.331873
 C   -0.053798   -3.335029   -0.299401
 C   -0.140349   -2.039987   -0.805678
 C    0.948988   -1.186178   -0.697121
 C   -1.409063   -1.642308   -1.487758
 O   -2.124872   -2.448223   -2.048726
 N   -1.697911   -0.319018   -1.435719
 C   -2.914489    0.218163   -2.003610
 C   -3.948704    0.508374   -0.945118
 C   -4.357238   -0.517637   -0.101014
 C   -5.292487   -0.260906    0.886275
Cl   -5.794867   -1.533223    1.935503
 C   -5.838904    1.003628    1.047923
 C   -5.425437    2.013264    0.195121
Cl   -6.095265    3.592998    0.373682
 C   -4.482522    1.779801   -0.794139
 H    5.977949    4.326091   -0.635559
 H    7.444573    3.892980    0.160605
 H    7.798228    1.710899    0.787007
 H    3.097831   -3.233737    0.938231
 H    1.154445   -4.770593    0.726099
 H   -0.903706   -3.989942   -0.415454
 H    0.950201   -0.190928   -1.112938
 H   -1.145772    0.290677   -0.854907
 H   -3.293301   -0.549815   -2.686280
 H   -2.682171    1.123619   -2.570269
 H   -3.952619   -1.509789   -0.225145
 H   -6.569437    1.194447    1.816781
 H   -4.176182    2.584661   -1.443847
