42 
1rs4_ligand_ani.xyz
 N    6.956975    3.211411   -0.752208
 C    6.261261    2.091043   -0.369797
 N    6.940686    1.251862    0.503600
 C    6.428087    0.069310    1.081014
 O    7.077627   -0.590293    1.859271
 C    5.078892   -0.153546    0.583779
 N    4.228417   -1.144277    0.828155
 N    3.175876   -0.805832    0.117502
 N    3.252670    0.318113   -0.575577
 C    4.474007    0.766006   -0.299756
 N    5.049019    1.908852   -0.787100
 C    2.014679   -1.614065    0.071352
 C    2.009541   -2.839285    0.734965
 C    0.874429   -3.638086    0.664928
 C   -0.242592   -3.207907   -0.044599
 C   -0.236848   -1.963441   -0.672684
 C    0.906127   -1.167251   -0.634987
 C   -1.485119   -1.536699   -1.388673
 O   -2.301048   -2.345730   -1.804993
 N   -1.638673   -0.186077   -1.528735
 C   -2.866286    0.367220   -2.078306
 C   -3.924709    0.630120   -1.025169
 C   -4.634594   -0.443367   -0.485236
 C   -5.579574   -0.205412    0.502432
Cl   -6.466594   -1.541100    1.173597
 C   -5.838052    1.076375    0.972949
 C   -5.117834    2.129520    0.426135
Cl   -5.415976    3.745351    0.994845
 C   -4.166671    1.922695   -0.565422
 H    6.503465    3.712723   -1.504306
 H    7.953668    3.110538   -0.878987
 H    7.853411    1.518402    0.853891
 H    2.894594   -3.144899    1.283085
 H    0.864663   -4.601965    1.166078
 H   -1.134546   -3.821538   -0.123284
 H    0.970732   -0.229449   -1.178095
 H   -1.098923    0.406141   -0.914461
 H   -3.234143   -0.362508   -2.803402
 H   -2.622282    1.288667   -2.615222
 H   -4.443344   -1.454151   -0.832692
 H   -6.579924    1.247910    1.745695
 H   -3.619575    2.768305   -0.973038
