44 
1rt1_ligand_ani.xyz
 C   -2.024333   -0.685379    0.240257
 C   -2.878989   -1.608431    0.850633
 C   -4.041033   -2.040907    0.218552
 C   -4.368504   -1.561244   -1.046177
 C   -3.524657   -0.648071   -1.669536
 C   -2.363779   -0.213630   -1.032499
 C    0.267755    0.496471    0.210683
 N    1.095327   -0.341245   -0.556538
 C    2.175170    0.141214   -1.300065
 O    2.909630   -0.573633   -1.956337
 N    2.349048    1.498096   -1.231008
 C    1.562569    2.428044   -0.558349
 O    1.847358    3.611805   -0.620233
 C    0.424148    1.850796    0.174994
 C   -0.787034   -0.221554    1.015012
 C   -0.454178    2.869723    0.872112
 C   -0.211418    2.947283    2.391582
 C   -1.956123    2.760515    0.557734
 C    0.921786   -1.799111   -0.558911
 O    1.428936   -2.427695    0.578633
 C    2.848926   -2.509193    0.652079
 C    3.199574   -3.635152    1.603922
 H   -2.629574   -1.991974    1.839000
 H   -4.691775   -2.756428    0.716283
 H   -5.274269   -1.897962   -1.543005
 H   -3.765220   -0.268565   -2.659287
 H   -1.712293    0.499397   -1.535226
 H    3.127374    1.866106   -1.762381
 H   -0.339799   -1.101028    1.492672
 H   -1.115195    0.411199    1.845336
 H   -0.118698    3.829552    0.465756
 H   -0.495414    2.027950    2.915183
 H    0.845046    3.139246    2.608305
 H   -0.799351    3.768260    2.816893
 H   -2.128414    2.731588   -0.524382
 H   -2.427023    1.873973    0.992614
 H   -2.473882    3.639120    0.957729
 H    1.413726   -2.164949   -1.462397
 H   -0.142794   -2.014038   -0.599623
 H    3.257458   -1.554674    1.012869
 H    3.264049   -2.691170   -0.349680
 H    2.778706   -3.439500    2.594515
 H    2.803622   -4.588474    1.240549
 H    4.286423   -3.727642    1.702462
