51 
1rt2_ligand_ani.xyz
 C    1.818976    1.983635    0.416222
 C    1.468043    3.246890    0.901599
 C    2.089078    4.399329    0.430160
 C    3.078730    4.308475   -0.543499
 C    3.437738    3.058338   -1.036955
 C    2.813653    1.906289   -0.563381
 C    1.179204   -0.489716    0.163826
 N    0.248045   -0.587956   -0.875139
 C    0.001445   -1.799169   -1.525521
 O   -0.862730   -1.939257   -2.368526
 N    0.825174   -2.823133   -1.128397
 C    1.916789   -2.770987   -0.255077
 O    2.586111   -3.775443   -0.075144
 C    2.118697   -1.456141    0.357999
 C    1.109527    0.760750    0.999959
 C    3.350266   -1.266642    1.211673
 C    3.297117   -2.134280    2.476553
 C    4.641991   -1.550962    0.435907
 C   -0.644261    0.507140   -1.218008
 O   -1.755703    0.470076   -0.363106
 C   -2.930782    1.089392   -0.861110
 C   -4.122417    0.528165   -0.120189
 C   -4.196927   -0.841731    0.129575
 C   -5.301857   -1.377439    0.781891
 C   -6.340434   -0.545544    1.194562
 C   -6.271238    0.822314    0.947502
 C   -5.165741    1.354281    0.289205
 H    0.695146    3.326097    1.664608
 H    1.797050    5.370634    0.823396
 H    3.566095    5.205955   -0.915170
 H    4.206910    2.974449   -1.800192
 H    3.105432    0.943044   -0.981452
 H    0.661955   -3.709269   -1.587063
 H    0.058973    1.017059    1.175162
 H    1.523172    0.547506    1.994189
 H    3.390756   -0.211073    1.519838
 H    2.399735   -1.912892    3.066793
 H    3.273399   -3.191332    2.198535
 H    4.176448   -1.949769    3.103622
 H    4.666239   -2.593081    0.110016
 H    4.710562   -0.907692   -0.449865
 H    5.515247   -1.354592    1.068161
 H   -0.941462    0.356098   -2.259977
 H   -0.107022    1.454550   -1.113979
 H   -3.032878    0.888796   -1.941638
 H   -2.882307    2.180740   -0.726621
 H   -3.377836   -1.482661   -0.190143
 H   -5.353159   -2.447614    0.972605
 H   -7.202386   -0.964817    1.707434
 H   -7.079494    1.475766    1.267819
 H   -5.110117    2.424399    0.095517
