36 
1rth_ligand_xtb.xyz
 N   -2.356029   -2.003694   -0.012959
 C   -3.499683   -2.093832   -0.661153
 C   -4.117437   -1.010453   -1.262075
 C   -3.548519    0.231355   -1.045920
 C   -2.352961    0.353947   -0.340454
 C   -2.024302    1.720511    0.119728
 O   -2.906167    2.549019    0.243772
 N   -0.737250    2.035180    0.468889
 C   -0.562303    3.367523    1.024610
 C    0.414266    1.326106    0.114680
 C    1.501981    2.068296   -0.355788
 C    2.740138    1.503495   -0.567423
 C    2.897397    0.156169   -0.280525
 N    4.181858   -0.466212   -0.430457
 O    4.267718   -1.653429   -0.188137
 O    5.106864    0.231469   -0.791974
 C    1.821461   -0.613449    0.140201
 C    0.554366   -0.065070    0.313787
 N   -0.501278   -0.885661    0.721018
 C   -0.196782   -2.101172    1.470121
 C    0.074161   -3.367098    0.655143
 C   -1.737440   -0.831703    0.103788
 H   -3.928530   -3.086767   -0.698243
 H   -5.029425   -1.123435   -1.824177
 H   -4.033602    1.135869   -1.381680
 H    0.360992    3.402924    1.598014
 H   -0.554878    4.136876    0.249405
 H   -1.412220    3.565487    1.677165
 H    1.369912    3.119499   -0.550937
 H    3.574706    2.083084   -0.926991
 H    2.014701   -1.652923    0.340004
 H   -1.066545   -2.289564    2.104439
 H    0.655702   -1.871833    2.113932
 H   -0.829792   -3.670148    0.138310
 H    0.859305   -3.231349   -0.082206
 H    0.375163   -4.159226    1.335919
