36 
1rth_ligand_ani.xyz
 N   -2.418662   -2.023168    0.031637
 C   -3.593224   -2.103255   -0.578008
 C   -4.253735   -1.000404   -1.098816
 C   -3.652750    0.232189   -0.915849
 C   -2.406754    0.344765   -0.291805
 C   -2.011441    1.743989    0.050158
 O   -2.834246    2.644265   -0.033640
 N   -0.741171    2.037554    0.505938
 C   -0.606975    3.378199    1.083215
 C    0.432910    1.327194    0.154755
 C    1.524536    2.082021   -0.299408
 C    2.767406    1.526289   -0.535554
 C    2.917023    0.177281   -0.257427
 N    4.226913   -0.458788   -0.419961
 O    4.329514   -1.633261   -0.106095
 O    5.137298    0.224583   -0.858959
 C    1.867160   -0.601294    0.183210
 C    0.576098   -0.071950    0.315732
 N   -0.489912   -0.941249    0.647418
 C   -0.168290   -2.186729    1.361046
 C    0.148893   -3.394632    0.475554
 C   -1.765460   -0.855609    0.108574
 H   -4.031407   -3.096915   -0.648543
 H   -5.216255   -1.096880   -1.590387
 H   -4.140283    1.150012   -1.231367
 H    0.344142    3.450625    1.613754
 H   -0.669849    4.158833    0.314550
 H   -1.421544    3.544164    1.788849
 H    1.384128    3.144361   -0.467269
 H    3.606166    2.113680   -0.887549
 H    2.078060   -1.635099    0.408986
 H   -1.031064   -2.426628    1.986319
 H    0.670774   -1.964461    2.027736
 H   -0.736050   -3.686855   -0.090629
 H    0.958176   -3.194669   -0.234663
 H    0.451918   -4.233632    1.112279
