70 
1rtl_ligand_ani.xyz
 O    2.421313    0.449856   -1.253213
 C   -3.179213    5.367094   -0.339007
 C   -2.199484    4.993884    0.716013
 C   -2.278260    4.176514   -0.550355
 C    2.905374   -0.154875   -0.307341
 N    3.938804    0.338591    0.459955
 C    4.633352    1.547948    0.036893
 C    5.857621    1.256637   -0.849944
 C    6.983157    0.874900    0.135102
 C    6.600771    1.532958    1.488100
 C    5.259875    2.259305    1.240979
 N    2.475162   -1.421161    0.089350
 C    1.245914   -1.885158   -0.528855
 C    1.153205   -3.425067   -0.549449
 C    2.247586   -4.007240   -1.444010
 C    1.207591   -4.045739    0.848264
 C    0.045608   -1.250204    0.199384
 O    0.120845   -1.002656    1.395871
 N   -1.080918   -0.998767   -0.533772
 C   -2.219977   -0.301786    0.077135
 C   -2.867490    0.471218   -1.099237
 C   -2.472801   -0.342232   -2.333839
 C   -1.094377   -0.923551   -1.998806
 N   -2.374267    1.839371   -1.187578
 C   -2.917656    2.832249   -0.425512
 O   -3.869106    2.636739    0.320915
 C   -3.192747   -1.268216    0.777332
 C   -3.526669   -2.437304   -0.121863
 O   -4.531636   -2.526754   -0.788603
 C   -4.455893   -0.649974    1.419923
 C   -4.193541   -1.484638    2.692049
 C   -2.760415   -1.756628    2.185916
 H   -4.223179    5.137759   -0.148605
 H   -2.990786    6.251446   -0.939974
 H   -2.593052    4.516204    1.607812
 H   -1.319813    5.613318    0.861233
 H   -1.470224    4.265827   -1.272687
 H    4.466884   -0.337682    0.995278
 H    3.890226    2.155727   -0.481607
 H    6.121683    2.174722   -1.390716
 H    5.648808    0.485808   -1.599068
 H    7.958970    1.212292   -0.228594
 H    7.052682   -0.212827    0.243365
 H    7.367582    2.230700    1.839774
 H    6.494152    0.772037    2.268228
 H    4.591298    2.248224    2.107985
 H    5.441414    3.309924    0.980065
 H    2.470529   -1.539864    1.098457
 H    1.290425   -1.543371   -1.564633
 H    0.176417   -3.669902   -0.993604
 H    2.175580   -3.629761   -2.470658
 H    3.237003   -3.744949   -1.053868
 H    2.172393   -5.099371   -1.482461
 H    1.028316   -5.124985    0.790059
 H    0.458961   -3.609982    1.518617
 H    2.195804   -3.901746    1.302023
 H   -1.845141    0.401417    0.829297
 H   -3.948898    0.543458   -0.981590
 H   -2.469623    0.266285   -3.241771
 H   -3.190034   -1.154910   -2.468796
 H   -0.283323   -0.272502   -2.356573
 H   -0.947328   -1.916939   -2.439905
 H   -1.517603    2.010843   -1.692120
 H   -2.757591   -3.240699   -0.144629
 H   -5.387391   -0.852027    0.882764
 H   -4.342999    0.428190    1.567828
 H   -4.277996   -0.961202    3.648588
 H   -4.808898   -2.388358    2.733656
 H   -2.374106   -2.781371    2.240351
 H   -2.023109   -1.086043    2.627805
