59 
1rww_ligand_xtb.xyz
 O   -9.222567   -3.596092   -0.596907
 C   -8.852124   -3.198329    0.474487
 O   -9.224453   -3.758763    1.626437
 C   -7.924263   -2.033915    0.706097
 C   -7.613250   -1.264990   -0.589738
 C   -8.839853   -0.551912   -1.108627
 O   -8.880208    0.629223   -1.316183
 N   -6.569128   -0.290621   -0.392370
 C   -5.308102   -0.607334   -0.021220
 O   -4.965963   -1.748453    0.227510
 C   -4.367057    0.544562    0.058246
 C   -3.005321    0.297722   -0.100931
 N   -2.081198    1.237117   -0.052321
 C   -4.755850    1.860340    0.309131
 C   -3.788506    2.844549    0.363053
 C   -2.453794    2.491955    0.168803
 C   -1.374553    3.531558    0.200790
 N   -0.070883    2.928582    0.106321
 C    1.051245    3.673967    0.206866
 O    1.003995    4.883018    0.359256
 C    2.339292    2.933075    0.121073
 C    2.479709    1.583404    0.430269
 C    3.476816    3.661506   -0.224022
 C    4.710102    3.055545   -0.293742
 C    4.847137    1.693502   -0.010515
 C    3.716698    0.971211    0.374164
 N    6.116768    1.142455   -0.062183
 C    6.514435   -0.161293   -0.160010
 C    5.702376   -1.198967   -0.707255
 N    6.124485   -2.421609   -0.807990
 N    7.761120   -0.395850    0.199840
 C    8.214999   -1.662402    0.111955
 C    7.376454   -2.702704   -0.372827
 C    9.530057   -1.968966    0.510865
 C    9.976629   -3.260328    0.442345
 C    9.144258   -4.288261   -0.028952
 C    7.864610   -4.019423   -0.433533
 H   -9.797931   -4.525670    1.467122
 H   -8.345369   -1.379076    1.470363
 H   -6.978436   -2.431376    1.088080
 H   -7.314425   -2.008591   -1.345368
 H   -9.701358   -1.213933   -1.279219
 H   -6.822722    0.650545   -0.663666
 H   -2.658383   -0.711303   -0.278652
 H   -5.790940    2.115366    0.486485
 H   -4.052604    3.872223    0.558694
 H   -1.438291    4.119502    1.125728
 H   -1.524866    4.239614   -0.627782
 H   -0.072531    1.938052   -0.086410
 H    1.630860    1.002426    0.759581
 H    3.365437    4.715017   -0.430652
 H    5.584955    3.629886   -0.562373
 H    3.811609   -0.061782    0.670373
 H    6.886791    1.780008    0.097174
 H    4.721734   -0.988962   -1.110841
 H   10.153861   -1.168194    0.876531
 H   10.982370   -3.500204    0.755468
 H    9.525530   -5.297798   -0.070441
 H    7.207268   -4.792153   -0.800808
