70 
1s19_ligand_ani.xyz
 O   -8.105916   -0.332988    1.000552
 O   -4.473090   -2.306230    1.645800
 C   -5.107312   -2.528666    0.390537
 C   -6.572951   -2.177833    0.585592
 C   -6.734731   -0.688116    0.891698
 C   -6.160084    0.151182   -0.243483
 C   -4.720060   -0.209195   -0.532293
 C   -3.756256    0.742789   -0.611471
 C   -2.342865    0.501169   -0.822881
 C   -1.399511    1.461405   -0.974146
 C   -1.665824    2.942904   -1.016091
 C   -4.491402   -1.653977   -0.698349
 C   -0.837997    3.684839    0.045817
 C    0.655968    3.318372   -0.003271
 C    0.886243    1.800754    0.056048
 C    0.063195    1.174000   -1.101882
 C    0.592156   -0.258722   -1.208864
 C    2.098743   -0.111218   -0.901779
 C    2.310271    1.319444   -0.326705
 C    0.459201    1.231226    1.414916
 C   -3.849501   -2.232192   -1.718225
 C    3.408033    1.354945    0.757089
 C    4.692207    0.815667    0.173253
 C    6.568194   -0.821995   -0.068840
 C    3.661824    2.753603    1.331776
 C    6.480731   -2.260194   -0.532061
 C    7.735212   -3.069718   -0.670450
 C    6.755901   -3.385632    0.421211
 O    7.578240   -0.711817    0.932099
 C    5.254942   -0.348418    0.490764
 H   -8.469000   -0.793104    1.767885
 H   -3.519207   -2.339608    1.497345
 H   -4.999721   -3.582747    0.092884
 H   -6.972760   -2.778535    1.412058
 H   -7.145710   -2.422960   -0.318236
 H   -6.195011   -0.460388    1.824449
 H   -6.267569    1.217416   -0.010954
 H   -6.770678   -0.052054   -1.133852
 H   -4.065341    1.777984   -0.483996
 H   -2.027978   -0.541085   -0.869823
 H   -2.728772    3.171774   -0.903742
 H   -1.376025    3.313725   -2.010711
 H   -0.956464    4.767533   -0.079267
 H   -1.242252    3.447187    1.038758
 H    1.087580    3.699752   -0.941235
 H    1.181295    3.827358    0.812082
 H    0.403183    1.711682   -2.002364
 H    0.400630   -0.700325   -2.192320
 H    0.113770   -0.907369   -0.465594
 H    2.433449   -0.869758   -0.184244
 H    2.712879   -0.244790   -1.799186
 H    2.649024    1.970672   -1.149569
 H    0.656814    0.156134    1.489227
 H   -0.609440    1.376512    1.592574
 H    1.001814    1.720536    2.230851
 H   -3.382369   -1.654648   -2.512749
 H   -3.766698   -3.314340   -1.791465
 H    3.101777    0.681782    1.573472
 H    5.157032    1.442425   -0.591421
 H    6.837947   -0.186252   -0.930941
 H    4.525768    2.743273    2.005154
 H    3.880635    3.462493    0.523356
 H    2.810545    3.135260    1.902049
 H    5.705757   -2.428905   -1.277058
 H    7.817175   -3.749535   -1.513951
 H    8.660237   -2.581472   -0.377127
 H    6.155010   -4.287269    0.338482
 H    7.038180   -3.103553    1.431753
 H    7.454256    0.141847    1.366012
 H    4.810421   -0.996901    1.246351
