19 
1s39_ligand_ani.xyz
 C   -2.952421    0.271935    0.001283
 C   -2.768993   -1.121498   -0.000027
 C   -1.502490   -1.668590   -0.001199
 C   -0.365906   -0.837201   -0.000710
 N    0.887036   -1.434080   -0.000508
 C    1.903059   -0.638386    0.000193
 N    3.166382   -1.141348    0.000317
 N    1.820389    0.742629    0.000103
 C    0.611911    1.440369   -0.000493
 O    0.595103    2.655829   -0.001106
 C   -0.560047    0.555259   -0.000136
 C   -1.847804    1.100394    0.000982
 H   -3.955369    0.688730    0.002528
 H   -3.636555   -1.777330   -0.000008
 H   -1.349376   -2.744528   -0.002329
 H    3.265693   -2.142773    0.003745
 H    3.987618   -0.563644    0.004344
 H    2.649786    1.325310    0.000190
 H   -1.943131    2.183504    0.001649
