19 
1s39_ligand_dft.xyz
 C   -2.953930    0.265689    0.000110
 C   -2.765437   -1.125261    0.000108
 C   -1.496699   -1.671995    0.000031
 C   -0.363190   -0.839189   -0.000091
 N    0.889217   -1.426024   -0.000209
 C    1.910607   -0.630089   -0.000373
 N    3.168893   -1.144298    0.000568
 N    1.814125    0.743783   -0.000132
 C    0.601470    1.441338   -0.000288
 O    0.598311    2.658821    0.000225
 C   -0.562546    0.556296   -0.000138
 C   -1.853622    1.099626   -0.000002
 H   -3.956893    0.680067    0.000196
 H   -3.629787   -1.783422    0.000212
 H   -1.341456   -2.745739    0.000051
 H    3.255736   -2.146737    0.000043
 H    3.998287   -0.577756   -0.000443
 H    2.638337    1.330197    0.000432
 H   -1.956265    2.180116   -0.000018
