78 
1shd_ligand_ani.xyz
 C   -0.797370    0.854009   -1.405290
 O   -0.776163   -0.033186   -0.561153
 N   -0.184787    2.052808   -1.238603
 C    0.351318    2.413397    0.070639
 C    1.520554    1.502763    0.485239
 O    1.774534    1.306650    1.672632
 C   -0.709820    2.480285    1.179543
 C   -1.822764    3.431278    0.822227
 C   -1.642980    4.811228    0.922519
 C   -3.041210    2.961631    0.326038
 C   -2.642511    5.701520    0.544900
 C   -4.049773    3.835588   -0.058701
 C   -3.849769    5.211379    0.049631
 O   -4.869579    6.027073   -0.341459
 N    2.245861    1.001981   -0.535293
 C    3.398030    0.123323   -0.409180
 C    3.089320   -1.342175   -0.031780
 O    4.025618   -2.089247    0.233861
 C    4.502666    0.653181    0.519520
 C    4.968164    2.065741    0.184954
 C    5.584781    2.204448   -1.185901
 O    5.791398    1.311831   -1.975025
 O    5.913475    3.483586   -1.448051
 N    1.805504   -1.781323   -0.062195
 C    1.552676   -3.204175    0.116623
 C    0.202631   -3.659792   -0.426363
 O    0.095829   -4.760293   -0.945704
 C    1.729892   -3.685723    1.574469
 C    0.713309   -3.158713    2.596260
 C    0.661717   -1.650533    2.692544
 O   -0.351448   -0.991205    2.571814
 O    1.859823   -1.115052    2.932208
 N   -0.873688   -2.848841   -0.221234
 C   -2.168478   -3.225191   -0.743598
 C   -2.181428   -3.016150   -2.257389
 O   -2.724151   -4.043241   -2.915134
 C   -3.301445   -2.411880   -0.079522
 C   -3.274944   -2.601086    1.446451
 C   -4.659480   -2.801271   -0.670011
 C   -4.312152   -1.759692    2.193500
 O   -1.794182   -2.021169   -2.837615
 O   -1.386928    0.729519   -2.588672
 H   -0.527942    2.806800   -1.817193
 H    0.791011    3.412301   -0.053073
 H   -1.105820    1.476741    1.343235
 H   -0.208170    2.789968    2.101759
 H   -0.699902    5.201015    1.303110
 H   -3.202016    1.886200    0.249749
 H   -2.481195    6.775101    0.632264
 H   -4.999455    3.475130   -0.443166
 H   -4.603850    6.946430   -0.213308
 H    1.970792    1.276583   -1.467415
 H    3.825411    0.064378   -1.416593
 H    5.338758   -0.048086    0.448273
 H    4.144571    0.633351    1.552954
 H    4.152030    2.793748    0.259040
 H    5.725641    2.391886    0.908372
 H    6.306722    3.484681   -2.336526
 H    1.057705   -1.155415   -0.345101
 H    2.296351   -3.752296   -0.469911
 H    2.740656   -3.407938    1.882263
 H    1.673876   -4.779711    1.564851
 H   -0.294698   -3.520457    2.376047
 H    0.989381   -3.545660    3.585098
 H    1.796417   -0.149334    2.756479
 H   -0.753298   -1.877071    0.030828
 H   -2.324355   -4.292895   -0.565736
 H   -2.686291   -3.817198   -3.859841
 H   -3.109239   -1.346774   -0.295380
 H   -2.282006   -2.334260    1.827087
 H   -3.427774   -3.666146    1.678348
 H   -5.471519   -2.238955   -0.200813
 H   -4.851221   -3.870036   -0.515440
 H   -4.706612   -2.606943   -1.744714
 H   -4.165543   -1.835344    3.275881
 H   -5.338204   -2.077840    1.979999
 H   -4.226015   -0.700070    1.921408
 H   -1.685839   -0.206734   -2.657115
