70 
1sln_ligand_dft.xyz
 C  -20.993830   93.033271   79.829530
 C  -21.033157   93.482970   81.289649
 C  -21.284359   94.987912   81.395676
 O  -21.521484   95.741950   80.460247
 O  -21.259394   95.427442   82.648688
 N  -19.939312   92.981688   82.106268
 C  -18.673898   93.689320   82.219620
 C  -17.807054   92.934084   83.244538
 C  -16.450362   93.585132   83.546459
 C  -15.723170   92.842325   84.642482
 C  -15.854592   93.228524   85.977116
 C  -15.220907   92.514737   86.990073
 C  -14.446949   91.400663   86.678554
 C  -14.309820   91.006233   85.350278
 C  -14.944385   91.723332   84.341112
 C  -17.930720   93.746016   80.881797
 O  -17.976086   92.860363   80.043582
 N  -17.212448   94.891607   80.693751
 C  -16.357452   95.061762   79.543043
 C  -17.028055   95.954483   78.466989
 C  -18.472133   95.520512   78.240661
 C  -19.303024   96.453985   77.361844
 N  -20.704614   96.300951   77.767258
 C  -21.709672   97.077845   77.390320
 N  -22.819899   97.108787   78.136252
 N  -21.618821   97.831430   76.287121
 C  -15.066904   95.734014   80.033164
 O  -15.085450   96.410208   81.051379
 N  -13.994833   95.544796   79.225151
 C  -12.685522   96.076406   79.341056
 C  -11.766293   95.708540   78.355165
 C  -10.465001   96.190116   78.400057
 C  -10.069874   97.043003   79.426924
 C  -10.989924   97.404690   80.404971
 C  -12.298290   96.929968   80.375491
 H  -20.166022   93.480134   79.279868
 H  -20.845740   91.953112   79.806520
 H  -21.936566   93.279240   79.330590
 H  -21.940880   93.047142   81.729829
 H  -21.445649   96.381030   82.644358
 H  -20.269584   92.760669   83.037067
 H  -18.802948   94.726625   82.579602
 H  -18.373137   92.865046   84.182801
 H  -17.663245   91.911293   82.880114
 H  -15.830081   93.602790   82.643292
 H  -16.599920   94.631254   83.845317
 H  -16.453887   94.101729   86.226086
 H  -15.328078   92.831869   88.023068
 H  -13.949319   90.844405   87.466883
 H  -13.704108   90.140736   85.099076
 H  -14.831463   91.413020   83.304572
 H  -17.015692   95.520300   81.464825
 H  -16.166706   94.067720   79.124999
 H  -17.010023   96.994223   78.818919
 H  -16.441438   95.913730   77.541920
 H  -18.512663   94.496662   77.856155
 H  -18.941382   95.505364   79.229323
 H  -19.001125   97.499340   77.505650
 H  -19.186527   96.203068   76.301265
 H  -20.875711   95.762464   78.616977
 H  -23.685394   97.489725   77.788761
 H  -22.805529   96.678960   79.054678
 H  -20.862889   97.702979   75.633123
 H  -22.326222   98.510215   76.053859
 H  -14.126856   94.910066   78.450316
 H  -12.067250   95.041212   77.550194
 H   -9.759600   95.895296   77.629654
 H   -9.052967   97.419460   79.464462
 H  -10.691292   98.066439   81.212058
 H  -13.007417   97.209617   81.141549
