111 
1sme_ligand_dft.xyz
 C    0.623616    3.134241   -0.411055
 O    0.795563    1.915635   -0.893688
 O    1.170322    3.550485    0.598925
 C   -0.344240    3.969625   -1.210208
 C   -1.535612    4.421584   -0.343791
 O   -1.114108    5.192764    0.763733
 C   -2.416495    3.242969    0.124174
 N   -1.743496    2.568108    1.222547
 C   -1.607466    1.233740    1.321456
 O   -2.013986    0.472402    0.440527
 C   -0.955852    0.709108    2.615716
 N   -0.398700   -0.600056    2.387182
 C   -1.048290   -1.732280    2.787565
 O   -2.082520   -1.699784    3.441443
 C   -0.416558   -3.040356    2.356721
 C   -1.418705   -4.001323    1.679230
 O   -0.740102   -5.134937    1.198593
 C   -2.285029   -3.282420    0.610272
 C   -3.033531   -4.263279   -0.294740
 N   -1.523651   -2.279020   -0.138665
 C   -0.404226   -2.520196   -0.821720
 O    0.091034   -3.639010   -1.016754
 C    0.322823   -1.267338   -1.318487
 N    1.745401   -1.504600   -1.113205
 C    2.456205   -0.917234   -0.146391
 O    2.007978    0.010134    0.558791
 C    3.879986   -1.415161    0.079208
 N    4.682668   -0.270223    0.449347
 C    5.654828    0.203940   -0.393983
 O    6.073859   -0.441263   -1.341749
 C    6.135540    1.609388   -0.093733
 C    5.610741    2.596685   -1.154782
 C    4.081020    2.584728   -1.227954
 C   -3.818784    3.679062    0.567651
 C   -4.717856    4.276745   -0.525670
 C   -6.106872    4.557083    0.054689
 C   -4.819348    3.369543   -1.755969
 C    0.085408    1.645385    3.236717
 C   -3.830139   -3.611657   -1.432697
 C   -4.611278   -4.683890   -2.196263
 C   -4.763471   -2.498323   -0.949305
 C    0.001800   -0.873210   -2.773995
 C   -1.452622   -0.407857   -2.883566
 C    0.317679   -1.979219   -3.782627
 C    3.953544   -2.551497    1.130075
 C    3.271299   -3.830311    0.637469
 C    3.438481   -2.123631    2.505697
 C    6.136767    4.003843   -0.870402
 H    1.346612    1.367948   -0.277019
 H   -0.697494    3.416213   -2.082944
 H    0.188460    4.863499   -1.551224
 H   -2.152206    5.073206   -0.971523
 H   -0.205801    4.915433    0.976921
 H   -2.499363    2.505591   -0.677767
 H   -1.396867    3.167304    1.957049
 H   -1.781512    0.551445    3.320011
 H    0.419051   -0.652391    1.790492
 H   -0.012695   -3.545127    3.239869
 H    0.423165   -2.866781    1.676051
 H   -2.113653   -4.363607    2.442993
 H   -0.301501   -4.860223    0.372612
 H   -3.015356   -2.691564    1.169424
 H   -2.326181   -4.982141   -0.717405
 H   -3.713908   -4.840684    0.346520
 H   -1.750960   -1.301411    0.053479
 H    0.047215   -0.425864   -0.683455
 H    2.119106   -2.345135   -1.535946
 H    4.295768   -1.787122   -0.862624
 H    4.224856    0.392474    1.060559
 H    7.229810    1.600663   -0.111059
 H    5.817910    1.935614    0.905285
 H    6.004182    2.261330   -2.122173
 H    3.633689    2.837295   -0.258112
 H    3.698257    1.606075   -1.537634
 H    3.723636    3.319943   -1.957233
 H   -3.714901    4.400711    1.388431
 H   -4.315231    2.791410    0.981936
 H   -4.296344    5.240402   -0.843276
 H   -6.750384    5.048018   -0.683175
 H   -6.045993    5.205557    0.935549
 H   -6.595546    3.622963    0.357846
 H   -3.865232    3.282045   -2.287964
 H   -5.134299    2.358643   -1.468508
 H   -5.554046    3.761317   -2.467376
 H    0.543805    1.139217    4.089531
 H    0.868510    1.912057    2.520764
 H   -0.365084    2.568976    3.615600
 H   -3.105993   -3.168038   -2.129895
 H   -3.948599   -5.482183   -2.548465
 H   -5.120885   -4.257011   -3.067223
 H   -5.373672   -5.141038   -1.553147
 H   -5.442967   -2.870144   -0.171624
 H   -5.377336   -2.122368   -1.775467
 H   -4.211919   -1.646233   -0.537402
 H    0.649211   -0.011543   -2.980062
 H   -1.641405    0.007995   -3.878500
 H   -2.150531   -1.238750   -2.731656
 H   -1.679803    0.356903   -2.133541
 H    0.094631   -1.634029   -4.797267
 H   -0.277223   -2.877504   -3.588445
 H    1.375006   -2.265646   -3.762000
 H    5.027912   -2.753354    1.221901
 H    2.187720   -3.717856    0.525016
 H    3.675517   -4.149446   -0.330793
 H    3.439114   -4.645123    1.348230
 H    3.590463   -2.930148    3.229814
 H    3.969375   -1.240111    2.874041
 H    2.368630   -1.890847    2.491538
 H    5.819218    4.704390   -1.650221
 H    5.755067    4.376261    0.088384
 H    7.231325    4.019678   -0.827471
