111 
1sme_ligand_ani.xyz
 C   -0.612978    2.854624   -0.849288
 O    0.267952    2.225392   -1.621254
 O   -0.390860    3.163003    0.306967
 C   -1.890432    3.171782   -1.595943
 C   -3.044547    3.747526   -0.759385
 O   -2.633248    4.820356    0.060233
 C   -3.841211    2.686420    0.046103
 N   -3.146493    2.243759    1.246629
 C   -2.330564    1.160270    1.277528
 O   -2.130925    0.481084    0.274654
 C   -1.711003    0.860839    2.664034
 N   -1.032240   -0.414762    2.690995
 C   -1.732878   -1.587154    2.795565
 O   -2.931908   -1.603189    3.028247
 C   -0.912306   -2.852961    2.620644
 C   -1.563081   -3.889297    1.690078
 O   -0.665809   -4.943439    1.449314
 C   -2.156164   -3.266532    0.399931
 C   -2.575167   -4.373789   -0.575952
 N   -1.307919   -2.235644   -0.206118
 C   -0.023114   -2.373438   -0.585918
 O    0.616121   -3.424828   -0.518718
 C    0.630496   -1.083374   -1.099176
 N    2.034116   -1.159681   -0.749902
 C    2.743633   -0.128757   -0.242249
 O    2.326660    1.032312   -0.221012
 C    4.118802   -0.480071    0.328414
 N    4.942440    0.698786    0.217118
 C    6.296140    0.608662    0.142152
 O    6.872748   -0.468996    0.223179
 C    7.037317    1.925969   -0.029710
 C    8.405864    1.757646   -0.694578
 C    8.267350    1.274584   -2.138659
 C   -5.219041    3.219737    0.465481
 C   -6.267897    3.402011   -0.643949
 C   -7.530544    4.032852   -0.053070
 C   -6.615186    2.085556   -1.343254
 C   -0.739144    1.948237    3.122671
 C   -3.141428   -3.913442   -1.924702
 C   -3.654877   -5.128064   -2.698859
 C   -4.239858   -2.857471   -1.790946
 C    0.401432   -0.852120   -2.614726
 C   -1.076589   -0.606848   -2.922716
 C    0.971391   -1.971876   -3.483370
 C    4.039979   -0.997313    1.789586
 C    3.380504   -2.373383    1.870969
 C    3.367711   -0.000365    2.729920
 C    9.183085    3.070624   -0.632777
 H    1.041562    1.951780   -1.068945
 H   -2.211075    2.269998   -2.131219
 H   -1.618755    3.907485   -2.364200
 H   -3.745455    4.186324   -1.480898
 H   -1.853882    4.506500    0.548472
 H   -3.952693    1.792744   -0.575468
 H   -3.162515    2.876592    2.032615
 H   -2.541293    0.779273    3.373850
 H   -0.103494   -0.436527    2.290280
 H   -0.784464   -3.327374    3.601594
 H    0.094833   -2.618927    2.253953
 H   -2.415299   -4.330141    2.222990
 H   -0.017134   -4.612074    0.798257
 H   -3.049197   -2.714588    0.713776
 H   -1.722383   -5.039542   -0.754500
 H   -3.333280   -4.984892   -0.062902
 H   -1.667225   -1.282565   -0.175958
 H    0.184447   -0.233288   -0.569814
 H    2.395649   -2.100023   -0.652132
 H    4.579543   -1.274219   -0.270382
 H    4.457223    1.576634    0.095214
 H    7.164620    2.371808    0.968211
 H    6.415283    2.626895   -0.605768
 H    8.946639    0.989349   -0.128065
 H    7.694370    1.996068   -2.736222
 H    7.753918    0.309303   -2.184421
 H    9.251728    1.160771   -2.606854
 H   -5.072381    4.177752    0.985772
 H   -5.622656    2.514159    1.204152
 H   -5.872855    4.099801   -1.397835
 H   -8.289770    4.196377   -0.825849
 H   -7.315969    4.998059    0.419249
 H   -7.966588    3.375822    0.709968
 H   -5.750944    1.635683   -1.843792
 H   -7.002866    1.356390   -0.619848
 H   -7.389647    2.243155   -2.102288
 H   -0.425478    1.739719    4.148733
 H    0.148568    1.959567    2.480778
 H   -1.188221    2.945334    3.094461
 H   -2.318253   -3.475533   -2.506840
 H   -2.871859   -5.885780   -2.818258
 H   -4.005555   -4.843458   -3.697182
 H   -4.495599   -5.593931   -2.169650
 H   -5.091766   -3.244594   -1.215974
 H   -4.610395   -2.565208   -2.780087
 H   -3.884127   -1.946016   -1.293207
 H    0.944195    0.078268   -2.831726
 H   -1.191888   -0.173754   -3.922154
 H   -1.657581   -1.535348   -2.903212
 H   -1.523474    0.080287   -2.199794
 H    0.796668   -1.752156   -4.542355
 H    0.493505   -2.932274   -3.256494
 H    2.050006   -2.087119   -3.335253
 H    5.087498   -1.107931    2.092282
 H    2.313073   -2.332361    1.622445
 H    3.861001   -3.087961    1.192824
 H    3.460667   -2.772076    2.887393
 H    3.414638   -0.366910    3.760677
 H    3.854888    0.979053    2.692043
 H    2.309869    0.135650    2.473809
 H   10.174710    2.965595   -1.086863
 H    8.648245    3.860420   -1.175942
 H    9.319337    3.406692    0.401542
