47 
1sqb_ligand_ani.xyz
 N    5.583578   -2.767695    1.319570
 C    5.564595   -1.676852    0.931491
 C    5.587363   -0.316931    0.453092
 C    6.791088    0.376109    0.370057
 C    6.806731    1.697517   -0.063943
 C    5.611753    2.317408   -0.412062
 C    4.398654    1.636630   -0.350805
 C    4.394913    0.312392    0.070023
 O    3.262242   -0.446740    0.274555
 C    2.151399   -0.362088   -0.487434
 C    0.967795   -0.776365    0.101027
 C   -0.160639   -0.745458   -0.707908
 N   -0.116399   -0.379673   -1.984569
 C    1.083924   -0.008627   -2.423193
 N    2.230776    0.039146   -1.749823
 O   -1.328141   -1.073979   -0.120322
 C   -2.527165   -1.091790   -0.803248
 C   -2.720865   -1.885124   -1.928616
 C   -3.985802   -1.955255   -2.499814
 C   -5.047407   -1.231150   -1.967827
 C   -4.841266   -0.438831   -0.847059
 C   -3.584475   -0.366696   -0.239731
 C   -3.390062    0.432765    0.990662
 C   -3.542252    1.918705    1.026464
 O   -3.522427    2.588705    2.037554
 O   -3.672835    2.433651   -0.203941
 C   -3.753348    3.861207   -0.253553
 C   -3.107677   -0.142437    2.169071
 O   -2.919549   -1.455721    2.294945
 C   -2.598847   -1.916518    3.600007
 H    7.708109   -0.129957    0.655153
 H    7.744274    2.241323   -0.124773
 H    5.616962    3.351690   -0.745470
 H    3.479847    2.143481   -0.629758
 H    0.923918   -1.104114    1.132992
 H    1.131112    0.301905   -3.462717
 H   -1.894173   -2.444656   -2.357374
 H   -4.137482   -2.578323   -3.377758
 H   -6.031393   -1.287150   -2.424602
 H   -5.665345    0.123795   -0.416548
 H   -4.613873    4.213316    0.319403
 H   -2.846120    4.307816    0.160310
 H   -3.860431    4.111265   -1.308181
 H   -3.039501    0.465047    3.073552
 H   -1.661224   -1.472544    3.956553
 H   -3.403073   -1.687302    4.309778
 H   -2.482067   -2.997042    3.520662
