48 
1sqc_ligand_ani.xyz
 N    4.955587    0.862416    0.047015
 O    4.878733    1.489868   -1.253457
 C    6.141661   -0.031287    0.024977
 C    5.181627    1.957391    1.007387
 C    3.677848    0.117430    0.405095
 C    3.291287   -1.023247   -0.532266
 C    2.092479   -1.827671   -0.009876
 C    0.782770   -1.042055    0.074851
 C   -0.398468   -1.925192    0.480127
 C   -1.727331   -1.181416    0.641022
 C   -2.269869   -0.582099   -0.657975
 C   -3.603334    0.154146   -0.494994
 C   -4.756600   -0.744065   -0.039692
 C   -6.169096   -0.185040   -0.250482
 C   -6.536561    1.064289    0.561319
 C   -6.074106    2.389193   -0.047231
 H    4.016690    1.206256   -1.607324
 H    6.215387   -0.547082    0.990642
 H    6.054340   -0.758325   -0.782519
 H    7.036216    0.576605   -0.134682
 H    4.322961    2.633064    0.996753
 H    5.305458    1.531236    2.010422
 H    6.083772    2.500808    0.720604
 H    2.879497    0.865846    0.467105
 H    3.842907   -0.272864    1.419070
 H    4.131445   -1.713785   -0.659722
 H    3.040774   -0.641431   -1.533766
 H    2.333286   -2.239010    0.981398
 H    1.939132   -2.692601   -0.669212
 H    0.588319   -0.570936   -0.898367
 H    0.877895   -0.222244    0.800067
 H   -0.154042   -2.423644    1.428500
 H   -0.519935   -2.727103   -0.263757
 H   -1.607438   -0.379092    1.384607
 H   -2.467312   -1.875942    1.059531
 H   -2.386072   -1.384400   -1.402068
 H   -1.535049    0.117084   -1.076230
 H   -3.867432    0.614662   -1.458019
 H   -3.464295    0.978285    0.218532
 H   -4.630624   -0.996048    1.022771
 H   -4.690815   -1.696162   -0.585120
 H   -6.880642   -0.983723   -0.002630
 H   -6.319392    0.027840   -1.319427
 H   -6.145963    0.964572    1.583117
 H   -7.628736    1.101082    0.659726
 H   -4.984226    2.477160   -0.086797
 H   -6.450043    2.492842   -1.072090
 H   -6.448885    3.238921    0.533856
