50 
1sqn_ligand_ani.xyz
 O   -6.114828   -0.321700    0.706156
 C   -5.037130   -0.306550    0.151849
 C   -4.354843   -1.562883   -0.353235
 C   -4.270164    0.972488   -0.112480
 C   -2.799909    0.878100    0.317113
 C   -2.055730    2.172105   -0.018467
 C   -2.102952   -0.352263   -0.297005
 C   -2.882354   -1.625123    0.070725
 C   -0.621141   -0.406304    0.134962
 C    0.115501    0.902165   -0.248697
 C   -0.583225    2.109790    0.385491
 C    0.113695   -1.663921   -0.380042
 C    1.614548   -1.687881   -0.043984
 C    2.307205   -0.394224   -0.488169
 C    1.582970    0.795121    0.166103
 C    2.301920   -0.307107   -2.022389
 C    3.768823   -0.186860    0.003823
 O    4.668287   -0.889512   -0.840599
 C    3.950682    1.360170   -0.082054
 C    2.524832    1.980723   -0.087989
 C    3.967888   -0.640114    1.399737
 C    4.184949   -1.016222    2.523259
 H   -4.415385   -1.547728   -1.452188
 H   -4.922074   -2.430297   -0.003851
 H   -4.784180    1.794420    0.394639
 H   -4.312374    1.171378   -1.194555
 H   -2.776488    0.740105    1.411753
 H   -2.552970    3.019990    0.470044
 H   -2.130789    2.349234   -1.102481
 H   -2.129986   -0.245787   -1.397120
 H   -2.824315   -1.769833    1.159368
 H   -2.426038   -2.507756   -0.390320
 H   -0.612406   -0.459885    1.239590
 H    0.052441    1.030637   -1.341576
 H   -0.077599    3.041886    0.102694
 H   -0.510162    2.033662    1.481309
 H   -0.025688   -1.744459   -1.468229
 H   -0.343437   -2.562689    0.049101
 H    1.736335   -1.816493    1.039236
 H    2.106801   -2.544966   -0.519922
 H    1.574542    0.611180    1.255339
 H    2.827570   -1.168321   -2.441983
 H    1.285600   -0.304187   -2.424047
 H    2.799706    0.592502   -2.398163
 H    5.518160   -0.895384   -0.383435
 H    4.498936    1.592216   -1.001361
 H    4.561372    1.721172    0.751342
 H    2.314489    2.441244   -1.061494
 H    2.411561    2.765260    0.668478
 H    4.375330   -1.344679    3.522070
