33 
1sqo_ligand_xtb.xyz
 C   -0.339217    3.245104   -0.048872
 C    1.025266    3.169770   -0.050575
 C    1.665672    1.915325   -0.032766
 C    0.891971    0.721175   -0.013881
 C   -0.534092    0.837821   -0.000168
 C   -1.118856    2.085387   -0.022563
 C    3.074449    1.823707   -0.032245
 C    3.706347    0.615996   -0.011722
 C    2.952290   -0.573160   -0.012852
 C    1.578397   -0.509873   -0.016175
 N   -1.291474   -0.323428    0.036425
 C   -2.631688   -0.526235    0.038874
 N   -3.496113    0.486881   -0.018677
 C   -4.779902    0.177151   -0.010229
 C   -5.237467   -1.129337    0.053977
 C   -4.254442   -2.110798    0.106662
 N   -2.969989   -1.825072    0.099171
 C    3.650313   -1.884214    0.030434
 N    4.687974   -2.153301    0.713520
 N    3.055952   -2.890944   -0.682279
 H   -0.833511    4.204924   -0.064127
 H    1.631746    4.063164   -0.065045
 H   -2.192726    2.156805   -0.016638
 H    3.647208    2.739789   -0.046704
 H    4.785544    0.555418   -0.013953
 H    1.038515   -1.446402    0.000253
 H   -0.785742   -1.196841    0.094848
 H   -5.458744    1.019549   -0.056720
 H   -6.286663   -1.369411    0.061836
 H   -4.500589   -3.164259    0.157033
 H    5.022703   -1.386342    1.287393
 H    3.598425   -3.738589   -0.735794
 H    2.535125   -2.643660   -1.506899
