66 
1sqp_ligand_xtb.xyz
 O   -3.380879    1.979475   -2.023805
 C   -2.760212    2.030824   -0.979227
 N   -1.395568    1.961371   -0.977466
 C   -3.323717    2.237454    0.361324
 C   -4.594728    1.996891    0.721435
 O   -5.080384    2.168161    1.972694
 C   -4.242694    2.689187    2.976493
 C   -5.637048    1.405688   -0.193746
 C   -7.001348    2.063639   -0.011958
 C   -5.720103   -0.119951    0.077783
 O   -6.562691   -0.670746   -0.913319
 C   -6.919607   -2.004899   -0.665964
 C   -4.322378   -0.673802    0.043347
 C   -3.705223   -0.998475   -1.090059
 C   -2.310628   -1.367565   -1.151819
 C   -1.656053   -1.784793   -2.284561
 N   -1.508801   -1.262722   -0.058327
 C   -0.286696   -1.582386   -0.314272
 C    0.791615   -1.553801    0.630715
 C    0.692166   -1.161483    1.940676
 N    2.041972   -1.930960    0.248399
 C    2.895446   -1.851350    1.197403
 C    4.344649   -2.177119    1.073502
 C    4.513963   -3.605822    0.542907
 C    4.961110   -1.186889    0.126317
 C    5.914399   -0.320016    0.462124
 C    6.504539    0.619862   -0.461173
 C    7.477548    1.468787   -0.133875
 C    8.111845    2.446264   -1.072150
 C    7.930550    3.871251   -0.543732
 C    9.599885    2.122227   -1.229520
 S    0.007219   -2.060490   -1.979045
 S    2.215327   -1.271597    2.715541
 H   -0.950300    1.723473   -1.848828
 H   -0.887852    1.769742   -0.132154
 H   -2.609109    2.590260    1.090016
 H   -3.870889    3.682834    2.710028
 H   -3.394912    2.025441    3.173627
 H   -4.860604    2.761140    3.870262
 H   -5.301982    1.526508   -1.225055
 H   -7.335250    1.978961    1.019208
 H   -6.945010    3.115920   -0.278683
 H   -7.719709    1.572254   -0.661301
 H   -6.164365   -0.286667    1.074029
 H   -7.462018   -2.100809    0.284182
 H   -7.569987   -2.306769   -1.484798
 H   -6.041831   -2.661094   -0.635718
 H   -3.790802   -0.725842    0.982248
 H   -4.232562   -0.951359   -2.031449
 H   -2.067239   -1.934537   -3.261852
 H   -0.183969   -0.832623    2.459096
 H    4.812778   -2.087870    2.058682
 H    5.569919   -3.824131    0.404957
 H    4.093939   -4.323217    1.244202
 H    4.000505   -3.706329   -0.409214
 H    4.564291   -1.213525   -0.878663
 H    6.297348   -0.301564    1.475255
 H    6.114437    0.607108   -1.470916
 H    7.866754    1.477181    0.876740
 H    7.628319    2.367969   -2.051657
 H    8.378318    4.588655   -1.227643
 H    8.406588    3.978722    0.428749
 H    6.873628    4.105700   -0.438259
 H   10.068889    2.821175   -1.918289
 H    9.729862    1.113849   -1.616083
 H   10.106796    2.191554   -0.269273
