67 
1sr7_ligand_ani.xyz
 O    7.073279    1.830642   -0.113147
 C    6.156848    1.035094   -0.169479
 C    5.767151    0.316382   -1.451545
 C    5.359576    0.663626    1.024395
 C    4.292084   -0.140875    0.962749
 C    3.688497   -0.743914    2.213210
 C    3.648165   -0.592999   -0.341770
 C    4.253406    0.159778   -1.549086
 C    3.953614   -2.096535   -0.492463
 C    2.106023   -0.285792   -0.227800
Cl    1.986602    1.527478    0.082664
 C    1.316059   -0.477656   -1.549224
 O    1.609850   -1.769335   -2.054855
 C    1.453639   -0.977926    1.003396
 C    2.170459   -0.570200    2.296941
 C   -0.041600   -0.661528    1.056270
 C   -0.896095   -1.264494    2.176832
 C   -2.370233   -1.181062    1.662831
 C   -3.270596   -0.376538    2.596523
 C   -0.797052   -1.061943   -0.221512
 C   -0.203697   -0.267267   -1.389410
 C   -0.749085   -2.574971   -0.481786
 C   -2.251870   -0.657084    0.190137
 C   -3.276079   -1.175058   -0.829586
 O   -3.096336   -0.954654   -2.005183
 C   -4.522375   -1.919651   -0.387908
Cl   -4.226236   -3.687834   -0.448984
 O   -2.297754    0.792642    0.145501
 C   -3.491904    1.386245   -0.021992
 O   -4.551794    0.797727   -0.054784
 C   -3.396037    2.848662   -0.146795
 C   -4.365096    3.781218   -0.362058
 C   -3.696586    5.042224   -0.389796
 C   -2.379052    4.768119   -0.188691
 O   -2.176148    3.442458   -0.040434
 H    6.171143    0.883021   -2.294096
 H    6.262318   -0.664808   -1.454985
 H    5.710817    1.052457    1.977385
 H    3.930066   -1.815675    2.217677
 H    4.168292   -0.315453    3.100584
 H    3.809752    1.156105   -1.628460
 H    3.984755   -0.383399   -2.463653
 H    5.028803   -2.261077   -0.365576
 H    3.443209   -2.685783    0.270769
 H    3.647359   -2.467776   -1.470015
 H    1.680413    0.273738   -2.264820
 H    0.976194   -1.954700   -2.759689
 H    1.572830   -2.062749    0.868335
 H    1.784641   -1.156778    3.140407
 H    1.941549    0.479750    2.510013
 H   -0.128615    0.426627    1.145876
 H   -0.623418   -2.309519    2.366717
 H   -0.766317   -0.717249    3.117951
 H   -2.763199   -2.206147    1.597855
 H   -2.896703    0.644720    2.715815
 H   -4.301314   -0.315962    2.239839
 H   -3.288400   -0.844723    3.587021
 H   -0.383753    0.796935   -1.232929
 H   -0.705805   -0.545668   -2.321925
 H   -1.244031   -2.801146   -1.431505
 H    0.275701   -2.942525   -0.546259
 H   -1.263296   -3.144388    0.298171
 H   -4.809457   -1.666177    0.629655
 H   -5.323938   -1.681106   -1.084225
 H   -5.420674    3.575188   -0.484734
 H   -4.136342    6.019240   -0.538890
 H   -1.496539    5.390109   -0.125951
