28 
1sre_ligand_ani.xyz
 C   -1.718130   -0.556372   -0.065716
 C   -2.774924    0.377571    0.031037
 C   -4.086143   -0.087890   -0.033547
 C   -4.372615   -1.438522   -0.162610
 C   -3.328431   -2.354686   -0.226811
 C   -2.012931   -1.921294   -0.176456
 C    1.852842   -0.527183   -0.009379
 C    2.264698    0.612837   -0.698287
 C    3.601554    0.970577   -0.719332
 C    4.538415    0.186118   -0.045316
 C    4.131772   -0.960988    0.639588
 C    2.791112   -1.316361    0.647581
 C   -2.652338    1.879242    0.219423
 N   -0.360717   -0.094051   -0.093689
 N    0.513539   -0.986410    0.023786
 O   -3.630792    2.587135    0.228074
 O   -1.436333    2.399883    0.393870
 O    5.837046    0.589745   -0.094891
 H   -4.872156    0.658400    0.027602
 H   -5.404041   -1.775636   -0.208259
 H   -3.535887   -3.417642   -0.320375
 H   -1.192580   -2.627354   -0.224568
 H    1.511975    1.202629   -1.213355
 H    3.935815    1.856791   -1.250582
 H    4.865266   -1.575512    1.161691
 H    2.446818   -2.207763    1.164433
 H   -0.772521    1.684793    0.323658
 H    6.378893   -0.027881    0.411614
