19 
1sv3_ligand_dft.xyz
 C    3.874571   -0.565007    0.079573
 O    2.987914    0.529372   -0.030568
 C    1.660413    0.281515   -0.023929
 C    0.833983    1.404670   -0.153662
 C   -0.540850    1.256813   -0.149386
 C   -1.125323   -0.010017   -0.018658
 C   -0.292798   -1.122637    0.085433
 C    1.089901   -0.989655    0.093357
 C   -2.601545   -0.241227   -0.021333
 O   -3.107036   -1.299711   -0.294334
 O   -3.382745    0.813499    0.309234
 H    3.736004   -1.098563    1.027966
 H    3.750639   -1.265926   -0.755013
 H    4.878039   -0.140274    0.048053
 H    1.296759    2.378966   -0.266739
 H   -1.153389    2.144245   -0.292853
 H   -0.748173   -2.104441    0.162282
 H    1.707090   -1.875366    0.186389
 H   -2.842142    1.529354    0.666893
