20 
1sw2_ligand_xtb.xyz
 N    1.016136    0.070060    0.000022
 C   -0.256296    0.836766    0.008592
 C   -1.544432   -0.033128    0.001906
 O   -1.516995   -1.225187   -0.000124
 O   -2.664075    0.656803   -0.000771
 C    1.115425   -0.786140    1.200984
 C    1.106926   -0.771829   -1.211574
 C    2.139876    1.028492    0.001759
 H   -0.279859    1.483777   -0.874593
 H   -0.278364    1.467004    0.903688
 H   -2.600274    1.622056    0.001967
 H    0.302295   -1.509788    1.212275
 H    2.060887   -1.324196    1.191001
 H    1.068315   -0.179485    2.103556
 H    1.028700   -0.157388   -2.106568
 H    2.062876   -1.290875   -1.227219
 H    0.307682   -1.510954   -1.213806
 H    3.085732    0.489879    0.003136
 H    2.105517    1.660918   -0.883970
 H    2.103102    1.660743    0.887538
