20 
1sw2_ligand_ani.xyz
 N    1.015834    0.062879    0.000063
 C   -0.277033    0.817634   -0.028347
 C   -1.540783   -0.041771   -0.006783
 O   -1.574978   -1.242729    0.000740
 O   -2.676948    0.677862    0.002398
 C    1.136701   -0.756597    1.245457
 C    1.160436   -0.811407   -1.204748
 C    2.125002    1.047589   -0.011618
 H   -0.280810    1.435198   -0.933471
 H   -0.286963    1.487454    0.838462
 H   -2.468829    1.622421   -0.001473
 H    0.354522   -1.509414    1.252800
 H    2.125302   -1.225592    1.253936
 H    1.038957   -0.090654    2.106734
 H    1.085795   -0.183441   -2.096369
 H    2.146797   -1.283993   -1.170174
 H    0.374649   -1.560373   -1.196637
 H    3.075582    0.509788    0.010636
 H    2.065820    1.651525   -0.921376
 H    2.047806    1.693187    0.867624
