20 
1sw2_ligand_dft.xyz
 N    1.015048    0.063048    0.000007
 C   -0.276172    0.833432   -0.000501
 C   -1.545461   -0.031822   -0.000180
 O   -1.535612   -1.231699   -0.000064
 O   -2.679421    0.659173    0.000232
 C    1.132570   -0.794886    1.232768
 C    1.133176   -0.795498   -1.232248
 C    2.138423    1.060510    0.000033
 H   -0.270962    1.475342   -0.887549
 H   -0.271215    1.476241    0.885897
 H   -2.561536    1.620377   -0.000982
 H    0.341592   -1.541295    1.218695
 H    2.112006   -1.273825    1.219080
 H    1.045532   -0.155000    2.112476
 H    1.047347   -0.155962   -2.112331
 H    2.112300   -1.275054   -1.217465
 H    0.341777   -1.541464   -1.218563
 H    3.084148    0.517831    0.000091
 H    2.069417    1.680608   -0.894940
 H    2.069312    1.680655    0.894967
