12 
1swi_ligand_dft.xyz
 C    1.160029   -0.770869    0.000080
 C    1.247628    0.619068   -0.000157
 C    0.087618    1.389984    0.000100
 C   -1.159987    0.770855    0.000009
 C   -1.247653   -0.619101   -0.000077
 C   -0.087633   -1.389934    0.000023
 H    2.064588   -1.372184    0.000198
 H    2.220581    1.102104   -0.000268
 H    0.155959    2.474003    0.000232
 H   -2.064643    1.372156    0.000012
 H   -2.220548   -1.102077   -0.000109
 H   -0.155946   -2.474020    0.000064
