12 
1swi_ligand_ani.xyz
 C   -0.660928   -1.225550    0.000199
 C    0.730950   -1.185236   -0.000195
 C    1.391885    0.040470    0.000164
 C    0.660943    1.225588   -0.000126
 C   -0.730947    1.185071    0.000107
 C   -1.391874   -0.040355   -0.000168
 H   -1.177446   -2.182629    0.001045
 H    1.301948   -2.110841   -0.001063
 H    2.479016    0.072043    0.000891
 H    1.177209    2.182831   -0.000696
 H   -1.302042    2.110592    0.000758
 H   -2.478861   -0.071924   -0.000827
