32 
1swk_ligand_ani.xyz
 C    2.840974    0.544574   -0.070910
 O    2.582036    1.417993   -1.038615
 O    2.601305    0.755496    1.105264
 C    3.360514   -0.787983   -0.563202
 C    2.465549   -1.898611    0.015450
 C    0.981855   -1.701738   -0.345501
 C    0.021957   -2.013348    0.811576
 C   -1.366402   -1.367229    0.714385
 S   -2.057624   -1.405166   -0.973202
 C   -3.281417   -0.145866   -0.533999
 C   -2.570531    0.851891    0.383323
 N   -1.798009    1.843274   -0.348075
 C   -0.495900    1.928169    0.074635
 O    0.333102    2.751723   -0.306504
 N   -0.304905    0.934333    0.988453
 C   -1.470763    0.104297    1.209052
 H    1.971888    2.105885   -0.665766
 H    3.370292   -0.789535   -1.657540
 H    4.389503   -0.904756   -0.203670
 H    2.821903   -2.880253   -0.315391
 H    2.587722   -1.868826    1.103959
 H    0.829822   -0.661054   -0.650588
 H    0.703083   -2.297177   -1.223299
 H    0.462589   -1.686649    1.766217
 H   -0.101344   -3.099903    0.901100
 H   -2.045364   -1.950726    1.347980
 H   -3.646130    0.344679   -1.440047
 H   -4.131447   -0.604104   -0.017355
 H   -3.298380    1.331889    1.047834
 H   -2.212494    2.628043   -0.824122
 H    0.616080    0.796210    1.392796
 H   -1.721887    0.089040    2.276455
