32 
1swn_ligand_xtb.xyz
 C    2.636262    0.734336   -0.189965
 O    2.521556    1.022462    0.980818
 O    2.167873    1.477730   -1.173600
 C    3.268513   -0.545564   -0.689293
 C    2.933334   -1.759923    0.194568
 C    1.517164   -1.767849    0.784211
 C    0.423168   -1.518759   -0.253058
 C   -0.972513   -1.410739    0.356210
 S   -2.189732   -1.473313   -1.017413
 C   -3.389353   -0.470003   -0.102818
 C   -2.570652    0.544888    0.678625
 N   -2.069679    1.619257   -0.143025
 C   -0.748040    1.869067    0.070851
 O   -0.080053    2.751988   -0.435575
 N   -0.306088    0.939267    0.954493
 C   -1.255527   -0.113537    1.173146
 H    1.560488    2.203188   -0.860562
 H    4.351402   -0.407632   -0.708943
 H    2.933906   -0.700395   -1.715073
 H    3.633663   -1.797770    1.030275
 H    3.081884   -2.658425   -0.407089
 H    1.464216   -1.017886    1.573131
 H    1.348742   -2.740562    1.253091
 H    0.620095   -0.607017   -0.816858
 H    0.413240   -2.344893   -0.968402
 H   -1.171375   -2.279939    0.990101
 H   -3.959579   -1.112868    0.569220
 H   -4.060654    0.002100   -0.816201
 H   -3.169354    0.937200    1.515525
 H   -2.666648    2.256254   -0.637824
 H    0.659219    0.913006    1.253672
 H   -1.302299   -0.369952    2.236257
