32 
1swr_ligand_ani.xyz
 C    2.685269    0.698938   -0.229710
 O    2.682497    1.052711    0.935694
 O    2.173813    1.429602   -1.218703
 C    3.217231   -0.633402   -0.712677
 C    2.894570   -1.796702    0.239863
 C    1.459669   -1.811979    0.794508
 C    0.360069   -1.637108   -0.256756
 C   -1.033419   -1.435842    0.352209
 S   -2.278772   -1.467953   -0.984749
 C   -3.414494   -0.383553   -0.088865
 C   -2.541324    0.610034    0.663240
 N   -2.014004    1.672821   -0.183765
 C   -0.684332    1.913918    0.079069
 O   -0.012377    2.847380   -0.351980
 N   -0.250360    0.917813    0.901684
 C   -1.241763   -0.107990    1.144082
 H    1.625407    2.157789   -0.830115
 H    4.305031   -0.535951   -0.826060
 H    2.810069   -0.810030   -1.713544
 H    3.583165   -1.762851    1.091503
 H    3.100909   -2.734720   -0.290774
 H    1.375982   -1.030350    1.555533
 H    1.297575   -2.760182    1.324409
 H    0.566141   -0.782257   -0.909179
 H    0.325233   -2.517779   -0.907813
 H   -1.259293   -2.267341    1.031697
 H   -4.027903   -0.957375    0.613991
 H   -4.074637    0.126397   -0.795799
 H   -3.084355    1.023085    1.522665
 H   -2.584813    2.450586   -0.478143
 H    0.682045    0.961039    1.298862
 H   -1.289967   -0.342663    2.213457
