35 
1t13_ligand_xtb.xyz
 N   -0.721396    1.157513    0.101265
 C   -1.550073    2.253514   -0.112113
 O   -1.110102    3.368104   -0.201381
 N   -2.871202    1.935220   -0.207767
 C   -3.472007    0.668559   -0.137269
 O   -4.659941    0.581063   -0.300025
 C   -2.522317   -0.408218    0.123703
 N   -3.025211   -1.714212    0.227438
 O   -2.209133   -2.651841    0.312648
 O   -4.214558   -1.911480    0.224895
 C   -1.144684   -0.123180    0.248998
 N   -0.261207   -1.076556    0.528152
 C    1.167272   -0.937716    0.659812
 C    1.848547   -0.924400   -0.721894
 O    1.662642   -2.161094   -1.380026
 C    3.378248   -0.758816   -0.629239
 O    3.934278   -1.816549    0.115889
 C    3.886463    0.543417    0.023474
 O    3.715401    0.514064    1.421521
 C    3.196916    1.817460   -0.496962
 O    1.985848    2.062003    0.175975
 H    0.274901    1.394411    0.131896
 H   -3.511533    2.703189   -0.376054
 H   -0.696593   -2.011789    0.578397
 H    1.529844   -1.803860    1.217172
 H    1.428274   -0.035106    1.212662
 H    1.433874   -0.108176   -1.329574
 H    0.720777   -2.356481   -1.445336
 H    3.754578   -0.787549   -1.663743
 H    3.597457   -2.636886   -0.266731
 H    4.959603    0.604407   -0.213942
 H    4.048222   -0.342111    1.720775
 H    3.872998    2.668322   -0.361266
 H    2.964825    1.721557   -1.558187
 H    2.210221    2.218428    1.103271
