35 
1t13_ligand_ani.xyz
 N   -0.697068    1.129242    0.017024
 C   -1.514404    2.226199   -0.237797
 O   -1.077995    3.340683   -0.429767
 N   -2.866353    1.950925   -0.251366
 C   -3.502713    0.727943    0.007977
 O   -4.707993    0.691303    0.104163
 C   -2.558371   -0.383294    0.149910
 N   -3.096003   -1.703446    0.205729
 O   -2.474700   -2.579848    0.825562
 O   -4.151048   -1.929263   -0.356831
 C   -1.173297   -0.153358    0.205339
 N   -0.283361   -1.149715    0.394702
 C    1.154103   -0.987441    0.574241
 C    1.875515   -0.833085   -0.768137
 O    1.679423   -2.007986   -1.551361
 C    3.394279   -0.710800   -0.659158
 O    3.917137   -1.861662   -0.012170
 C    3.945601    0.491529    0.118172
 O    3.739643    0.340774    1.512935
 C    3.338652    1.835867   -0.279499
 O    2.084380    2.032906    0.348045
 H    0.293281    1.374930    0.086804
 H   -3.472421    2.748394   -0.379250
 H   -0.706504   -2.013427    0.718400
 H    1.511721   -1.904129    1.052663
 H    1.371557   -0.153921    1.245965
 H    1.475831    0.036911   -1.306353
 H    0.726669   -2.175858   -1.573664
 H    3.777487   -0.646501   -1.689694
 H    3.447381   -2.613594   -0.405983
 H    5.026384    0.521730   -0.094718
 H    3.862464   -0.606955    1.687367
 H    4.031433    2.646649   -0.016374
 H    3.184012    1.873708   -1.363641
 H    2.243237    1.826395    1.284958
