39 
1t69_ligand_ani.xyz
 O    7.356580   -1.123327    0.048061
 O    5.052339   -0.834179   -1.080173
 N    6.238169   -0.824899    0.818321
 C    5.049518   -0.813505    0.146338
 C    3.812769   -0.727411    1.017795
 C    2.623870   -0.107038    0.285483
 C    2.838877    1.364763   -0.061358
 C    1.744333    2.012485   -0.915871
 C    0.336260    1.993271   -0.309337
 C   -0.487065    0.772080   -0.714118
 C   -1.845554    0.749064   -0.022108
 O   -2.095205    1.451327    0.941027
 N   -2.739435   -0.134518   -0.579720
 C   -4.077776   -0.383784   -0.212821
 C   -4.819856   -1.245466   -1.028696
 C   -6.143727   -1.534768   -0.725631
 C   -6.744047   -0.972030    0.396874
 C   -6.001604   -0.118958    1.206967
 C   -4.675260    0.182550    0.916363
 H    6.970499   -1.135891   -0.852933
 H    6.308807   -1.273941    1.721367
 H    4.063379   -0.159009    1.922737
 H    3.558423   -1.745450    1.344621
 H    1.731431   -0.220894    0.913562
 H    2.460471   -0.681399   -0.634818
 H    3.794098    1.460605   -0.592047
 H    2.945457    1.934300    0.873160
 H    1.716696    1.530810   -1.904876
 H    2.041329    3.052858   -1.099300
 H   -0.213774    2.886141   -0.626313
 H    0.377870    2.050176    0.784514
 H    0.041075   -0.159822   -0.468875
 H   -0.630145    0.756318   -1.803553
 H   -2.424157   -0.645767   -1.390255
 H   -4.359244   -1.690005   -1.908931
 H   -6.707509   -2.203882   -1.371003
 H   -7.779441   -1.194901    0.638831
 H   -6.459129    0.328031    2.086770
 H   -4.101406    0.849547    1.546530
