39 
1t69_ligand_dft.xyz
 O    8.223318   -0.730763    0.580060
 O    6.220496   -1.011355   -1.037092
 N    6.948773   -0.328791    0.966900
 C    5.944862   -0.634679    0.096996
 C    4.538301   -0.410153    0.599710
 C    3.723455    0.443692   -0.376068
 C    2.260590    0.577809    0.043342
 C    1.449756    1.436397   -0.929722
 C    0.001700    1.684671   -0.500049
 C   -0.849526    0.417898   -0.462876
 C   -2.294971    0.704691   -0.067446
 O   -2.634879    1.751259    0.453960
 N   -3.150989   -0.335450   -0.337570
 C   -4.528657   -0.447418   -0.064162
 C   -5.157272   -1.644097   -0.426694
 C   -6.512808   -1.827428   -0.189893
 C   -7.262125   -0.820513    0.412202
 C   -6.634284    0.367713    0.770982
 C   -5.276471    0.567920    0.540231
 H    8.050150   -1.044736   -0.332828
 H    6.826353   -0.452119    1.962250
 H    4.550588    0.051152    1.594903
 H    4.069629   -1.397283    0.702821
 H    3.791686   -0.008081   -1.371694
 H    4.179989    1.438857   -0.451071
 H    2.201393    1.018487    1.048911
 H    1.821123   -0.426280    0.119947
 H    1.466821    0.969310   -1.924693
 H    1.949217    2.407428   -1.040857
 H   -0.464001    2.399230   -1.187383
 H   -0.023007    2.157570    0.487624
 H   -0.447100   -0.299152    0.265328
 H   -0.822576   -0.085586   -1.439182
 H   -2.737358   -1.144880   -0.776922
 H   -4.580131   -2.437175   -0.897881
 H   -6.982645   -2.762963   -0.478508
 H   -8.322101   -0.961443    0.598347
 H   -7.206501    1.162224    1.241041
 H   -4.792792    1.492992    0.819786
