29 
1td7_ligand_ani.xyz
 F    3.180904    1.957250   -0.092084
 C    3.725502    0.733384    0.023336
 F    4.426305    0.716258    1.173637
 F    4.620068    0.596146   -0.974418
 C    2.696065   -0.362989   -0.008494
 C    1.345931   -0.038479    0.000563
 C    0.397405   -1.060302   -0.018090
 C    0.829906   -2.394036   -0.042585
 C    2.182945   -2.701289   -0.047771
 C    3.130705   -1.683352   -0.030652
 N   -0.983289   -0.841719   -0.009715
 C   -1.708493    0.321522   -0.015198
 N   -1.061160    1.488585   -0.039325
 C   -3.137653    0.256124    0.004289
 C   -3.852667   -1.059700    0.029792
 O   -3.295080   -2.141332    0.032496
 O   -5.196162   -1.062297    0.050889
 C   -3.826452    1.471198   -0.002223
 C   -3.142544    2.676561   -0.029347
 C   -1.758041    2.623749   -0.048094
 H    1.005546    0.987036    0.019926
 H    0.091871   -3.194394   -0.058410
 H    2.500284   -3.739514   -0.065788
 H    4.193100   -1.902429   -0.034634
 H   -1.570749   -1.674539    0.001353
 H   -5.563126   -0.171121    0.047434
 H   -4.916181    1.509520    0.013685
 H   -3.668593    3.624834   -0.035101
 H   -1.172229    3.540334   -0.069635
