57 
1tfz_ligand_dft.xyz
 O   -5.054743   -3.326348   -0.104804
 C   -6.373617   -3.189141    0.377546
 C   -2.897942   -2.488721   -0.403225
 C   -1.939607   -1.506579   -0.229725
 C   -2.241287   -0.319542    0.455294
 C   -3.518325   -0.160909    0.985095
 C   -4.490981   -1.146062    0.822674
 C   -4.185025   -2.312388    0.120884
 C   -0.043901    0.416222    1.372397
 C    1.029140    1.318391    1.385023
 C    0.955142    2.536356    0.712750
 C   -0.167008    2.848101   -0.036983
 C   -1.209850    1.932419   -0.107884
 C   -1.174820    0.714571    0.590623
 C   -0.012897   -0.834915    2.218554
 C    3.086921   -0.272463    1.725984
 C    2.938749   -0.801290    0.292874
 C    4.570258   -0.101212    1.801885
 N    4.212180   -0.809336   -0.211491
 N    5.165831   -0.399196    0.709257
 O    1.924678   -1.161187   -0.279770
 C    2.338338    1.038649    2.056720
 O    2.869974    1.849276    2.781202
 S   -2.610045    2.465703   -1.120531
 O   -2.172654    3.665206   -1.831157
 O   -3.810859    2.521795   -0.291908
 C   -2.822107    1.187235   -2.355252
 C    4.593536   -1.201419   -1.588328
 C    3.823291   -0.312452   -2.575104
 C    6.097620   -0.994707   -1.769045
 C    4.235737   -2.679429   -1.794663
 H   -6.395693   -3.099593    1.471032
 H   -6.874340   -2.319770   -0.066846
 H   -6.897483   -4.098305    0.080948
 H   -2.676486   -3.405370   -0.939661
 H   -0.940031   -1.645792   -0.634265
 H   -3.772288    0.754040    1.507498
 H   -5.476651   -0.983621    1.242349
 H    1.788622    3.228937    0.767280
 H   -0.238987    3.780720   -0.584443
 H   -1.022722   -1.134269    2.505447
 H    0.437388   -1.666535    1.667705
 H    0.553629   -0.671666    3.140696
 H    2.728376   -1.044629    2.418256
 H    5.125417    0.271877    2.651618
 H   -3.194678    0.273186   -1.894721
 H   -1.865764    1.019784   -2.853797
 H   -3.550529    1.588468   -3.063823
 H    4.071803    0.741548   -2.413469
 H    2.745355   -0.442615   -2.457431
 H    4.097258   -0.577450   -3.601350
 H    6.381480    0.047745   -1.603214
 H    6.677091   -1.617796   -1.083464
 H    6.358961   -1.268161   -2.796158
 H    3.166251   -2.843821   -1.643131
 H    4.795531   -3.309298   -1.095597
 H    4.493787   -2.983352   -2.814412
