151 
1ths_ligand_ani.xyz
 C   -8.140683    3.911809   -2.415226
 O   -7.762979    5.159841   -2.118664
 O   -9.108553    3.371965   -1.920325
 C   -7.226593    3.260698   -3.427143
 C   -7.099156    1.753963   -3.173960
 C   -6.416865    1.462054   -1.848985
 O   -5.211892    1.227272   -1.774633
 N   -7.218373    1.489394   -0.759087
 C   -6.700533    1.234105    0.572457
 C   -6.596099   -0.284103    0.844673
 O   -7.175782   -0.818227    1.777673
 C   -7.567583    1.894617    1.643714
 C   -7.651667    3.400201    1.525149
 C   -6.542427    4.205406    1.783299
 C   -8.846598    4.026504    1.158425
 C   -6.620758    5.592549    1.695985
 C   -8.948590    5.410791    1.086217
 C   -7.825717    6.197564    1.348509
 O   -7.967155    7.545993    1.234024
 N   -5.826891   -0.971551   -0.042933
 C   -5.524235   -2.362426    0.178679
 C   -4.247307   -2.514449    1.027243
 O   -3.410264   -1.616423    1.084539
 C   -5.338317   -3.078981   -1.168760
 C   -6.608700   -3.114680   -2.017716
 C   -7.706676   -4.018836   -1.507552
 O   -7.233586   -5.190566   -1.014086
 O   -8.888602   -3.787014   -1.553218
 N   -4.070512   -3.703487    1.656068
 C   -2.825052   -3.996033    2.386281
 C   -1.671843   -4.327572    1.410795
 O   -1.264349   -5.470070    1.249443
 C   -3.192213   -5.198781    3.251828
 C   -4.260148   -5.918988    2.425861
 C   -5.059593   -4.779668    1.792439
 N   -1.164086   -3.251347    0.759296
 C   -0.008318   -3.308214   -0.097881
 C    1.044293   -2.354535    0.487355
 O    0.693171   -1.270428    0.957205
 C   -0.371960   -2.937057   -1.562958
 C    0.796330   -3.216717   -2.519164
 C   -0.903227   -1.505002   -1.719127
 C    0.435080   -3.036816   -3.993439
 N    2.346924   -2.726611    0.475909
 C    3.390448   -1.788096    0.874318
 C    3.857920   -0.935236   -0.325820
 O    4.011914   -1.405843   -1.453234
 C    4.506118   -2.723611    1.356609
 C    4.394757   -3.909501    0.396764
 C    2.885161   -4.055131    0.152215
 N    4.156334    0.350783   -0.014072
 C    4.541348    1.354209   -0.996058
 C    5.627766    2.289738   -0.452095
 O    5.833690    3.388149   -0.972269
 C    3.364729    2.172537   -1.546111
 C    2.528504    2.881097   -0.472041
 C    1.739765    1.923822    0.399405
 O    0.965136    1.107728   -0.299968
 O    1.795553    1.890091    1.619574
 N    6.347308    1.837797    0.592210
 C    7.318260    2.667013    1.287172
 C    8.682375    2.499354    0.591169
 O    9.619365    1.923055    1.140898
 C    7.377036    2.273796    2.761063
 C    6.148513    2.728189    3.562186
 C    4.834524    2.157693    3.063313
 O    3.894941    3.082576    2.907550
 O    4.647153    0.971657    2.846769
 N    8.722264    2.970469   -0.679098
 C    9.666035    2.476154   -1.690491
 C    9.367138    0.998004   -2.007965
 O    8.897953    0.652154   -3.089897
 C   11.122748    2.747302   -1.319957
 N    9.616949    0.120533   -1.008863
 C    9.106195   -1.238666   -1.085760
 C    7.561750   -1.203743   -0.970681
 O    7.014927   -1.124205    0.127234
 C    9.709857   -2.088574    0.022418
 N    6.900216   -1.255184   -2.146663
 H   -8.332883    5.469390   -1.392307
 H   -7.668664    3.433405   -4.416693
 H   -6.253529    3.760841   -3.409802
 H   -6.493185    1.289285   -3.954858
 H   -8.096955    1.302698   -3.186380
 H   -8.163006    1.843895   -0.859470
 H   -5.680644    1.644543    0.590810
 H   -8.570670    1.455229    1.596263
 H   -7.163219    1.608520    2.619692
 H   -5.597400    3.742495    2.063434
 H   -9.715637    3.421308    0.911421
 H   -5.742926    6.204663    1.902050
 H   -9.880889    5.899498    0.813616
 H   -7.120203    7.967409    1.427136
 H   -5.186747   -0.432321   -0.617753
 H   -6.374835   -2.789898    0.720217
 H   -4.970831   -4.095962   -1.009446
 H   -4.556827   -2.547856   -1.727649
 H   -6.359777   -3.475356   -3.023730
 H   -7.037252   -2.115171   -2.127928
 H   -8.024673   -5.697926   -0.763550
 H   -2.545614   -3.113943    2.976043
 H   -3.604318   -4.851735    4.206445
 H   -2.321249   -5.824100    3.456000
 H   -3.777017   -6.508116    1.641710
 H   -4.888197   -6.583386    3.024728
 H   -5.477236   -5.063918    0.824345
 H   -5.889726   -4.457423    2.437340
 H   -1.578365   -2.342619    0.937462
 H    0.346682   -4.342986   -0.080043
 H   -1.191611   -3.625918   -1.816837
 H    1.651289   -2.571460   -2.269060
 H    1.125562   -4.255055   -2.373649
 H   -0.104361   -0.759084   -1.610291
 H   -1.350031   -1.371410   -2.710251
 H   -1.685571   -1.273014   -0.986001
 H    0.225535   -1.989200   -4.232748
 H    1.256953   -3.361621   -4.639363
 H   -0.451427   -3.626754   -4.256749
 H    3.021497   -1.137153    1.674871
 H    5.486841   -2.242008    1.345250
 H    4.276891   -3.036102    2.380578
 H    4.839472   -4.823525    0.798107
 H    4.889449   -3.664777   -0.547519
 H    2.674272   -4.322928   -0.889515
 H    2.433461   -4.818854    0.798954
 H    4.131392    0.627958    0.964522
 H    4.997913    0.820032   -1.839293
 H    3.780459    2.922538   -2.221729
 H    2.718712    1.505510   -2.123048
 H    3.156739    3.499325    0.176594
 H    1.804175    3.541941   -0.962636
 H    0.658495    0.381794    0.293583
 H    6.356492    0.840933    0.789113
 H    6.983419    3.706325    1.163788
 H    8.277711    2.707604    3.204240
 H    7.487501    1.184834    2.828881
 H    6.255271    2.387958    4.599629
 H    6.073670    3.819563    3.578399
 H    3.074402    2.643935    2.568516
 H    7.842776    3.346454   -1.028467
 H    9.420122    3.009131   -2.612383
 H   11.407136    2.238743   -0.398433
 H   11.259678    3.822733   -1.174720
 H   11.780640    2.415737   -2.129991
 H    9.861875    0.492591   -0.094429
 H    9.377269   -1.635440   -2.069672
 H    9.403654   -1.701147    0.999415
 H   10.801770   -2.079482   -0.046266
 H    9.365307   -3.124795   -0.052567
 H    5.882274   -1.279508   -2.103718
 H    7.357926   -0.886602   -2.972366
