44 
1tkt_ligand_ani.xyz
 C   -1.418730   -1.351323   -0.010756
 C   -2.587294   -0.920118   -0.895884
 C   -3.114897   -2.105806   -1.706842
 C   -3.528539   -3.256996   -0.784189
 C   -2.371372   -3.678615    0.127861
 C   -1.829936   -2.483992    0.916906
 N    1.381590    2.390943   -1.228571
 C    0.085837    2.803529   -0.958848
 O   -0.315065    3.884678   -1.367816
 C   -0.720696    1.859998   -0.179233
 C   -0.186653    0.654330    0.176791
 O   -0.960539   -0.273593    0.821435
 C    1.980731    1.230807   -0.768329
 C    1.206549    0.321308   -0.032111
 C    1.822184   -0.853251    0.466366
 C    3.149379   -1.094897    0.209151
 C    3.914065   -0.196030   -0.549448
 C    3.327744    0.957613   -1.032007
Cl    3.910471   -2.537679    0.824419
 C   -2.080723    2.343232    0.228918
 C   -2.044467    3.347959    1.391992
 C   -1.515898    2.731231    2.684234
 H   -0.599885   -1.691210   -0.660808
 H   -2.280857   -0.094858   -1.553547
 H   -3.391221   -0.538593   -0.250290
 H   -2.326747   -2.451461   -2.391236
 H   -3.957951   -1.793487   -2.334208
 H   -3.887405   -4.111419   -1.370507
 H   -4.372005   -2.927016   -0.160870
 H   -1.561574   -4.099503   -0.486937
 H   -2.690377   -4.475366    0.810458
 H   -2.597947   -2.098312    1.600674
 H   -0.970746   -2.773241    1.534499
 H    1.923671    3.052852   -1.767463
 H    1.240375   -1.549590    1.061405
 H    4.959535   -0.410165   -0.746255
 H    3.917281    1.661791   -1.615710
 H   -2.706834    1.490085    0.516428
 H   -2.540520    2.829097   -0.639466
 H   -3.059334    3.731158    1.553880
 H   -1.429000    4.205857    1.096409
 H   -2.123391    1.869050    2.986328
 H   -0.485612    2.376746    2.564211
 H   -1.527484    3.458959    3.501485
