44 
1tkz_ligand_ani.xyz
 C   -2.145767   -0.501494    0.132553
 C   -2.564120    0.313474   -1.093469
 C   -3.541966   -0.483519   -1.961043
 C   -4.765843   -0.923506   -1.151921
 C   -4.348551   -1.729394    0.081275
 C   -3.362763   -0.938726    0.947267
 N    2.505993    1.130421   -1.426687
 C    1.730014    2.234372   -1.144054
 O    1.992218    3.319231   -1.644813
 C    0.600173    1.998562   -0.230898
 C    0.374267    0.741325    0.269891
 S   -1.053435    0.423335    1.284016
 C    2.350113   -0.129595   -0.882102
 C    1.286574   -0.368594    0.003784
 C    1.170066   -1.659346    0.572493
 C    2.067866   -2.646909    0.241044
 C    3.113591   -2.408058   -0.659330
 C    3.248859   -1.152479   -1.213171
Cl    1.907767   -4.229991    0.950074
 C   -0.167574    3.243849    0.109673
 C    0.518133    4.087144    1.195809
 C    0.654192    3.359319    2.529836
 H   -1.600212   -1.388855   -0.211201
 H   -1.680840    0.610434   -1.671186
 H   -3.050855    1.239767   -0.753215
 H   -3.030838   -1.372756   -2.358424
 H   -3.848138    0.112944   -2.828530
 H   -5.453244   -1.504792   -1.778014
 H   -5.317039   -0.029701   -0.824817
 H   -3.870445   -2.666379   -0.240005
 H   -5.225815   -2.012393    0.674266
 H   -3.853634   -0.037396    1.339181
 H   -3.037439   -1.526941    1.812377
 H    3.273503    1.309592   -2.059812
 H    0.373182   -1.876802    1.276714
 H    3.806695   -3.204898   -0.908761
 H    4.059978   -0.950453   -1.909636
 H   -1.188087    2.992728    0.426401
 H   -0.239482    3.847270   -0.801012
 H   -0.055416    5.012326    1.333595
 H    1.506807    4.384933    0.825685
 H   -0.324974    3.048093    2.913781
 H    1.272308    2.459564    2.427473
 H    1.123623    4.004860    3.279123
