44 
1tkz_ligand_dft.xyz
 C   -2.108402    0.417544    0.136195
 C   -2.197997    1.413441   -1.021302
 C   -3.355037    1.049627   -1.958587
 C   -4.681004    0.973300   -1.196837
 C   -4.587117   -0.004567   -0.022337
 C   -3.425435    0.347676    0.914530
 N    2.821003   -0.043773   -1.336537
 C    2.562861    1.287678   -1.082545
 O    3.265704    2.156691   -1.577638
 C    1.390034    1.562025   -0.219984
 C    0.661676    0.531474    0.290664
 S   -0.765925    0.842985    1.324303
 C    2.120649   -1.113258   -0.824449
 C    1.025624   -0.860226    0.020673
 C    0.344213   -1.959768    0.567029
 C    0.728314   -3.247643    0.253202
 C    1.804872   -3.493781   -0.602332
 C    2.500371   -2.425758   -1.133437
Cl   -0.142113   -4.598975    0.941731
 C    1.128342    3.025443    0.004737
 C    2.085199    3.652447    1.037146
 C    1.933541    3.079406    2.444448
 H   -1.884901   -0.579049   -0.265357
 H   -1.251589    1.437481   -1.572668
 H   -2.357550    2.419512   -0.610578
 H   -3.149250    0.078254   -2.429796
 H   -3.419714    1.785083   -2.768194
 H   -5.491319    0.675774   -1.871853
 H   -4.935586    1.972244   -0.815844
 H   -4.440561   -1.022755   -0.408780
 H   -5.525128   -0.014377    0.543826
 H   -3.617611    1.322075    1.385145
 H   -3.348340   -0.390587    1.720523
 H    3.616852   -0.208899   -1.938947
 H   -0.477097   -1.789186    1.253228
 H    2.092948   -4.512048   -0.838037
 H    3.347235   -2.600049   -1.790968
 H    0.094690    3.170483    0.327074
 H    1.269899    3.540057   -0.950805
 H    1.890187    4.731248    1.058575
 H    3.114070    3.528251    0.683491
 H    0.912769    3.214431    2.819129
 H    2.155697    2.006416    2.466536
 H    2.618127    3.572967    3.141992
