44 
1tl3_ligand_dft.xyz
 C   -1.082313   -1.463640    0.075931
 C   -2.202828   -1.152159   -0.909175
 C   -2.499463   -2.375693   -1.783352
 C   -2.844401   -3.596794   -0.925831
 C   -1.732155   -3.892702    0.084918
 C   -1.418089   -2.665351    0.946628
 N    1.167274    2.803927   -0.708772
 C   -0.126507    3.053989   -0.279996
 O   -0.613220    4.162749   -0.455736
 C   -0.846622    1.919377    0.334894
 C   -0.206346    0.725834    0.457528
 O   -0.828416   -0.369003    0.976038
 C    1.872696    1.644993   -0.487469
 C    1.208166    0.573512    0.127615
 C    1.937872   -0.579841    0.451052
 C    3.271480   -0.672174    0.107799
 C    3.921081    0.374929   -0.552140
 C    3.223932    1.532371   -0.840361
Cl    4.169391   -2.117505    0.511768
 C   -2.257565    2.267317    0.775260
 C   -3.224861    2.346362   -0.416681
 C   -2.838914    1.422416    1.912095
 H   -0.169286   -1.677150   -0.498181
 H   -1.926833   -0.291925   -1.528823
 H   -3.101828   -0.874686   -0.344120
 H   -1.620456   -2.602937   -2.402802
 H   -3.318655   -2.146660   -2.473328
 H   -3.018858   -4.471026   -1.562858
 H   -3.781946   -3.404280   -0.385937
 H   -0.824955   -4.198125   -0.454966
 H   -2.012164   -4.733858    0.728061
 H   -2.285592   -2.407443    1.568292
 H   -0.584300   -2.868807    1.627969
 H    1.625090    3.599939   -1.132568
 H    1.456827   -1.385381    0.992769
 H    4.967861    0.282410   -0.819008
 H    3.725121    2.362973   -1.328795
 H   -2.164795    3.293377    1.150707
 H   -2.835999    3.016419   -1.187652
 H   -3.397285    1.359930   -0.856969
 H   -4.191899    2.738790   -0.083119
 H   -3.117849    0.418454    1.585143
 H   -2.131404    1.316201    2.739715
 H   -3.739259    1.917421    2.293131
