70 
1tl9_ligand_xtb.xyz
 C   -0.201539   -1.778275    1.378328
 O   -0.756025   -0.850777    1.960069
 C    0.894448   -2.591717    2.023702
 N   -0.514761   -2.189289    0.136102
 C   -1.536368   -1.601740   -0.727983
 C   -1.091596   -0.189240   -1.141754
 O   -0.553205    0.014952   -2.216989
 C   -2.922803   -1.644652   -0.081132
 C   -3.459292   -3.075220    0.064678
 C   -4.603936   -3.093336    1.075878
 C   -3.936204   -3.636859   -1.272257
 N   -1.288341    0.762704   -0.213738
 C   -0.739938    2.093369   -0.344517
 C    0.681920    2.201480    0.248502
 O    1.168343    3.268530    0.558551
 C   -1.654214    3.114876    0.329159
 C   -3.055081    3.192717   -0.285392
 C   -3.942234    4.077877    0.587827
 C   -3.016202    3.733407   -1.712501
 N    1.304508    1.015133    0.366131
 C    2.629138    0.797652    0.915613
 C    2.627071    1.163562    2.411838
 O    1.867227    0.262939    3.176509
 C    3.721819    1.564434    0.159806
 C    3.571132    1.596757   -1.368321
 C    3.124080    0.290777   -2.043000
 N    3.745302   -0.876783   -1.469190
 C    3.095492   -2.035441   -1.145919
 N    1.862916   -2.319219   -1.319100
 N    3.914170   -2.986744   -0.573888
 H    1.584577   -2.968179    1.274795
 H    1.420104   -1.983562    2.755996
 H    0.440023   -3.434554    2.541592
 H    0.197084   -2.735108   -0.347853
 H   -1.536990   -2.197862   -1.644633
 H   -3.611662   -1.054708   -0.688952
 H   -2.869006   -1.194277    0.909996
 H   -2.649801   -3.707625    0.445818
 H   -4.262908   -2.747792    2.049111
 H   -4.997627   -4.100617    1.189058
 H   -5.412004   -2.444913    0.743810
 H   -4.750015   -3.031734   -1.666456
 H   -3.134769   -3.653597   -2.006207
 H   -4.297891   -4.654652   -1.145903
 H   -1.535638    0.463981    0.725754
 H   -0.647028    2.301731   -1.416986
 H   -1.740205    2.845615    1.385326
 H   -1.166226    4.088874    0.275180
 H   -3.481609    2.183342   -0.305915
 H   -4.002393    3.685484    1.600415
 H   -3.537849    5.086510    0.634643
 H   -4.949441    4.130399    0.181037
 H   -4.026805    3.854112   -2.096272
 H   -2.485706    3.055859   -2.376404
 H   -2.521995    4.702182   -1.736955
 H    0.825687    0.194564    0.038107
 H    2.813080   -0.277631    0.835045
 H    3.644331    1.104045    2.805866
 H    2.262647    2.191123    2.525076
 H    0.945213    0.275739    2.876485
 H    4.679591    1.115947    0.430255
 H    3.723362    2.597452    0.509636
 H    4.533949    1.904069   -1.782720
 H    2.842583    2.362213   -1.637065
 H    3.350093    0.360123   -3.116304
 H    2.042152    0.183203   -1.949831
 H    4.752131   -0.885457   -1.448744
 H    1.359747   -1.644559   -1.886202
 H    3.427175   -3.791855   -0.216311
 H    4.682593   -2.666223   -0.007939
