27 
1tni_ligand_ani.xyz
 C   -3.201267   -0.204282    0.404404
 C   -1.861816    0.099110   -0.267782
 C   -1.292679    1.439981    0.194388
 C    0.059893    1.788284   -0.448881
 C    1.136704    0.752877   -0.202684
 C    1.597214    0.493577    1.091253
 C    2.578799   -0.464929    1.321640
 C    3.113496   -1.188455    0.259456
 C    2.661592   -0.944573   -1.032903
 C    1.681619    0.019176   -1.258158
 N   -3.786473   -1.511166   -0.051409
 H   -3.918473    0.585880    0.182916
 H   -3.075376   -0.247850    1.485839
 H   -1.991138    0.116326   -1.359809
 H   -1.136929   -0.694863   -0.043450
 H   -1.177998    1.426607    1.287511
 H   -2.009370    2.242301   -0.029308
 H    0.392412    2.765363   -0.071557
 H   -0.076906    1.907509   -1.531637
 H    1.184503    1.054411    1.929380
 H    2.926247   -0.649342    2.335830
 H    3.880160   -1.938503    0.439563
 H    3.073402   -1.503079   -1.870823
 H    1.330010    0.207032   -2.271726
 H   -4.684021   -1.694718    0.414480
 H   -3.931178   -1.474046   -1.073767
 H   -3.121369   -2.269465    0.172028
