27 
1tni_ligand_xtb.xyz
 C   -3.094302   -0.146247    0.538150
 C   -1.849348    0.134298   -0.287648
 C   -1.242364    1.492177    0.076371
 C    0.061052    1.736174   -0.694342
 C    1.108056    0.715468   -0.337477
 C    1.775630    0.797044    0.878859
 C    2.720202   -0.150703    1.229551
 C    3.009041   -1.195644    0.367415
 C    2.351932   -1.284704   -0.847432
 C    1.405594   -0.335532   -1.195465
 N   -3.653520   -1.494366    0.195108
 H   -3.861732    0.604809    0.345442
 H   -2.853603   -0.134843    1.602019
 H   -2.095509    0.132058   -1.351369
 H   -1.095956   -0.635707   -0.105963
 H   -1.033365    1.518578    1.146744
 H   -1.954007    2.286662   -0.151498
 H    0.425789    2.733604   -0.446527
 H   -0.138949    1.706712   -1.766509
 H    1.563730    1.618290    1.548544
 H    3.238081   -0.069656    2.173109
 H    3.750879   -1.931376    0.637141
 H    2.580939   -2.089962   -1.529320
 H    0.906368   -0.402280   -2.152569
 H   -4.489588   -1.711127    0.751975
 H   -3.901191   -1.523640   -0.802963
 H   -2.940205   -2.215542    0.368105
