21 
1tog_ligand_ani.xyz
 C   -2.388739   -0.264472    0.129243
 O   -2.244443   -1.161409   -0.658952
 O   -3.249061   -0.408476    1.162874
 C   -1.698539    1.086801    0.039900
 C   -0.550790    1.127859   -0.975805
 C    0.724981    0.482718   -0.476996
 C    1.723453    1.259652    0.114116
 C    2.889949    0.677458    0.601354
 C    3.074257   -0.697247    0.499786
 C    2.085061   -1.481853   -0.086411
 C    0.918499   -0.898456   -0.569517
 H   -3.265437    0.394855    1.701031
 H   -1.342332    1.377560    1.036115
 H   -2.471440    1.818091   -0.239887
 H   -0.344440    2.172933   -1.233130
 H   -0.890670    0.630928   -1.890587
 H    1.589827    2.337403    0.188114
 H    3.656776    1.299618    1.057199
 H    3.984887   -1.156947    0.876345
 H    2.223403   -2.557347   -0.169232
 H    0.138662   -1.512773   -1.011366
