21 
1toi_ligand_ani.xyz
 C   -2.390734   -0.263903    0.129089
 O   -2.243602   -1.162150   -0.657143
 O   -3.259053   -0.404149    1.156528
 C   -1.695513    1.085066    0.043892
 C   -0.550206    1.126148   -0.974730
 C    0.726816    0.481696   -0.478465
 C    1.726065    1.259829    0.109721
 C    2.891694    0.678300    0.599728
 C    3.074826   -0.696893    0.502739
 C    2.086117   -1.482359   -0.083172
 C    0.920228   -0.899624   -0.568768
 H   -3.277356    0.400021    1.693494
 H   -1.335701    1.369382    1.040728
 H   -2.466133    1.820856   -0.230133
 H   -0.344560    2.171190   -1.232638
 H   -0.892202    0.628957   -1.888553
 H    1.593403    2.337992    0.179231
 H    3.658529    1.301302    1.054410
 H    3.984241   -1.156291    0.882610
 H    2.224311   -2.558050   -0.163628
 H    0.140947   -1.514531   -1.010799
