21 
1toj_ligand_dft.xyz
 C   -2.332532   -0.273652    0.166063
 O   -2.297062   -1.148760   -0.657374
 O   -3.008558   -0.461283    1.319932
 C   -1.708283    1.103655   -0.016154
 C   -0.579225    1.111093   -1.053794
 C    0.691468    0.481382   -0.528815
 C    1.631210    1.259433    0.152143
 C    2.786729    0.688478    0.676477
 C    3.018534   -0.675921    0.525289
 C    2.089138   -1.460358   -0.151965
 C    0.933804   -0.886690   -0.675074
 H   -2.929346    0.318620    1.884469
 H   -1.336554    1.484612    0.943691
 H   -2.518917    1.774131   -0.333110
 H   -0.382496    2.149337   -1.341986
 H   -0.928202    0.582872   -1.945711
 H    1.458607    2.327857    0.266877
 H    3.508550    1.310145    1.198479
 H    3.920587   -1.124629    0.930772
 H    2.263137   -2.525281   -0.275700
 H    0.204525   -1.501843   -1.193259
