21 
1toj_ligand_ani.xyz
 C   -2.389064   -0.262472    0.128430
 O   -2.255456   -1.151130   -0.671086
 O   -3.240238   -0.414838    1.168311
 C   -1.694293    1.087033    0.047582
 C   -0.550391    1.132201   -0.972389
 C    0.725695    0.483950   -0.478742
 C    1.726219    1.258614    0.111873
 C    2.890552    0.673572    0.600735
 C    3.071274   -0.701672    0.499711
 C    2.081031   -1.483792   -0.088102
 C    0.916130   -0.897617   -0.571901
 H   -3.248322    0.382410    1.715751
 H   -1.332404    1.367601    1.044695
 H   -2.465763    1.823577   -0.222064
 H   -0.343546    2.178238   -1.225290
 H   -0.893465    0.639731   -1.888389
 H    1.595401    2.336815    0.184411
 H    3.658180    1.293745    1.057937
 H    3.980032   -1.163701    0.877928
 H    2.217322   -2.559506   -0.171389
 H    0.135195   -1.510065   -1.014577
