144 
1tps_ligand_dft.xyz
 C   -1.254986   -3.035121   -2.019105
 C   -2.515414   -3.537414   -1.334486
 N   -3.384263   -2.378243   -1.253628
 C   -4.187612   -2.118734   -0.199281
 C   -4.761054   -0.682974   -0.105281
 N   -4.474923    0.114644   -1.295894
 C   -3.329050    0.858626   -1.465818
 C   -2.727194    1.517229   -0.218062
 N   -1.409264    2.128455   -0.433378
 C   -0.545092    2.054113    0.623481
 C    0.830588    2.674243    0.401146
 N    1.634621    1.830859   -0.464076
 C    2.869853    1.405489   -0.125289
 C    3.510722    0.449716   -1.139967
 N    2.664285   -0.734701   -1.227292
 C    3.109531   -1.992847   -1.068284
 C    1.994315   -3.027549   -0.815309
 C    1.087919   -3.161888   -2.056509
 O   -0.169194   -3.706637   -1.630026
 N    1.315120   -2.701762    0.432313
 C    0.485297   -1.652049    0.625935
 C    0.271376   -1.248650    2.089691
 N    1.516195   -0.696639    2.619329
 C    2.610064   -1.396913    2.965439
 C    3.712744   -0.563209    3.639272
 C    5.089753   -1.029510    3.198757
 O   -1.263631   -2.143956   -2.838423
 C   -3.115301   -4.735524   -2.113205
 C   -3.513738   -4.357772   -3.541460
 C   -4.297511   -5.341980   -1.355851
 O   -4.448192   -2.933728    0.674792
 O   -2.868022    1.033134   -2.591438
 O   -0.856939    1.576684    1.709545
 O    3.436523    1.747381    0.907694
 O    4.296177   -2.315676   -1.095230
 C   -6.253267   -0.749422    0.267459
 C   -6.788324    0.549556    0.810410
 C   -7.524268    1.430829    0.023476
 C   -7.970147    2.650794    0.526149
 C   -7.678841    3.004343    1.842060
 O   -8.063967    4.186308    2.391480
 C   -6.950423    2.129695    2.650448
 C   -6.518775    0.918384    2.133676
 C   -5.242325   -0.215816   -2.495932
 C   -3.685841    2.520334    0.467330
 C   -3.909432    3.865915   -0.236964
 C   -4.753194    3.743706   -1.510053
 C   -4.562664    4.848106    0.740273
 C    0.634121    4.078990   -0.164297
 C   -0.152168    4.037087   -1.482875
 C   -1.004765    2.772184   -1.690858
 O   -0.270240    1.877829   -2.504048
 C    3.715154    1.101989   -2.515282
 C    4.459078    2.438339   -2.451776
 C    5.814450    2.336604   -1.757249
 N    6.520344    3.599827   -1.838923
 C    7.731306    3.742816   -1.158859
 N    8.347467    4.961118   -1.471973
 N    8.289820    2.935802   -0.344347
 C    1.712853   -4.069172   -3.101293
 O   -0.033022   -1.008242   -0.292513
 C   -0.363360   -2.344394    2.951705
 C   -1.830171   -2.578144    2.557560
 C   -2.741964   -1.447626    3.048653
 C   -2.327558   -3.930235    3.067157
 O    2.744401   -2.613711    2.812191
 O    3.516895    0.815606    3.510886
 O    5.244181   -0.622991    1.823602
 S    6.603090   -1.084419    1.089552
 O    7.671092   -1.152656    2.047658
 O    6.673318   -0.246960   -0.083926
 O    6.257476   -2.572171    0.680206
 H   -2.272685   -3.867327   -0.320231
 H   -3.148543   -1.641059   -1.906096
 H   -4.241940   -0.241739    0.748618
 H   -2.528528    0.724028    0.507615
 H    1.328452    2.710221    1.369837
 H    1.210711    1.575762   -1.355465
 H    4.470810    0.144176   -0.723277
 H    1.656262   -0.599595   -1.166215
 H    2.500162   -3.979894   -0.642622
 H    0.884251   -2.183936   -2.489872
 H    1.803623   -3.019140    1.274098
 H   -0.406158   -0.399559    2.039860
 H    1.555600    0.300090    2.796898
 H    3.636448   -0.793614    4.709815
 H    5.863868   -0.545316    3.796467
 H    5.164106   -2.116439    3.278810
 H   -2.314802   -5.486466   -2.158372
 H   -3.916351   -5.232541   -4.061554
 H   -2.671456   -3.972873   -4.123452
 H   -4.293912   -3.588021   -3.531097
 H   -4.029469   -5.600662   -0.327717
 H   -5.132868   -4.636484   -1.306600
 H   -4.644235   -6.246677   -1.866192
 H   -6.333646   -1.537562    1.020805
 H   -6.840074   -1.081123   -0.595490
 H   -7.763237    1.167997   -1.003982
 H   -8.543522    3.323393   -0.107993
 H   -8.558712    4.697136    1.739630
 H   -6.736539    2.414806    3.674855
 H   -5.947358    0.245004    2.769137
 H   -6.204351    0.304729   -2.479594
 H   -4.677232    0.097249   -3.371243
 H   -5.423062   -1.292871   -2.559367
 H   -3.248942    2.703921    1.455148
 H   -4.656149    2.044486    0.635849
 H   -2.928062    4.282205   -0.503367
 H   -4.925098    4.730439   -1.954166
 H   -4.278960    3.119710   -2.273655
 H   -5.729515    3.304155   -1.273896
 H   -5.542236    4.482240    1.067108
 H   -3.946072    4.990009    1.634375
 H   -4.707339    5.827146    0.270104
 H    0.086738    4.663196    0.584072
 H    1.607885    4.557940   -0.300074
 H   -0.807020    4.910687   -1.545359
 H    0.522488    4.084682   -2.341140
 H   -1.923065    3.040126   -2.208587
 H   -0.906901    1.181988   -2.746258
 H    4.273554    0.386874   -3.130090
 H    2.741504    1.246464   -3.000936
 H    4.595396    2.801149   -3.479113
 H    3.848639    3.190070   -1.935429
 H    6.395217    1.504030   -2.186171
 H    5.670062    2.106171   -0.697560
 H    6.561508    3.992045   -2.772006
 H    9.158362    5.095702   -0.880814
 H    7.715491    5.751072   -1.417337
 H    7.819493    2.033471   -0.300341
 H    2.712779   -3.708889   -3.364302
 H    1.803005   -5.091150   -2.720338
 H    1.099459   -4.079322   -4.006063
 H   -0.306354   -2.029381    4.001099
 H    0.205943   -3.275375    2.874082
 H   -1.888534   -2.598271    1.459938
 H   -2.440672   -0.465785    2.663413
 H   -3.772938   -1.643100    2.736404
 H   -2.724109   -1.389292    4.144169
 H   -1.706859   -4.748347    2.683834
 H   -3.358522   -4.102595    2.745543
 H   -2.292538   -3.969808    4.163193
 H    3.748046    1.089992    2.601075
 H    5.550496   -2.559732   -0.020158
