144 
1tps_ligand_ani.xyz
 C   -1.276581   -3.043101   -2.297110
 C   -2.574761   -3.426339   -1.611714
 N   -3.342957   -2.197619   -1.463446
 C   -4.132164   -1.963798   -0.379057
 C   -4.751413   -0.550243   -0.180956
 N   -4.481441    0.401708   -1.262797
 C   -3.261821    1.040389   -1.375989
 C   -2.675186    1.683426   -0.099804
 N   -1.340949    2.285220   -0.281853
 C   -0.424944    2.070497    0.724909
 C    0.961217    2.674231    0.509644
 N    1.687804    1.813839   -0.408744
 C    2.981452    1.470313   -0.225543
 C    3.555671    0.475024   -1.239344
 N    2.688059   -0.685934   -1.333671
 C    3.131258   -1.951997   -1.174043
 C    2.022099   -3.012498   -0.999065
 C    1.066204   -3.058892   -2.207707
 O   -0.198780   -3.618449   -1.759414
 N    1.364839   -2.804184    0.289818
 C    0.483174   -1.804192    0.539105
 C    0.069774   -1.605212    2.007706
 N    1.127742   -0.850226    2.685823
 C    2.319035   -1.374965    3.021560
 C    3.281334   -0.393478    3.720842
 C    4.727047   -0.806840    3.512330
 O   -1.250267   -2.281262   -3.244276
 C   -3.300926   -4.541909   -2.412784
 C   -3.754807   -4.080533   -3.798437
 C   -4.481669   -5.101213   -1.621234
 O   -4.352524   -2.824621    0.462330
 O   -2.707394    1.080392   -2.472236
 O   -0.695836    1.424281    1.729708
 O    3.669262    1.924192    0.692619
 O    4.322804   -2.261397   -1.127115
 C   -6.246461   -0.681437    0.182036
 C   -6.820575    0.586953    0.771540
 C   -7.531553    1.511733    0.002772
 C   -8.020442    2.691850    0.554804
 C   -7.801072    2.965672    1.903348
 O   -8.237082    4.112288    2.502133
 C   -7.088480    2.061451    2.688386
 C   -6.612080    0.887318    2.123143
 C   -5.203943    0.196886   -2.521870
 C   -3.649906    2.635053    0.620236
 C   -3.920275    4.004679   -0.024493
 C   -4.687341    3.916509   -1.347869
 C   -4.679594    4.889498    0.970252
 C    0.826115    4.118520    0.024816
 C   -0.112341    4.261075   -1.188313
 C   -0.961346    3.018926   -1.485208
 O   -0.236280    2.191554   -2.381672
 C    3.781251    1.123102   -2.615670
 C    4.631601    2.395016   -2.568630
 C    5.955650    2.170474   -1.850894
 N    6.842125    3.306812   -2.025919
 C    8.106703    3.266637   -1.428131
 N    8.931020    4.292222   -1.910449
 N    8.556238    2.446768   -0.563913
 C    1.625548   -3.901478   -3.341105
 O    0.072692   -1.026611   -0.326903
 C   -0.343512   -2.888647    2.747217
 C   -1.800225   -3.297689    2.480469
 C   -2.784899   -2.464426    3.304599
 C   -1.994179   -4.785871    2.765255
 O    2.628628   -2.555015    2.843286
 O    3.031173    0.940122    3.352793
 O    5.045894   -0.519447    2.128306
 S    6.516372   -0.909540    1.608571
 O    7.353875   -1.208670    2.735892
 O    6.883102    0.116761    0.661310
 O    6.231530   -2.263874    0.853709
 H   -2.352661   -3.810787   -0.610101
 H   -3.085095   -1.455035   -2.102723
 H   -4.251685   -0.165768    0.715504
 H   -2.490721    0.856241    0.591112
 H    1.489649    2.645188    1.464623
 H    1.193933    1.575669   -1.264947
 H    4.513233    0.137126   -0.826821
 H    1.685243   -0.542646   -1.230284
 H    2.535257   -3.973540   -0.928105
 H    0.842907   -2.052035   -2.566004
 H    1.880778   -3.145633    1.097630
 H   -0.774951   -0.913958    1.959734
 H    1.008820    0.155739    2.726039
 H    3.070005   -0.469771    4.796301
 H    5.391260   -0.216111    4.146117
 H    4.860653   -1.872170    3.707036
 H   -2.556957   -5.344564   -2.538430
 H   -4.185859   -4.921963   -4.351238
 H   -2.930206   -3.664429   -4.382991
 H   -4.529149   -3.309560   -3.710545
 H   -4.177109   -5.419328   -0.619409
 H   -5.261739   -4.342137   -1.500454
 H   -4.918889   -5.960329   -2.140386
 H   -6.318362   -1.493241    0.911228
 H   -6.816293   -1.006189   -0.694346
 H   -7.714222    1.312798   -1.051597
 H   -8.565036    3.401302   -0.067653
 H   -8.727607    4.627720    1.849694
 H   -6.917783    2.295774    3.734886
 H   -6.054256    0.187160    2.746184
 H   -6.282648    0.212657   -2.344913
 H   -4.953769    1.013034   -3.202045
 H   -4.949504   -0.752005   -3.015286
 H   -3.220274    2.802662    1.614624
 H   -4.602989    2.117439    0.777534
 H   -2.948123    4.484672   -0.216305
 H   -4.873230    4.920692   -1.745309
 H   -4.143384    3.354454   -2.115239
 H   -5.660976    3.427535   -1.205496
 H   -5.651463    4.451043    1.228042
 H   -4.113107    5.017973    1.899498
 H   -4.865362    5.883498    0.548500
 H    0.436993    4.705924    0.864503
 H    1.823723    4.507153   -0.203195
 H   -0.774950    5.121562   -1.042852
 H    0.459378    4.451419   -2.100733
 H   -1.890592    3.330948   -1.971216
 H   -0.889277    1.528200   -2.672916
 H    4.276031    0.371608   -3.242764
 H    2.812034    1.332186   -3.086061
 H    4.821514    2.722825   -3.598871
 H    4.086073    3.205811   -2.069263
 H    6.420477    1.230575   -2.203181
 H    5.766837    2.056070   -0.779042
 H    6.889641    3.647482   -2.980044
 H    9.780537    4.327714   -1.360758
 H    8.474634    5.195505   -1.946807
 H    7.888493    1.727138   -0.285766
 H    2.598187   -3.505733   -3.651246
 H    1.751588   -4.939518   -3.017980
 H    0.952579   -3.879450   -4.202883
 H   -0.202018   -2.729291    3.821406
 H    0.332091   -3.704267    2.471563
 H   -2.019416   -3.124123    1.415424
 H   -2.683042   -1.390046    3.106860
 H   -3.814833   -2.749731    3.074958
 H   -2.615813   -2.621129    4.377782
 H   -1.339515   -5.397609    2.133916
 H   -3.029583   -5.091119    2.571524
 H   -1.764423   -5.017005    3.813777
 H    3.473387    1.112925    2.499202
 H    5.629430   -2.107599    0.086161
