144 
1tps_ligand_xtb.xyz
 C   -1.118068   -2.790156   -1.982402
 C   -2.402883   -3.392719   -1.431011
 N   -3.314576   -2.281875   -1.286568
 C   -4.199748   -2.121407   -0.293140
 C   -4.816765   -0.701847   -0.185978
 N   -4.443492    0.147913   -1.298143
 C   -3.375147    0.985782   -1.342380
 C   -2.804988    1.458238   -0.010250
 N   -1.485293    2.085190   -0.092759
 C   -0.660564    1.825550    0.947163
 C    0.712598    2.480317    0.869588
 N    1.549081    1.846329   -0.120576
 C    2.756658    1.334894    0.147925
 C    3.426985    0.650575   -1.054853
 N    2.701183   -0.595356   -1.240911
 C    3.237717   -1.811499   -1.133664
 C    2.186707   -2.924834   -0.931494
 C    1.215349   -3.004253   -2.126370
 O   -0.050287   -3.506577   -1.672348
 N    1.546810   -2.694973    0.354408
 C    0.722355   -1.685833    0.661882
 C    0.512106   -1.486106    2.166625
 N    1.780266   -1.117688    2.781545
 C    2.858053   -1.881820    2.947736
 C    4.028238   -1.157086    3.632833
 C    5.305764   -1.452643    2.834814
 O   -1.119227   -1.791521   -2.658172
 C   -2.906457   -4.478089   -2.417278
 C   -3.445702   -3.849086   -3.699475
 C   -3.967585   -5.344267   -1.745486
 O   -4.516661   -2.989414    0.492562
 O   -2.929028    1.354376   -2.421264
 O   -1.011079    1.181553    1.920439
 O    3.259781    1.348352    1.258120
 O    4.433126   -2.062464   -1.155693
 C   -6.339500   -0.831842    0.015990
 C   -6.959573    0.428910    0.545668
 C   -7.717492    1.259223   -0.266089
 C   -8.273630    2.426244    0.228617
 C   -8.078249    2.782642    1.556802
 O   -8.596038    3.920748    2.088201
 C   -7.324971    1.951999    2.383157
 C   -6.776574    0.792016    1.877833
 C   -5.081852   -0.158506   -2.571247
 C   -3.778119    2.361981    0.781185
 C   -4.008709    3.775544    0.236102
 C   -4.875928    3.770426   -1.020310
 C   -4.682065    4.616287    1.321290
 C    0.470983    3.956606    0.547131
 C   -0.177769    4.090375   -0.829914
 C   -1.054976    2.886875   -1.228099
 O   -0.329705    2.100520   -2.141364
 C    3.404111    1.491051   -2.336391
 C    4.144236    2.817586   -2.164148
 C    5.663656    2.632766   -2.193837
 N    6.326718    3.883785   -1.910328
 C    7.557266    3.955030   -1.275348
 N    8.184062    5.184593   -1.471818
 N    8.153800    3.089478   -0.575869
 C    1.771938   -3.917655   -3.209899
 O    0.190234   -0.946747   -0.160024
 C   -0.149650   -2.697899    2.830031
 C   -1.594093   -2.855983    2.336162
 C   -2.539436   -1.896235    3.054963
 C   -2.078490   -4.292819    2.509776
 O    2.957139   -3.055382    2.604751
 O    3.797253    0.208250    3.786742
 O    5.205428   -0.783141    1.592485
 S    6.591694   -0.734451    0.818764
 O    7.651612   -0.569088    1.741947
 O    6.428228    0.208014   -0.234185
 O    6.678679   -2.176466    0.230788
 H   -2.225857   -3.859954   -0.458406
 H   -3.046988   -1.494883   -1.866210
 H   -4.410646   -0.294767    0.742303
 H   -2.619414    0.568740    0.605949
 H    1.207530    2.366408    1.839952
 H    1.136361    1.764042   -1.045118
 H    4.456953    0.407657   -0.775123
 H    1.685655   -0.520484   -1.183372
 H    2.716808   -3.877370   -0.842041
 H    1.030560   -2.006506   -2.541184
 H    2.016165   -3.142463    1.151665
 H   -0.142674   -0.618002    2.277073
 H    1.883764   -0.162379    3.106733
 H    4.140811   -1.581477    4.638565
 H    6.193404   -1.079989    3.351408
 H    5.401449   -2.529635    2.663854
 H   -2.042316   -5.105520   -2.661689
 H   -3.638944   -4.621459   -4.439615
 H   -2.735550   -3.140133   -4.118026
 H   -4.379699   -3.328899   -3.501103
 H   -3.549214   -5.869466   -0.890998
 H   -4.793006   -4.732647   -1.392431
 H   -4.351718   -6.078410   -2.449425
 H   -6.476299   -1.640796    0.737795
 H   -6.823710   -1.126541   -0.914178
 H   -7.891111    0.993461   -1.298885
 H   -8.864587    3.061714   -0.417967
 H   -9.108633    4.394827    1.422537
 H   -7.186301    2.234025    3.414379
 H   -6.201437    0.150428    2.529420
 H   -5.982390    0.446078   -2.688769
 H   -4.394488    0.086644   -3.379981
 H   -5.341156   -1.213153   -2.625147
 H   -3.357870    2.445598    1.786212
 H   -4.746148    1.868274    0.864426
 H   -3.042722    4.235171    0.006401
 H   -5.059715    4.789749   -1.353099
 H   -4.400526    3.233626   -1.835253
 H   -5.834049    3.299310   -0.809326
 H   -5.636402    4.178089    1.602503
 H   -4.056837    4.673855    2.209016
 H   -4.858996    5.627352    0.962417
 H   -0.182934    4.366693    1.319331
 H    1.412920    4.504468    0.575308
 H   -0.776657    5.000271   -0.866465
 H    0.590358    4.168506   -1.599959
 H   -1.961400    3.250960   -1.722029
 H   -0.962535    1.487664   -2.553983
 H    3.883875    0.911448   -3.127568
 H    2.372282    1.676997   -2.644432
 H    3.851767    3.499551   -2.967471
 H    3.864657    3.278040   -1.215066
 H    5.961717    2.239125   -3.177824
 H    5.963151    1.907923   -1.437308
 H    6.177618    4.601099   -2.606666
 H    8.977574    5.283507   -0.855313
 H    7.570693    5.986347   -1.452724
 H    7.713186    2.180674   -0.500927
 H    2.764670   -3.578991   -3.491903
 H    1.833999   -4.938870   -2.842175
 H    1.127701   -3.897423   -4.085538
 H   -0.140610   -2.551703    3.911753
 H    0.422124   -3.600563    2.612240
 H   -1.609651   -2.612924    1.267792
 H   -2.238515   -0.861868    2.908691
 H   -3.548758   -2.027801    2.672077
 H   -2.549174   -2.106006    4.122261
 H   -1.433068   -4.987203    1.975068
 H   -3.090628   -4.387668    2.123497
 H   -2.080834   -4.566780    3.562208
 H    3.903451    0.642529    2.918758
 H    5.945880   -2.266781   -0.409132
