36 
1tr7_ligand_xtb.xyz
 C   -4.177356   -0.176462    0.287823
 C   -5.266591    0.127489    1.308426
 C   -2.186509    0.734345   -0.975026
 C   -3.304531    1.045483    0.011894
 C    0.466001   -1.760624   -0.536403
 O    1.364438   -2.321249   -1.453157
 C    1.183370   -1.333915    0.747193
 O    1.915047   -2.439687    1.223576
 C    2.117327   -0.152405    0.456049
 O    2.723724    0.215352    1.672698
 C    1.301602    0.982689   -0.175139
 O    0.663542    0.539796   -1.359634
 C    2.182760    2.161508   -0.596241
 O    2.754524    2.753503    0.553615
 O   -1.305632   -0.211700   -0.382043
 C   -0.212022   -0.542389   -1.178718
 H   -3.539196   -0.981371    0.653834
 H   -4.635281   -0.509363   -0.646230
 H   -5.915089    0.924192    0.949711
 H   -5.875581   -0.754560    1.490528
 H   -4.828167    0.442441    2.252613
 H   -2.595654    0.311458   -1.904326
 H   -1.630288    1.646040   -1.229297
 H   -3.912417    1.855168   -0.396737
 H   -2.857552    1.388515    0.946184
 H   -0.322033   -2.484757   -0.278129
 H    1.938511   -2.907766   -0.939050
 H    0.435683   -1.016873    1.488630
 H    2.509851   -2.102206    1.905033
 H    2.881594   -0.479307   -0.269718
 H    2.968969    1.149859    1.612187
 H    0.557707    1.327886    0.559617
 H    1.556722    2.878886   -1.139658
 H    2.960467    1.793103   -1.277225
 H    3.274742    3.518149    0.285820
 H   -0.522431   -0.801938   -2.203373
