36 
1tr7_ligand_ani.xyz
 C   -4.192194   -0.189417    0.271332
 C   -5.329908    0.108162    1.242722
 C   -2.153164    0.760939   -0.924943
 C   -3.289753    1.022071    0.047302
 C    0.490304   -1.755470   -0.541647
 O    1.452377   -2.233205   -1.454635
 C    1.177186   -1.323078    0.744002
 O    1.948594   -2.420343    1.194719
 C    2.083605   -0.133612    0.467860
 O    2.657615    0.214367    1.709138
 C    1.272241    1.002348   -0.158156
 O    0.647108    0.536393   -1.354270
 C    2.132291    2.175556   -0.598067
 O    2.811672    2.691200    0.544032
 O   -1.312335   -0.253702   -0.383448
 C   -0.211769   -0.565807   -1.188676
 H   -3.584447   -1.020589    0.645905
 H   -4.601160   -0.515751   -0.694459
 H   -5.965401    0.921751    0.872804
 H   -5.965815   -0.769772    1.395698
 H   -4.938978    0.412281    2.220688
 H   -2.546895    0.424298   -1.898750
 H   -1.575003    1.677532   -1.104551
 H   -3.882367    1.860446   -0.343099
 H   -2.867642    1.352769    1.005344
 H   -0.263933   -2.524503   -0.315072
 H    2.019438   -2.822195   -0.934295
 H    0.426233   -1.036845    1.495793
 H    2.560383   -2.065175    1.857471
 H    2.855027   -0.448728   -0.256068
 H    2.990540    1.123613    1.622302
 H    0.522537    1.346705    0.572077
 H    1.494227    2.941076   -1.057013
 H    2.843785    1.811119   -1.351888
 H    3.514505    3.281398    0.250863
 H   -0.548305   -0.837277   -2.198407
