44 
1tsl_ligand_xtb.xyz
 C   -0.514681    1.548560   -2.121867
 C   -1.301747    2.304914   -1.125922
 C   -2.190482    3.271202   -1.538137
 C   -2.815864    4.099402   -0.599497
 C   -2.515943    3.989337    0.732609
 C   -1.607309    3.013742    1.193647
 C   -1.265064    2.867342    2.553339
 C   -0.388611    1.893364    2.946107
 C    0.155123    0.997001    2.014483
 C   -0.165208    1.101786    0.684440
 C   -1.022101    2.133390    0.249522
 C    0.266122    0.082801   -0.344445
 C    1.647895   -0.456607   -0.012781
 C    2.765355    0.281622   -0.380546
 C    4.033274   -0.166609   -0.065665
 C    4.214833   -1.362819    0.634966
 C    3.088883   -2.087395    1.005299
 C    1.818603   -1.642587    0.685868
 C   -0.753615   -1.052118   -0.436653
 C   -1.783414   -1.218423    0.477459
 C   -2.687150   -2.254487    0.324287
 C   -2.588697   -3.143012   -0.748521
 C   -1.551888   -2.964442   -1.658049
 C   -0.645247   -1.934898   -1.504203
 O    0.367082    0.644395   -1.662887
 O   -0.559108    1.766543   -3.306658
 O    5.472697   -1.766690    0.926087
 O   -3.497520   -4.138411   -0.861347
Cl    5.416297    0.749753   -0.529325
Cl   -3.962576   -2.454238    1.467657
 H   -2.379108    3.388204   -2.594432
 H   -3.519019    4.845542   -0.937862
 H   -2.971775    4.652062    1.453992
 H   -1.707508    3.535313    3.277480
 H   -0.120283    1.790571    3.986741
 H    0.815121    0.212466    2.352280
 H    2.648489    1.202786   -0.927890
 H    3.213210   -3.014114    1.548962
 H    0.960756   -2.226098    0.982847
 H   -1.897366   -0.551439    1.316944
 H   -1.461348   -3.642593   -2.495347
 H    0.150907   -1.802169   -2.219645
 H    5.451380   -2.606215    1.401262
 H   -3.320329   -4.661156   -1.652992
