44 
1tsl_ligand_dft.xyz
 C   -0.582435    1.560085   -2.125723
 C   -1.345929    2.312731   -1.099814
 C   -2.265872    3.255632   -1.493927
 C   -2.884311    4.083896   -0.534910
 C   -2.544094    3.982654    0.791952
 C   -1.597219    3.022468    1.231246
 C   -1.207814    2.889942    2.589383
 C   -0.290698    1.940399    2.956640
 C    0.252208    1.052490    1.997604
 C   -0.118199    1.139335    0.679117
 C   -1.019706    2.154356    0.271453
 C    0.269530    0.107150   -0.368374
 C    1.648722   -0.481104   -0.089533
 C    2.777927    0.296573   -0.355237
 C    4.045802   -0.177836   -0.066530
 C    4.222758   -1.444351    0.507215
 C    3.093536   -2.213515    0.776965
 C    1.820275   -1.738616    0.478673
 C   -0.803193   -0.983536   -0.491764
 C   -1.682905   -1.288782    0.543499
 C   -2.612210   -2.311685    0.403998
 C   -2.690019   -3.052219   -0.778329
 C   -1.806201   -2.741983   -1.814075
 C   -0.874466   -1.725518   -1.672249
 O    0.391207    0.730231   -1.668668
 O   -0.710677    1.712492   -3.313939
 O    5.481413   -1.859149    0.771169
 O   -3.615313   -4.032697   -0.867258
Cl    5.440421    0.803109   -0.414557
Cl   -3.701803   -2.671173    1.713708
 H   -2.482732    3.367164   -2.551092
 H   -3.612648    4.821689   -0.855658
 H   -2.998739    4.642510    1.526210
 H   -1.643395    3.554130    3.330757
 H    0.015197    1.849672    3.994038
 H    0.950460    0.284406    2.315469
 H    2.669101    1.278539   -0.801519
 H    3.211489   -3.199971    1.219494
 H    0.959910   -2.363525    0.692584
 H   -1.662536   -0.731824    1.473447
 H   -1.854509   -3.304675   -2.743582
 H   -0.201286   -1.494458   -2.490493
 H    5.449489   -2.745376    1.151127
 H   -3.562294   -4.439608   -1.740461
