44 
1tsl_ligand_ani.xyz
 C   -0.578241    1.434871   -2.139244
 C   -1.041113    2.439920   -1.150534
 C   -1.792718    3.513814   -1.572529
 C   -2.182032    4.498715   -0.648742
 C   -1.817251    4.399747    0.673285
 C   -1.058562    3.296755    1.139881
 C   -0.654534    3.155270    2.490385
 C    0.060043    2.053638    2.887078
 C    0.383929    1.038417    1.964564
 C   -0.005311    1.124024    0.645035
 C   -0.688805    2.286580    0.207518
 C    0.216263   -0.001524   -0.355063
 C    1.549456   -0.696557   -0.086937
 C    2.707233    0.042367   -0.336832
 C    3.961248   -0.484507   -0.082308
 C    4.091427   -1.780149    0.433018
 C    2.937944   -2.524435    0.676950
 C    1.683676   -1.988000    0.416789
 C   -0.954467   -0.998422   -0.422610
 C   -1.900151   -1.131316    0.592781
 C   -2.914886   -2.072886    0.499819
 C   -3.017207   -2.901179   -0.622670
 C   -2.084397   -2.755063   -1.649245
 C   -1.074555   -1.811261   -1.549737
 O    0.377804    0.588589   -1.675749
 O   -0.945536    1.389397   -3.285837
 O    5.337387   -2.252714    0.668963
 O   -4.023222   -3.805242   -0.665310
Cl    5.386630    0.448758   -0.399609
Cl   -4.077905   -2.229840    1.774513
 H   -2.065914    3.586507   -2.619691
 H   -2.770713    5.347032   -0.988709
 H   -2.110706    5.169395    1.384066
 H   -0.917217    3.933640    3.203195
 H    0.377333    1.952961    3.921521
 H    0.946795    0.169436    2.293309
 H    2.613882    1.045793   -0.741267
 H    3.025983   -3.534147    1.074058
 H    0.788508   -2.576515    0.602157
 H   -1.858171   -0.485114    1.465609
 H   -2.157841   -3.384279   -2.535080
 H   -0.357251   -1.693708   -2.355625
 H    5.268601   -3.150425    1.018036
 H   -3.964999   -4.295334   -1.495383
