55 
1ttv_ligand_ani.xyz
 C    1.257333   -0.948704    0.955013
 N    0.370298   -1.857376    0.706363
 C   -0.821631   -1.491297    1.450652
 C   -0.605154    0.017122    1.870012
 N    0.845100    0.082546    1.766213
 C   -2.145476   -1.815635    0.768993
 C   -2.291401   -1.663249   -0.607314
 C   -3.519326   -1.879307   -1.219637
 C   -4.608097   -2.251588   -0.439347
 C   -4.486956   -2.410860    0.934727
 C   -3.250266   -2.191106    1.531716
Cl   -6.151212   -2.525487   -1.200180
 C   -2.580129    1.527914    1.462356
 C   -3.320321    2.422955    0.697063
 C   -2.806784    2.851727   -0.519892
 C   -1.573439    2.397999   -0.973000
 C   -0.853126    1.496151   -0.197990
 C   -1.342407    1.051097    1.030908
Cl   -3.719127    3.977272   -1.486706
 C    4.714194   -0.039065   -0.375395
 C    3.455902    0.119751    0.193696
 C    2.624178   -1.007052    0.398953
 C    3.102387   -2.255036    0.007005
 C    4.367904   -2.430675   -0.535104
 C    5.176210   -1.311566   -0.721375
 O    2.990366    1.339505    0.588502
 C    3.504064    2.543422   -0.001621
 C    4.654760    3.078291    0.837600
 C    2.344852    3.525516   -0.049797
 O    6.425564   -1.354925   -1.249371
 C    6.945885   -2.619991   -1.595055
 H   -0.806163   -2.063025    2.390660
 H   -0.915657    0.151699    2.915770
 H    1.298018    0.979159    1.648016
 H   -1.424165   -1.366208   -1.194139
 H   -3.637168   -1.762037   -2.292984
 H   -5.348825   -2.703901    1.526974
 H   -3.150870   -2.315212    2.608772
 H   -2.978470    1.196092    2.420078
 H   -4.283750    2.787431    1.041683
 H   -1.182625    2.751193   -1.923660
 H    0.108627    1.147032   -0.568492
 H    5.364495    0.808000   -0.568751
 H    2.444715   -3.110133    0.141795
 H    4.703151   -3.423448   -0.810982
 H    3.835715    2.320309   -1.022484
 H    4.292871    3.325321    1.841231
 H    5.465566    2.352067    0.944627
 H    5.063659    3.985402    0.380200
 H    2.028737    3.779010    0.968419
 H    1.483200    3.104612   -0.579299
 H    2.646619    4.448084   -0.557963
 H    7.000239   -3.283605   -0.721949
 H    7.951835   -2.438851   -1.976140
 H    6.341845   -3.103045   -2.374410
