43 
1tv6_ligand_ani.xyz
 S    4.812872   -1.297407   -1.384445
 C    3.689261   -1.969096   -0.157368
 N    3.203519   -0.942662    0.630975
 C    3.664809    0.331167    0.302698
 C    4.557470    0.324183   -0.774301
 C    5.124707    1.504988   -1.236712
 C    4.792639    2.696573   -0.604802
 C    3.904903    2.703728    0.473681
 C    3.335521    1.524315    0.937267
 C    2.179000   -1.197225    1.632061
 C    0.793007   -0.729046    1.223470
 C    0.203846   -1.217941    0.056976
 C   -1.067317   -0.806523   -0.319768
 C   -1.762326    0.119609    0.453745
 C   -1.189219    0.608103    1.625304
 C    0.077194    0.179005    2.002734
 N   -3.060340    0.541607    0.046922
 C   -3.476428    1.823327   -0.297096
 N   -4.730788    1.886308   -0.639906
 C   -5.197446    0.585540   -0.533173
 C   -4.170807   -0.268359   -0.120055
 C   -4.382279   -1.629839    0.056111
 C   -5.673151   -2.062375   -0.206782
 N   -6.685837   -1.265985   -0.603843
 C   -6.459471    0.029840   -0.764968
 C   -2.539849    2.984858   -0.294192
 O    3.404816   -3.137152   -0.050746
 H    5.814562    1.493554   -2.075916
 H    5.228804    3.628781   -0.953791
 H    3.656453    3.642331    0.961372
 H    2.644491    1.537298    1.774748
 H    2.470955   -0.723880    2.577196
 H    2.190003   -2.279777    1.790910
 H    0.733816   -1.942129   -0.557103
 H   -1.536705   -1.197137   -1.218908
 H   -1.741826    1.310975    2.241750
 H    0.507190    0.562277    2.926630
 H   -3.598473   -2.307760    0.380554
 H   -5.925839   -3.113484   -0.093484
 H   -7.291771    0.654498   -1.084920
 H   -2.203406    3.228070    0.719495
 H   -1.648369    2.765016   -0.890157
 H   -3.054658    3.853234   -0.709300
