43 
1tve_ligand_ani.xyz
 O    4.197998    1.422275    1.258048
 C    3.219138    0.483905    1.084215
 C    2.807740    0.187084   -0.221686
 C    3.422803    0.850374   -1.434971
 C    2.345736    1.439834   -2.350258
 C    4.297117   -0.152382   -2.198129
 C    1.828901   -0.790667   -0.385907
 C    1.224228   -1.421817    0.698238
 C    1.651650   -1.118079    1.988797
 C    2.644131   -0.165532    2.175844
 S   -0.057601   -2.618698    0.430927
 O   -4.796130    0.658811   -0.975823
 C   -3.709167   -0.102895   -0.649077
 C   -2.609609    0.550562   -0.078572
 C   -2.695522    2.037967    0.210858
 C   -3.527440    2.308081    1.472732
 C   -1.319277    2.689819    0.330549
 C   -1.493358   -0.214025    0.253388
 C   -1.453463   -1.589292    0.020218
 C   -2.560396   -2.217541   -0.547047
 C   -3.683352   -1.474973   -0.883587
 H    4.378444    1.505061    2.201833
 H    4.061123    1.667710   -1.087413
 H    2.806987    1.965853   -3.193693
 H    1.690649    0.662263   -2.759187
 H    1.715261    2.154183   -1.807615
 H    3.706885   -1.016372   -2.527985
 H    4.740252    0.314924   -3.084816
 H    5.108095   -0.523023   -1.562127
 H    1.515598   -1.077806   -1.386086
 H    1.194138   -1.615279    2.840286
 H    2.979820    0.078935    3.183283
 H   -5.480029    0.085425   -1.342267
 H   -3.220135    2.497523   -0.635363
 H   -4.539600    1.909205    1.368828
 H   -3.062297    1.840142    2.348401
 H   -3.598927    3.385686    1.657345
 H   -0.784124    2.335049    1.219384
 H   -0.698995    2.474285   -0.547193
 H   -1.419271    3.776874    0.418858
 H   -0.634460    0.278347    0.690794
 H   -2.543021   -3.288062   -0.730653
 H   -4.548896   -1.962981   -1.330877
