43 
1tve_ligand_xtb.xyz
 O    4.524842    0.949071    0.947368
 C    3.476715    0.099418    0.742245
 C    2.574654    0.378772   -0.291704
 C    2.778462    1.582459   -1.179349
 C    1.579044    2.527960   -1.106564
 C    3.037539    1.143184   -2.621954
 C    1.515627   -0.489035   -0.493211
 C    1.336590   -1.604591    0.311353
 C    2.236952   -1.880641    1.327275
 C    3.302435   -1.026527    1.537563
 S   -0.000516   -2.737276    0.006183
 O   -4.521468    0.949407   -0.954205
 C   -3.474535    0.099356   -0.744632
 C   -2.569762    0.385184    0.285166
 C   -2.771043    1.594698    1.165309
 C   -3.073595    1.159983    2.600914
 C   -1.553633    2.518698    1.122707
 C   -1.513033   -0.484059    0.492367
 C   -1.337055   -1.605611   -0.304510
 C   -2.239650   -1.887595   -1.316812
 C   -3.304183   -1.033303   -1.531237
 H    5.059440    0.625499    1.682052
 H    3.661559    2.115425   -0.816957
 H    1.757476    3.405209   -1.724443
 H    0.675432    2.036785   -1.460030
 H    1.415369    2.855141   -0.082502
 H    2.171061    0.629808   -3.031923
 H    3.250478    2.009406   -3.244372
 H    3.889221    0.468134   -2.665414
 H    0.811335   -0.296919   -1.288260
 H    2.103804   -2.755574    1.944075
 H    4.009166   -1.234138    2.330803
 H   -5.057520    0.621955   -1.686089
 H   -3.635202    2.143513    0.781512
 H   -3.943582    0.507690    2.623836
 H   -2.230059    0.622574    3.027729
 H   -3.277144    2.030252    3.220832
 H   -0.668547    2.015147    1.504306
 H   -1.355126    2.838191    0.102473
 H   -1.734812    3.401847    1.731302
 H   -0.807892   -0.288236    1.285799
 H   -2.109153   -2.767242   -1.927404
 H   -4.013204   -1.245968   -2.321119
