125 
1u32_ligand_ani.xyz
 C   -7.104076    3.091336   -0.780472
 C   -8.256537    2.158897   -1.192029
 C   -7.726883    1.063761   -2.151252
 C   -6.514344    0.285468   -1.653738
 C   -6.085624   -0.819864   -2.616876
 C   -4.907396   -1.587453   -2.024046
 C   -5.255502   -2.128257   -0.634572
 C   -5.807824   -0.996245    0.273011
 C   -6.407467   -1.551471    1.532269
 C   -6.032889   -1.191230    2.755259
 C   -4.928287   -0.182188    2.917946
 C   -4.741077    0.678174    1.664458
 C   -3.425493    1.488969    1.729741
 C   -2.202023    0.600677    1.863457
 C   -1.750563   -0.169389    0.874609
 C   -0.624051   -1.151846    1.009020
 C   -1.085167   -2.599035    1.307944
 C   -0.940280   -3.291740   -0.046138
 C    0.260884   -2.556198   -0.628974
 C    0.407244   -2.606366   -2.145893
 C    1.673712   -1.865545   -2.580801
 C    2.872559   -2.416696   -1.817989
 C    2.600606   -2.355223   -0.318870
 C    3.753046   -2.998491    0.429923
 C    5.051006   -2.386890   -0.056184
 C    4.868444   -1.273961   -1.081467
 C    6.169689   -0.776921   -1.698465
 C    5.989688    0.470886   -2.572383
 C    5.379895    1.735735   -1.928732
 C    6.002077    2.324475   -0.646704
 C    7.405300    2.952620   -0.744013
 C    7.705849    3.562134    0.633040
 C    7.609067    2.501979    1.727891
 C    6.252441    1.803791    1.693863
 C    6.223408    0.595085    2.633316
 C    4.808517    0.044560    2.816969
 C    3.853583    1.171445    3.210068
 C    3.967135    2.305347    2.198938
 C    8.523297    2.002348   -1.188495
 C    5.250461    2.824803   -2.996225
 C    6.221318   -2.802487    0.427250
 C   -3.317226    2.416906    0.510786
 C   -6.600388   -1.787945    4.010364
 C   -9.360169    2.967492   -1.879227
 O   -6.582011    3.737027   -1.841290
 O   -6.673022    3.241756    0.337392
 O   -8.823139    1.589659   -0.034234
 O   -6.849120   -0.302669   -0.386880
 O   -4.122105   -2.713988   -0.020925
 O   -4.700977   -0.141039    0.493512
 O    0.068878   -1.211853   -0.237834
 O    1.421519   -3.081818   -0.002727
 O    4.043292   -1.693332   -2.168096
 O    3.616954   -2.802251    1.829239
 O    6.770111   -1.814076   -2.449091
 O    5.946599    1.335277    0.388190
 O    5.305466    2.777514    2.106117
 H   -8.553582    0.361903   -2.318941
 H   -7.480294    1.528416   -3.112346
 H   -5.667590    0.970406   -1.506642
 H   -5.815286   -0.377221   -3.582885
 H   -6.932605   -1.498248   -2.782516
 H   -4.036844   -0.919848   -1.930473
 H   -4.610685   -2.420408   -2.670082
 H   -6.026066   -2.903731   -0.731510
 H   -7.182033   -2.302366    1.371353
 H   -5.129574    0.465510    3.780760
 H   -3.991699   -0.714426    3.141350
 H   -5.575722    1.385636    1.558580
 H   -3.476725    2.110461    2.632658
 H   -1.689696    0.582844    2.827048
 H   -2.250154   -0.173150   -0.093380
 H    0.083523   -0.805993    1.777355
 H   -2.095580   -2.658234    1.730802
 H   -0.405193   -3.056426    2.033129
 H   -0.768750   -4.369637    0.022751
 H   -1.822026   -3.110132   -0.670491
 H    0.456579   -3.659608   -2.453253
 H   -0.483760   -2.167802   -2.611380
 H    1.838122   -1.967768   -3.657636
 H    1.569854   -0.797400   -2.355399
 H    3.021112   -3.474712   -2.091537
 H    2.481010   -1.312215    0.004540
 H    3.751733   -4.078038    0.205354
 H    4.381338   -0.427814   -0.569846
 H    6.863168   -0.532252   -0.891062
 H    5.341049    0.198314   -3.416595
 H    6.966793    0.694972   -3.015206
 H    4.359874    1.461512   -1.621893
 H    5.332724    3.149136   -0.354330
 H    7.348130    3.778268   -1.466906
 H    8.704427    4.014892    0.633125
 H    6.988747    4.364316    0.848750
 H    8.405487    1.755609    1.609334
 H    7.741176    2.954070    2.717722
 H    6.896096   -0.176207    2.239949
 H    6.625580    0.915181    3.604827
 H    4.475671   -0.402161    1.873671
 H    4.810548   -0.749674    3.569718
 H    4.106320    1.555576    4.206503
 H    2.817404    0.812670    3.247860
 H    3.616602    1.965527    1.212790
 H    3.370148    3.173903    2.494517
 H    8.442214    1.026971   -0.697483
 H    8.511921    1.836360   -2.269235
 H    9.503776    2.423509   -0.938696
 H    4.643880    2.473976   -3.837736
 H    6.229301    3.115374   -3.396579
 H    4.772980    3.723834   -2.590466
 H    6.267843   -3.526533    1.235782
 H    7.168399   -2.439201    0.034781
 H   -4.187712    3.078992    0.454026
 H   -3.275072    1.833121   -0.415588
 H   -2.409480    3.023053    0.571619
 H   -5.816286   -2.279139    4.598917
 H   -7.374467   -2.529360    3.788666
 H   -7.042730   -1.011027    4.644152
 H   -9.745084    3.727472   -1.193334
 H   -8.990026    3.453912   -2.785341
 H  -10.181360    2.293877   -2.138604
 H   -5.869479    4.300096   -1.494360
 H   -8.148742    0.984883    0.322563
 H   -3.677979   -1.986531    0.444894
 H    2.737413   -3.133473    2.057499
 H    6.046021   -2.204137   -2.962085
