70 
1u33_ligand_xtb.xyz
 C    5.748053    1.129707   -0.634851
 N    6.827536    1.597687   -1.129311
 O    6.851974    2.997896   -1.311316
 C    5.723379   -0.362565   -0.427643
 O    6.590726   -1.043938   -1.296635
 C    4.300635   -0.888527   -0.634448
 O    4.241365   -2.270934   -0.360630
 C    3.342588   -0.148113    0.308321
 O    2.027404   -0.639443    0.138950
 C    3.341803    1.346645   -0.029304
 N    4.681791    1.847817   -0.219033
 C    2.665681    2.169616    1.073124
 O    2.548572    3.491532    0.603851
 C    1.593084   -1.625521    1.038432
 C    0.833349   -2.704926    0.254449
 C   -0.419394   -2.064648   -0.356303
 C   -1.263608   -1.426081    0.749621
 C   -0.405039   -0.455769    1.578750
 C   -1.154024    0.015167    2.831174
 O    1.606214   -3.288715   -0.759133
 O   -1.206336   -3.020831   -1.024274
 O   -2.316981   -0.737250    0.112088
 O    0.790170   -1.078995    2.046184
 O   -1.451050   -1.055155    3.685102
 C   -3.618724   -0.856148    0.626487
 C   -4.531683   -1.275121   -0.534888
 C   -4.543537   -0.163450   -1.598426
 C   -4.951215    1.172679   -0.952374
 C   -4.072130    1.434598    0.281063
 C   -4.567305    2.650648    1.072059
 O   -4.140304   -2.496478   -1.097829
 O   -5.442092   -0.520760   -2.622711
 O   -4.754587    2.277369   -1.801414
 O   -4.063579    0.339951    1.193782
 O   -3.759344    2.912716    2.186816
 C   -5.752671    2.449177   -2.786445
 H    7.723824    3.160295   -1.692407
 H    6.018389   -0.573323    0.617063
 H    7.251293   -0.402950   -1.595777
 H    3.994714   -0.706327   -1.675930
 H    5.008719   -2.672860   -0.791505
 H    3.673011   -0.301893    1.344284
 H    2.749794    1.479004   -0.948292
 H    4.730437    2.843003   -0.398218
 H    1.683266    1.733956    1.289215
 H    3.281621    2.131656    1.983224
 H    2.050907    4.014776    1.240225
 H    2.444359   -2.078582    1.563913
 H    0.518912   -3.489399    0.961549
 H   -0.104545   -1.278209   -1.058290
 H   -1.657303   -2.216659    1.402665
 H   -0.157475    0.402776    0.940657
 H   -2.105059    0.461384    2.538487
 H   -0.543211    0.767804    3.348312
 H    2.508077   -2.925982   -0.726958
 H   -0.601110   -3.577888   -1.531644
 H   -0.621632   -1.511709    3.873819
 H   -3.659295   -1.597915    1.435195
 H   -5.552635   -1.414147   -0.158821
 H   -3.527030   -0.053615   -2.008879
 H   -6.010019    1.103805   -0.654082
 H   -3.047985    1.619340   -0.068901
 H   -5.606302    2.470730    1.381060
 H   -4.525461    3.532250    0.431979
 H   -3.168691   -2.525630   -1.156300
 H   -5.349003   -1.476298   -2.748139
 H   -3.749492    2.112521    2.726442
 H   -5.468827    3.339598   -3.343778
 H   -5.807046    1.588997   -3.455988
 H   -6.733158    2.603011   -2.321193
