70 
1u33_ligand_ani.xyz
 C    6.016786    0.936185   -0.605146
 N    7.116634    1.214114   -1.203506
 O    7.142158    2.563725   -1.577587
 C    5.869413   -0.460675   -0.053590
 O    6.714616   -1.396632   -0.678274
 C    4.437787   -0.949274   -0.211727
 O    4.303170   -2.224101    0.403535
 C    3.474281    0.040941    0.426184
 O    2.133969   -0.394997    0.237457
 C    3.613215    1.403112   -0.252174
 N    5.004080    1.815839   -0.345906
 C    2.878356    2.499523    0.506141
 O    3.059258    3.686743   -0.244737
 C    1.607416   -1.249061    1.225367
 C    0.901082   -2.418664    0.531076
 C   -0.288584   -1.882848   -0.246889
 C   -1.191744   -1.099443    0.686567
 C   -0.392621    0.016772    1.357179
 C   -1.204775    0.781689    2.392536
 O    1.740525   -3.092050   -0.379745
 O   -1.030324   -2.943078   -0.831452
 O   -2.256203   -0.532032   -0.059262
 O    0.720549   -0.555314    2.059899
 O   -1.859757   -0.076413    3.307590
 C   -3.479853   -1.223688    0.013225
 C   -4.134747   -1.291850   -1.365244
 C   -4.591050    0.085277   -1.830382
 C   -5.418597    0.787241   -0.752250
 C   -4.632263    0.748858    0.559059
 C   -5.315582    1.357645    1.769490
 O   -3.261648   -1.804958   -2.348720
 O   -5.361225   -0.067241   -3.004272
 O   -5.633794    2.145312   -1.050582
 O   -4.338118   -0.607521    0.923214
 O   -4.389962    1.519804    2.825777
 C   -6.656514    2.382325   -2.000994
 H    7.997825    2.646582   -2.015097
 H    6.085391   -0.419180    1.028999
 H    7.464539   -0.894655   -1.036276
 H    4.196108   -1.038519   -1.281852
 H    5.078326   -2.737810    0.129834
 H    3.691908    0.128345    1.502131
 H    3.165062    1.318497   -1.255384
 H    5.144124    2.752713   -0.705460
 H    1.812012    2.248103    0.614994
 H    3.318829    2.593219    1.510516
 H    2.781347    4.436457    0.293155
 H    2.416261   -1.621186    1.862827
 H    0.531854   -3.119097    1.300305
 H    0.080119   -1.214753   -1.036209
 H   -1.580005   -1.769290    1.467509
 H   -0.031847    0.716783    0.590773
 H   -1.985401    1.366743    1.900149
 H   -0.543484    1.484154    2.917318
 H    2.663637   -2.949460   -0.102795
 H   -0.381472   -3.513797   -1.269638
 H   -1.169521   -0.565370    3.777387
 H   -3.304966   -2.243303    0.381758
 H   -5.031978   -1.929975   -1.285967
 H   -3.699382    0.699793   -2.027345
 H   -6.378694    0.256847   -0.631338
 H   -3.692427    1.296877    0.393656
 H   -6.161529    0.717918    2.067023
 H   -5.702949    2.351835    1.526442
 H   -2.546716   -2.294653   -1.904344
 H   -4.794590   -0.532455   -3.635877
 H   -3.898816    0.685593    2.933649
 H   -6.857803    3.456690   -1.981238
 H   -6.352163    2.077936   -3.007420
 H   -7.576349    1.844394   -1.729569
