27 
1u3q_ligand_ani.xyz
 C   19.812522   -4.126944   17.270733
 C   20.249914   -4.593054   16.039156
 C   19.332080   -4.500653   14.999840
 C   18.047301   -3.995706   15.143897
 C   17.631189   -3.521663   16.392485
 C   18.516749   -3.592040   17.448678
 O   19.532881   -4.870481   13.718565
 N   18.380066   -4.612768   12.991477
 C   17.498559   -4.110540   13.813824
 C   16.117611   -3.812298   13.411435
 C   15.802395   -3.106763   12.235551
 C   14.476765   -2.847334   11.898251
 C   13.447081   -3.292642   12.718381
 C   13.733778   -4.000397   13.884997
 C   15.058453   -4.243487   14.211413
 O   12.177920   -3.006616   12.328761
 O   16.813627   -2.664954   11.454882
 O   20.698048   -4.207922   18.298090
 H   21.247592   -4.996184   15.915260
 H   16.640524   -3.100792   16.528577
 H   18.218680   -3.232695   18.432035
 H   14.224922   -2.294694   10.994565
 H   12.931838   -4.356575   14.527073
 H   15.281073   -4.803092   15.116741
 H   11.559456   -3.366689   12.976647
 H   16.438453   -2.206055   10.692305
 H   20.290530   -3.856960   19.099354
