32 
1u3s_ligand_ani.xyz
 C   28.608272   36.908653   37.872274
 C   28.837013   36.389631   39.122792
 C   27.788823   36.224068   40.060246
 C   26.475560   36.615604   39.708597
 C   26.256644   37.159627   38.415386
 C   27.282564   37.301698   37.526654
 C   28.011615   35.672201   41.351854
 C   26.988213   35.521567   42.241449
 C   25.672438   35.922704   41.882422
 C   25.420215   36.457961   40.644752
 O   24.712557   35.740292   42.830510
 C   29.679172   37.083908   36.872526
 C   31.076997   36.697415   36.907624
 C   31.548031   37.152204   35.681408
 O   30.555108   37.734410   34.990020
 N   29.399199   37.681349   35.744371
 C   31.987671   36.048045   37.761504
 C   33.294063   35.900503   37.361501
 C   33.731342   36.383883   36.108931
 C   32.861395   37.020305   35.239121
 O   35.040817   36.190211   35.806854
 H   29.838352   36.098391   39.422676
 H   25.249349   37.464997   38.139470
 H   27.103273   37.719542   36.541452
 H   29.022032   35.368202   41.619113
 H   27.144609   35.099942   43.229702
 H   24.414273   36.767476   40.362607
 H   23.866248   36.048854   42.481475
 H   31.697680   35.650704   38.727626
 H   34.019873   35.409054   38.001300
 H   33.172623   37.397001   34.269373
 H   35.218974   36.558599   34.932409
