54 
1u9q_ligand_dft.xyz
 O    2.427048    2.582762    0.982280
 C    2.431605    1.978818   -0.066777
 O    2.114747    2.515562   -1.277983
 C    1.187658    3.596296   -1.219315
 C   -0.228557    3.089660   -1.042634
 C   -0.597371    1.818891   -1.492767
 C   -1.911116    1.376903   -1.361293
 C   -2.876663    2.203619   -0.793121
 C   -2.514081    3.471317   -0.343891
 C   -1.196838    3.907292   -0.460205
 N    2.725598    0.662018   -0.222060
 C    3.026051   -0.207991    0.892760
 C    3.506459   -1.578398    0.363424
 C    2.488268   -2.213987   -0.555962
 C    2.592722   -2.079014   -1.943106
 C    1.589541   -2.555686   -2.785455
 C    0.467298   -3.176953   -2.247497
 C    0.361088   -3.339040   -0.867174
 C    1.367628   -2.866670   -0.031915
 C    1.859214   -0.431164    1.871495
 O    2.063349   -1.014483    2.926765
 N    0.640477   -0.004636    1.471514
 C   -0.552240   -0.123793    2.294717
 C   -1.193128    1.242553    2.505657
 C   -1.428913   -1.162333    1.645466
 C   -2.623059   -0.955113    1.079546
 C   -3.308441   -2.045881    0.375080
 O   -2.940240   -3.205805    0.313539
 C   -4.586016   -1.684386   -0.392408
 O   -4.994860   -0.556872   -0.520847
 H    1.463991    4.279273   -0.411789
 H    1.298928    4.112829   -2.176204
 H    0.145609    1.175231   -1.955267
 H   -2.182509    0.383092   -1.704674
 H   -3.897322    1.848456   -0.690108
 H   -3.256762    4.119597    0.111549
 H   -0.918460    4.890832   -0.089774
 H    2.555443    0.251985   -1.129411
 H    3.822682    0.239407    1.494268
 H    3.695614   -2.207639    1.236864
 H    4.457185   -1.432729   -0.160034
 H    3.473695   -1.603074   -2.370586
 H    1.689446   -2.440870   -3.860756
 H   -0.318853   -3.543896   -2.900494
 H   -0.514212   -3.820214   -0.440457
 H    1.285138   -2.992857    1.044693
 H    0.538338    0.442832    0.571882
 H   -0.200035   -0.526206    3.250917
 H   -2.090126    1.160718    3.127575
 H   -0.478253    1.903738    3.001533
 H   -1.472748    1.702173    1.552349
 H   -0.995965   -2.159114    1.584708
 H   -3.102403    0.017993    1.073465
 H   -5.087968   -2.562177   -0.844212
