54 
1u9q_ligand_xtb.xyz
 O    0.164652    2.378655    1.316180
 C    0.822130    2.073131    0.340943
 O    0.592254    2.532771   -0.902219
 C   -0.584451    3.338891   -1.040681
 C   -1.836401    2.517290   -0.869578
 C   -2.152895    1.538183   -1.803631
 C   -3.289118    0.765214   -1.645349
 C   -4.111985    0.952481   -0.547340
 C   -3.791785    1.916248    0.393354
 C   -2.660024    2.697188    0.233026
 N    1.863430    1.224314    0.364979
 C    2.336141    0.574786    1.572466
 C    3.825642    0.212896    1.445414
 C    4.180182   -0.306237    0.077204
 C    4.698805    0.555557   -0.884219
 C    5.008946    0.094367   -2.152316
 C    4.799641   -1.235024   -2.475917
 C    4.283260   -2.099607   -1.524959
 C    3.976567   -1.639951   -0.256530
 C    1.466467   -0.665174    1.892255
 O    1.911503   -1.784607    2.030603
 N    0.166741   -0.355442    2.028185
 C   -0.869984   -1.366424    2.159192
 C   -1.992729   -0.838980    3.039943
 C   -1.299457   -1.782935    0.786013
 C   -2.546765   -1.911360    0.328022
 C   -2.799136   -2.326000   -1.049301
 O   -1.951543   -2.579745   -1.880466
 C   -4.273421   -2.437726   -1.425918
 O   -5.186765   -2.153435   -0.702849
 H   -0.555268    4.146737   -0.302818
 H   -0.513643    3.749846   -2.049725
 H   -1.506412    1.385528   -2.655389
 H   -3.537112    0.019336   -2.387640
 H   -4.997683    0.346816   -0.424572
 H   -4.427822    2.063250    1.253950
 H   -2.406672    3.442514    0.971494
 H    2.320453    0.982467   -0.502967
 H    2.192211    1.279864    2.401765
 H    4.038479   -0.550608    2.194817
 H    4.423847    1.099250    1.662757
 H    4.871903    1.593818   -0.634856
 H    5.415586    0.774199   -2.886800
 H    5.041079   -1.596026   -3.464647
 H    4.120517   -3.138167   -1.772284
 H    3.569599   -2.311350    0.483306
 H   -0.132618    0.609209    1.932697
 H   -0.386795   -2.238209    2.627447
 H   -2.734851   -1.612453    3.213871
 H   -1.589076   -0.524502    3.998822
 H   -2.470217    0.014825    2.563770
 H   -0.481565   -1.991381    0.105338
 H   -3.420530   -1.724714    0.932196
 H   -4.423203   -2.812350   -2.455247
