54 
1u9q_ligand_ani.xyz
 O    0.529404    3.056773    1.196971
 C    0.863328    2.530642    0.153980
 O    0.365908    2.839323   -1.063192
 C   -0.848203    3.618812   -1.029471
 C   -2.046964    2.742516   -0.748633
 C   -2.651687    2.036619   -1.789190
 C   -3.730920    1.194906   -1.539988
 C   -4.207104    1.040380   -0.241290
 C   -3.592422    1.723504    0.805910
 C   -2.520770    2.572695    0.553526
 N    1.766738    1.518455    0.044155
 C    2.365298    0.969876    1.234225
 C    3.867987    0.699677    1.054581
 C    4.174721   -0.226585   -0.100608
 C    4.562213    0.288615   -1.339423
 C    4.818677   -0.556533   -2.417203
 C    4.687684   -1.933184   -2.265683
 C    4.303563   -2.458558   -1.034548
 C    4.049482   -1.611808    0.039603
 C    1.644987   -0.278288    1.780979
 O    2.116878   -0.903982    2.724997
 N    0.484158   -0.628136    1.184476
 C   -0.315226   -1.744093    1.674324
 C   -1.149833   -1.330834    2.885401
 C   -1.108977   -2.274638    0.514891
 C   -2.441177   -2.257016    0.381130
 C   -3.080708   -2.754194   -0.839056
 O   -2.504795   -3.247250   -1.792079
 C   -4.607336   -2.644697   -0.924369
 O   -5.284891   -2.082741   -0.100142
 H   -0.742001    4.405022   -0.278093
 H   -0.906130    4.062597   -2.025783
 H   -2.269147    2.148763   -2.801951
 H   -4.202447    0.664050   -2.365272
 H   -5.045335    0.379455   -0.045731
 H   -3.945381    1.587035    1.826946
 H   -2.023099    3.090420    1.370592
 H    2.090261    1.256810   -0.876405
 H    2.232616    1.733751    2.009911
 H    4.247373    0.282547    1.993166
 H    4.362088    1.664492    0.893138
 H    4.668720    1.366311   -1.460342
 H    5.116976   -0.137115   -3.374413
 H    4.885492   -2.595691   -3.104571
 H    4.202578   -3.533676   -0.910646
 H    3.742305   -2.019116    1.001808
 H    0.143409   -0.095035    0.396579
 H    0.401086   -2.510902    1.990110
 H   -1.753255   -2.170850    3.244063
 H   -0.482531   -1.008088    3.688969
 H   -1.813837   -0.495777    2.630674
 H   -0.515550   -2.675975   -0.309075
 H   -3.119018   -1.888348    1.145334
 H   -5.031151   -3.126779   -1.826403
