24 
1ugw_ligand_xtb.xyz
 C    0.448089    1.419669   -0.207919
 C    1.504836    0.371054    0.165248
 C    1.182156   -0.938092   -0.557666
 C   -0.249981   -1.370041   -0.204690
 C   -1.226968   -0.218813   -0.483252
 C   -2.632023   -0.542118    0.038578
 O    0.731798    2.590666    0.483522
 O    2.796277    0.780163   -0.208858
 O    2.053118   -1.966438   -0.155955
 O   -0.325957   -1.742555    1.143935
 O   -0.833793    0.988388    0.149150
 O   -3.550395    0.463696   -0.287644
 H    0.490267    1.598932   -1.306494
 H    1.444109    0.210692    1.252974
 H    1.265257   -0.768864   -1.642867
 H   -0.526513   -2.222395   -0.846618
 H   -1.260851   -0.049912   -1.572775
 H   -2.563982   -0.688806    1.122484
 H   -2.991443   -1.459892   -0.428544
 H   -0.097352    3.060480    0.627447
 H    2.918202    1.683398    0.107289
 H    2.949595   -1.611097   -0.196936
 H    0.455363   -2.285938    1.321170
 H   -3.207684    1.292087    0.067886
