45 
1ugy_ligand_ani.xyz
 C   -1.549358   -0.163362    0.753321
 C   -2.262854   -1.460033    0.399223
 C   -3.044663   -1.252456   -0.891347
 C   -4.037061   -0.112647   -0.707995
 C   -3.300065    1.134452   -0.221128
 C   -4.239694    2.249795    0.202292
 O   -1.390183   -2.560145    0.259875
 O   -3.775400   -2.427004   -1.187010
 O   -5.015246   -0.481573    0.237889
 O   -2.476889    0.869273    0.929765
 O   -3.516388    3.392906    0.598767
 C    3.944245    1.249567   -0.694295
 C    4.522414    0.121487    0.152376
 C    3.608719   -1.085172    0.101053
 C    2.186620   -0.686674    0.476431
 C    1.725072    0.498952   -0.384564
 C    0.368868    1.058726    0.036846
 O    4.771546    2.363392   -0.535689
 O    5.791085   -0.283853   -0.319044
 O    4.021669   -2.089339    1.005762
 O    1.321339   -1.790024    0.275406
 O    2.642325    1.583431   -0.262035
 O   -0.639062    0.111487   -0.274725
 H   -0.999788   -0.274215    1.700712
 H   -2.975246   -1.700416    1.195874
 H   -2.347901   -1.010798   -1.709224
 H   -4.507085    0.117167   -1.681091
 H   -2.652583    1.499080   -1.032639
 H   -4.895256    1.877706    1.002102
 H   -4.868989    2.546595   -0.644145
 H   -0.517677   -2.219703   -0.011904
 H   -3.169556   -3.160832   -0.996659
 H   -5.270783   -1.387670    0.005027
 H   -2.902659    3.085813    1.280707
 H    3.900904    0.938405   -1.757021
 H    4.576930    0.477973    1.194346
 H    3.597702   -1.476096   -0.931937
 H    2.180176   -0.378254    1.533991
 H    1.666845    0.170461   -1.435270
 H    0.167156    1.989569   -0.505624
 H    0.378790    1.290828    1.111994
 H    4.219817    3.136515   -0.709929
 H    6.358163    0.499166   -0.305130
 H    4.935504   -2.308548    0.776190
 H    1.713709   -2.536965    0.754663
