12 
1ui0_ligand_ani.xyz
 N   11.176952    1.844841   17.167677
 C   11.756970    3.093871   17.341915
 O   12.789880    3.418958   16.797503
 N   11.037392    3.910676   18.190623
 C    9.838721    3.621647   18.862979
 O    9.323395    4.451842   19.582666
 C    9.329364    2.276847   18.597661
 C   10.007266    1.459389   17.776434
 H   11.678939    1.222170   16.553128
 H   11.426116    4.832247   18.347127
 H    8.408246    1.974431   19.077866
 H    9.674761    0.452082   17.545422
