72 
1ule_ligand_dft.xyz
 C   -4.211237   -0.062064   -1.024237
 C   -5.656157    0.327412   -0.709583
 C   -5.919767    0.268003    0.796880
 C   -5.518065   -1.093757    1.368078
 C   -4.083487   -1.387311    0.946823
 C   -3.582773   -2.766449    1.317052
 O   -5.999553    1.595976   -1.225154
 O   -7.293809    0.451355    1.059663
 O   -6.368026   -2.102697    0.880754
 O   -3.924194   -1.301546   -0.463571
 O   -2.200998   -2.781821    0.988481
 C    0.346796    0.472431   -0.758845
 C   -1.107361    0.049399   -0.531202
 C   -2.074660    1.127001   -1.044010
 C   -1.662427    2.540004   -0.625307
 C   -0.183679    2.783705   -0.918235
 C    0.325131    4.136656   -0.412696
 O   -1.283093   -1.156650   -1.224413
 O   -3.400882    0.983692   -0.530275
 O   -1.879958    2.725036    0.761072
 O    0.598248    1.786341   -0.299740
 O    0.472735    4.189970    0.978662
 C    5.017747   -1.661061    0.404247
 C    4.876514   -0.152977    0.118718
 C    3.434686    0.275924    0.387774
 C    2.480137   -0.575971   -0.449911
 C    2.779298   -2.062593   -0.254525
 C    1.983343   -2.955240   -1.192307
 C    7.055529    0.878185    0.543349
 C    7.760538    2.044872    1.198092
 N    5.760210    0.686872    0.910639
 O    6.282471   -2.156230    0.240747
 O    3.346370    1.653255    0.123698
 O    1.137913   -0.382281   -0.028545
 O    4.144207   -2.330025   -0.501425
 O    2.247071   -4.313139   -0.933082
 O    7.620531    0.162153   -0.279462
 H   -4.048314   -0.177298   -2.100293
 H   -6.308115   -0.400790   -1.198402
 H   -5.323668    1.050294    1.294925
 H   -5.559809   -1.042823    2.468576
 H   -3.430348   -0.647691    1.433038
 H   -4.146866   -3.515265    0.750544
 H   -3.737042   -2.939292    2.390644
 H   -5.267724    2.185713   -0.992306
 H   -7.594391    1.155041    0.466716
 H   -7.264610   -1.740810    0.941452
 H   -1.878093   -3.689798    0.996776
 H    0.578066    0.410334   -1.837963
 H   -1.240080   -0.070540    0.550644
 H   -2.102039    1.060853   -2.141455
 H   -2.259250    3.264408   -1.202826
 H   -0.052384    2.750005   -2.014373
 H   -0.352555    4.918306   -0.796182
 H    1.315823    4.317444   -0.840367
 H   -1.771096   -1.765937   -0.643599
 H   -2.739312    2.332377    0.965433
 H   -0.344036    3.837098    1.362033
 H    4.681586   -1.880787    1.432544
 H    5.101876   -0.007826   -0.946948
 H    3.199380    0.069873    1.447398
 H    2.592938   -0.302491   -1.508918
 H    2.524416   -2.330152    0.784986
 H    2.234392   -2.686088   -2.231740
 H    0.914980   -2.780580   -1.045322
 H    8.806063    1.780166    1.362804
 H    7.301570    2.336405    2.146462
 H    7.731729    2.902003    0.517121
 H    5.300989    1.456275    1.380177
 H    6.831314   -1.490449   -0.218130
 H    2.419048    1.925216    0.243475
 H    3.211206   -4.395412   -0.931596
