60 
1uml_ligand_ani.xyz
 C    1.638115   -1.627700    0.539312
 N    2.959238   -1.965074    0.345654
 C    2.947535   -3.078351   -0.446846
 N    1.732842   -3.450654   -0.770090
 C    0.904778   -2.536174   -0.171368
 C   -0.561457   -2.525410   -0.367260
 O   -1.243589   -1.560705   -0.027951
 N   -1.070141   -3.636551   -0.934060
 C    4.119379   -1.162444    0.743270
 C    5.001797   -1.940407    1.711625
 O    5.638604   -2.994350    1.009581
 C    4.922557   -0.654903   -0.463544
 C    4.133459    0.240854   -1.423356
 N    3.823589    1.553129   -0.884694
 C    4.758990    2.521170   -0.589557
 C    4.155582    3.603559   -0.018676
 C    2.753224    3.304050    0.058993
 C    2.581591    2.018914   -0.505373
 C    1.621210    3.972280    0.550432
 C    0.383727    3.367410    0.495410
 C    0.235410    2.075615   -0.058880
 C    1.331043    1.410879   -0.606452
 N   -0.993740    1.395581   -0.059675
 C   -2.245354    1.905617    0.167092
 O   -2.481513    3.084450    0.373642
 C   -3.346006    0.852207    0.124541
 C   -4.732212    1.458003    0.349575
 C   -6.125949   -0.432606    1.276643
 C   -5.830942    0.431104    0.219231
 C   -6.540065    0.288578   -0.974495
 C   -7.524252   -0.686911   -1.109173
 C   -7.812995   -1.537488   -0.046485
 C   -7.110015   -1.407599    1.148312
 H    1.337265   -0.784270    1.145013
 H    3.863774   -3.572482   -0.743262
 H   -0.439507   -4.337834   -1.293081
 H   -2.052150   -3.668278   -1.158511
 H    3.694656   -0.313526    1.287921
 H    4.376120   -2.325074    2.527195
 H    5.745291   -1.248012    2.137271
 H    6.080019   -3.559647    1.653915
 H    5.796062   -0.103561   -0.094163
 H    5.302894   -1.516710   -1.018409
 H    4.708185    0.379918   -2.346388
 H    3.191136   -0.241599   -1.694375
 H    5.801055    2.342641   -0.828561
 H    4.636010    4.514517    0.314354
 H    1.711412    4.966348    0.982221
 H   -0.492065    3.877302    0.875327
 H    1.202775    0.450346   -1.097162
 H   -0.935776    0.387358   -0.178795
 H   -3.128657    0.078362    0.872706
 H   -3.304724    0.343145   -0.847809
 H   -4.881985    2.270494   -0.368946
 H   -4.758598    1.922835    1.341419
 H   -5.576850   -0.338630    2.212588
 H   -6.323316    0.953266   -1.808930
 H   -8.067904   -0.780442   -2.046507
 H   -8.582387   -2.299010   -0.148306
 H   -7.328149   -2.069126    1.983332
