60 
1uml_ligand_xtb.xyz
 C    1.663129   -1.511813    0.512486
 N    2.961538   -1.858039    0.314413
 C    2.947567   -3.003354   -0.416479
 N    1.738968   -3.395524   -0.693698
 C    0.908137   -2.463774   -0.129151
 C   -0.546250   -2.496012   -0.321130
 O   -1.271773   -1.546200   -0.063098
 N   -0.994420   -3.656601   -0.832599
 C    4.111711   -1.082655    0.711631
 C    4.985761   -1.876609    1.694732
 O    5.591816   -2.951110    1.015354
 C    4.921548   -0.654427   -0.518846
 C    4.119873    0.233368   -1.482085
 N    3.785460    1.502381   -0.898467
 C    4.712134    2.462963   -0.574032
 C    4.111133    3.518204    0.034570
 C    2.722477    3.216696    0.104686
 C    2.551612    1.944629   -0.494749
 C    1.609399    3.889757    0.606843
 C    0.372518    3.297247    0.529886
 C    0.206529    2.034102   -0.064337
 C    1.295670    1.361707   -0.604224
 N   -1.038127    1.399757   -0.111058
 C   -2.272114    1.937027    0.098025
 O   -2.492074    3.103508    0.345783
 C   -3.371992    0.896169   -0.044003
 C   -4.719654    1.438626    0.439460
 C   -6.102838   -0.474608    1.294166
 C   -5.793056    0.406093    0.265645
 C   -6.468946    0.283430   -0.942108
 C   -7.433970   -0.692181   -1.116970
 C   -7.736826   -1.562556   -0.083674
 C   -7.068352   -1.450712    1.123360
 H    1.371547   -0.655826    1.084627
 H    3.839982   -3.517920   -0.707372
 H   -0.322519   -4.360827   -1.087166
 H   -1.967364   -3.765655   -1.062382
 H    3.737940   -0.192844    1.231132
 H    4.354936   -2.241407    2.517902
 H    5.745805   -1.201076    2.111333
 H    6.111209   -3.468411    1.638528
 H    5.800341   -0.108333   -0.173467
 H    5.261843   -1.545616   -1.045467
 H    4.722305    0.398146   -2.383082
 H    3.197669   -0.269309   -1.780341
 H    5.746964    2.317672   -0.821322
 H    4.587869    4.409620    0.390637
 H    1.722354    4.863869    1.058191
 H   -0.496616    3.799986    0.917596
 H    1.146423    0.411079   -1.095405
 H   -1.015940    0.397630   -0.286872
 H   -3.094909   -0.001775    0.509955
 H   -3.441501    0.618731   -1.099233
 H   -4.957109    2.339784   -0.128427
 H   -4.629254    1.720189    1.489853
 H   -5.584426   -0.390487    2.238897
 H   -6.238848    0.963479   -1.750360
 H   -7.953607   -0.773268   -2.061191
 H   -8.492337   -2.323186   -0.217940
 H   -7.301652   -2.125553    1.934724
