52 
1unl_ligand_xtb.xyz
 O    3.921773    1.583950   -0.643096
 C    3.193047    2.743228   -0.934950
 C    2.001655    2.947317    0.027008
 C    1.664468    4.425926    0.220308
 C    0.608661    4.639663    1.299671
 N    0.818319    2.256325   -0.437861
 C    0.653571    0.916553   -0.457869
 N    1.660442    0.154097   -0.024963
 C    1.373361   -1.149033   -0.053392
 N    2.160185   -2.195598    0.317287
 C    3.516087   -2.103301    0.814018
 C    4.497395   -2.631111   -0.231226
 C    3.652015   -2.845432    2.141824
 C    1.407721   -3.316291    0.084049
 C    0.165287   -1.703321   -0.494378
 N    0.225083   -3.071492   -0.390957
 N   -0.540708    0.504656   -0.906787
 C   -0.814002   -0.797226   -0.944353
 N   -1.987160   -1.225361   -1.447725
 C   -3.087694   -0.336024   -1.744600
 C   -4.021123   -0.198550   -0.567555
 C   -5.276339   -0.789844   -0.569117
 C   -6.102838   -0.683562    0.536717
 C   -5.677008    0.008168    1.657054
 C   -4.422789    0.596574    1.667768
 C   -3.599961    0.494866    0.561361
 H    3.263085    0.886466   -0.440246
 H    3.896434    3.576705   -0.849803
 H    2.813812    2.715853   -1.969475
 H    2.286571    2.506014    0.991592
 H    1.315477    4.837058   -0.730316
 H    2.574727    4.958352    0.498948
 H   -0.305594    4.101330    1.062978
 H    0.974184    4.282931    2.259711
 H    0.371967    5.696758    1.393205
 H    0.102470    2.787928   -0.904411
 H    3.699812   -1.034543    0.971531
 H    5.516311   -2.515994    0.127669
 H    4.313049   -3.684474   -0.432458
 H    4.393349   -2.073797   -1.159048
 H    2.904479   -2.495715    2.850395
 H    4.638378   -2.667703    2.561551
 H    3.524167   -3.916418    2.002160
 H    1.773087   -4.304230    0.282485
 H   -2.186348   -2.204638   -1.311174
 H   -3.623366   -0.723199   -2.615986
 H   -2.642290    0.631559   -1.986454
 H   -5.612217   -1.332744   -1.441712
 H   -7.079821   -1.144374    0.524254
 H   -6.320723    0.088989    2.520659
 H   -4.087231    1.137246    2.540810
 H   -2.620164    0.949054    0.560914
