71 
1ur9_ligand_ani.xyz
 C   -2.472842    1.203848   -0.509201
 C   -2.277073    2.677144   -0.094735
 C   -1.418527    3.415432   -1.111601
 C   -0.255943    2.512769   -1.477975
 C   -0.814535    1.326545   -2.273153
 C    0.155423    0.151267   -2.247636
 C   -4.429543    2.974432    1.040497
 C   -5.547886    3.951937    1.333753
 N   -3.536223    3.383441    0.086229
 O   -0.991861    4.625108   -0.528763
 O    0.674569    3.238288   -2.246703
 O   -2.113291    0.931683   -1.837591
 O    1.404541    0.602478   -2.744440
 O   -4.330299    1.883013    1.583138
 C   -0.003320   -2.014544    0.742786
 C   -1.122223   -2.773071    0.082096
 C   -2.381963   -1.880701   -0.069312
 C   -2.383355   -0.720490    0.927795
 C   -1.630411   -1.068916    2.211264
 C   -2.324853   -2.113757    3.082921
 C   -1.373228   -4.197063   -1.900072
 C   -0.710006   -4.783916   -3.124935
 N   -0.651903   -3.303104   -1.186747
 O   -3.531443   -2.650869    0.161587
 O   -1.722746    0.427029    0.395018
 O   -0.273905   -1.483145    1.941160
 O   -1.590060   -2.366887    4.255494
 O   -2.517460   -4.524206   -1.579689
 N    3.972188   -0.204035    1.169707
 C    3.058807   -0.658678    0.273326
 O    2.001905   -1.161558    0.977528
 O    3.129402   -0.628586   -0.934961
 C    5.255406    0.313752    0.913548
 C    5.973495    0.831917    1.995989
 C    7.248928    1.348159    1.806158
 C    7.821441    1.349062    0.536929
 C    7.102432    0.829208   -0.534911
 C    5.823667    0.309899   -0.360853
 N    1.130599   -1.903005    0.164015
 H   -3.529477    0.938298   -0.451044
 H   -1.727686    2.650956    0.853784
 H   -2.010892    3.611217   -2.021418
 H    0.211255    2.153453   -0.542268
 H   -0.944320    1.641770   -3.315777
 H    0.268312   -0.204633   -1.217039
 H   -0.226469   -0.675171   -2.862491
 H   -5.159618    4.942139    1.598596
 H   -6.142016    3.566848    2.163185
 H   -6.193917    4.070797    0.456996
 H   -3.513930    4.370500   -0.137179
 H   -0.269055    4.948951   -1.085492
 H    1.307419    2.577030   -2.579698
 H    2.094620    0.125097   -2.253406
 H   -1.411492   -3.605437    0.736089
 H   -2.371397   -1.457762   -1.085313
 H   -3.419970   -0.456314    1.177846
 H   -1.521469   -0.146082    2.794048
 H   -3.298121   -1.719842    3.394236
 H   -2.518402   -3.034280    2.508767
 H    0.302777   -4.409788   -3.298078
 H   -0.680061   -5.871946   -3.016926
 H   -1.331057   -4.561322   -3.997239
 H    0.318816   -3.097610   -1.401302
 H   -3.468301   -3.408748   -0.456005
 H   -0.688952   -2.581604    3.974393
 H    3.696680   -0.282443    2.135964
 H    5.526899    0.832087    2.987740
 H    7.797243    1.748935    2.654894
 H    8.819456    1.750151    0.383498
 H    7.540355    0.825652   -1.530483
 H    5.261977   -0.098173   -1.191610
