95 
1urc_ligand_dft.xyz
 C   -3.035223   -0.833855    1.885310
 O   -3.197246    0.336066    2.219132
 C   -2.617737   -1.891042    2.883716
 N   -3.189812   -1.263924    0.603142
 C   -3.445999   -0.398302   -0.553238
 C   -2.152393    0.366130   -0.876224
 O   -1.409625   -0.023258   -1.774250
 C   -4.701918    0.470461   -0.424857
 C   -5.952170   -0.343273   -0.100630
 C   -7.210570    0.531145   -0.078642
 N   -8.431409   -0.182762    0.238387
 C   -9.012596   -1.053390   -0.678325
 N  -10.032068   -1.807801   -0.094639
 N   -8.732633   -1.220319   -1.916005
 N   -1.861068    1.405663   -0.060038
 C   -0.524371    1.990743   -0.012713
 C    0.379598    1.145400    0.903160
 O    0.942836    1.586401    1.898882
 C   -0.585247    3.455240    0.411586
 C   -0.909475    4.406115   -0.748056
 C    0.117119    4.442625   -1.889296
 C    1.402867    5.237607   -1.635530
 N    2.169396    4.873817   -0.448577
 N    0.496691   -0.147649    0.508226
 C    1.110051   -1.154762    1.353262
 C    2.635455   -1.055694    1.449031
 O    3.232279   -1.662972    2.325132
 C    0.701250   -2.577278    0.939354
 C    1.389392   -3.174443   -0.299717
 C    1.102316   -2.412396   -1.596207
 C    0.981384   -4.642265   -0.442612
 N    3.236417   -0.282606    0.513135
 C    4.646693    0.034071    0.560566
 C    4.821901    1.559276    0.627110
 O    5.730182    2.134936    0.053664
 C    5.413860   -0.545263   -0.636136
 C    5.132095   -2.012806   -0.862891
 C    4.624613   -2.451197   -2.086700
 C    5.099949   -4.310391   -0.085480
 C    4.365332   -3.800307   -2.316912
 C    5.364296   -2.963345    0.136446
 C    4.602343   -4.736011   -1.315498
 N    3.876844    2.210291    1.374173
 C    3.576936    3.571601    1.043247
 C    2.683404    3.644938   -0.208503
 O    2.449095    2.666305   -0.907763
 H   -3.130376   -1.704315    3.828780
 H   -2.821479   -2.912343    2.550939
 H   -1.541903   -1.790612    3.062403
 H   -2.954101   -2.223076    0.400269
 H   -3.582467   -1.076899   -1.398494
 H   -4.563367    1.241265    0.337139
 H   -4.828288    0.986260   -1.385490
 H   -5.835813   -0.819816    0.879995
 H   -6.083206   -1.151943   -0.830692
 H   -7.348981    1.029420   -1.045416
 H   -7.092398    1.329790    0.662074
 H   -8.476592   -0.525022    1.189318
 H  -10.527923   -2.332817   -0.803848
 H  -10.666534   -1.262810    0.476545
 H   -7.903541   -0.699172   -2.191154
 H   -2.411061    1.463666    0.795110
 H   -0.105496    1.897482   -1.017659
 H    0.360515    3.720908    0.881312
 H   -1.345197    3.564668    1.195327
 H   -1.879832    4.116408   -1.170905
 H   -1.041917    5.418960   -0.344617
 H    0.388746    3.430972   -2.199752
 H   -0.351863    4.911117   -2.763544
 H    2.045761    5.147549   -2.519873
 H    1.156392    6.297913   -1.518681
 H    2.449858    5.620796    0.168276
 H    0.061943   -0.422931   -0.365776
 H    0.767390   -0.975850    2.378545
 H    0.924793   -3.221460    1.795992
 H   -0.391099   -2.590287    0.802174
 H    2.471737   -3.150229   -0.124872
 H    1.579306   -1.427641   -1.606495
 H    1.504855   -2.961655   -2.452967
 H    0.025890   -2.273704   -1.760963
 H    1.220038   -5.212031    0.462354
 H   -0.096671   -4.737931   -0.630128
 H    1.510260   -5.106740   -1.281129
 H    2.660471    0.242284   -0.133487
 H    5.017408   -0.403268    1.494148
 H    6.481992   -0.371169   -0.470688
 H    5.149481    0.026514   -1.532014
 H    4.427663   -1.724722   -2.871370
 H    5.281166   -5.030858    0.706707
 H    3.973036   -4.117495   -3.279266
 H    5.736394   -2.647184    1.106591
 H    4.399152   -5.788758   -1.488940
 H    3.069957    1.673109    1.674758
 H    3.076430    4.055802    1.887986
 H    4.513857    4.099073    0.840756
