46 
1utt_ligand_xtb.xyz
 C   -2.083784    0.531970   -0.402697
 C   -2.312977   -0.812558   -0.740178
 N   -3.233055    1.251314   -0.161788
 C   -0.783098    1.013094   -0.357850
 C   -1.250197   -1.647310   -1.008320
 C   -3.751730   -1.195827   -0.735421
 S   -4.463524    0.147843    0.263341
 C   -3.241627    2.535953    0.487366
 C    0.273869    0.165722   -0.650046
 C    0.058752   -1.164925   -0.974136
 O   -4.399161   -0.149863    1.661440
 O   -5.705591    0.632729   -0.249738
 C    1.165358   -2.165266   -1.252678
 C    2.586392   -1.599349   -1.219603
 O    1.102514   -3.257197   -0.350155
 N    2.998862   -1.307152    0.134943
 C    1.298126   -2.848495    0.982318
 C    4.131967   -0.405624    0.294913
 C    2.447307   -1.879978    1.223671
 C    3.700006    1.026691    0.129254
 O    2.814374   -1.627676    2.356224
 C    3.990707    1.741927   -1.024526
 C    2.940907    1.627334    1.128782
 C    3.529660    3.038993   -1.178870
 C    2.478409    2.920951    0.972232
 C    2.770512    3.628360   -0.183190
 H   -0.585558    2.040290   -0.097373
 H   -1.422839   -2.687228   -1.242596
 H   -3.950246   -2.161010   -0.280082
 H   -4.219225   -1.123230   -1.714635
 H   -4.287068    2.817305    0.601576
 H   -2.768246    2.500935    1.473473
 H   -2.736036    3.271371   -0.139113
 H    1.270438    0.571016   -0.603545
 H    0.991535   -2.616345   -2.238003
 H    2.651190   -0.688337   -1.821297
 H    3.265294   -2.348156   -1.652335
 H    1.486412   -3.755849    1.560580
 H    0.390456   -2.370093    1.384199
 H    4.516959   -0.567283    1.305035
 H    4.898782   -0.672439   -0.438430
 H    4.586878    1.286806   -1.803625
 H    2.713935    1.066432    2.023013
 H    3.763011    3.588328   -2.079095
 H    1.890926    3.379599    1.753809
 H    2.410683    4.639324   -0.305394
