51 
1utz_ligand_dft.xyz
 S    0.727616   -1.752223   -1.028867
 C    0.741984   -0.155281   -0.348191
 C   -0.526020    0.280762   -0.096645
 C   -1.534850   -0.675117   -0.429085
 C   -0.986212   -1.822810   -0.940480
 C   -2.984200   -0.454594   -0.251930
 C   -3.835226   -1.506358    0.102903
 C   -5.199311   -1.299398    0.250757
 C   -5.757382   -0.031294    0.059786
 C   -4.904935    1.022361   -0.285168
 C   -3.541569    0.814200   -0.440847
 C   -7.214325    0.189957    0.220377
 C   -8.148650   -0.749687   -0.223062
 C   -9.503886   -0.494371   -0.049508
 N   -9.988768    0.610625    0.521032
 C   -9.093018    1.506283    0.942135
 C   -7.717483    1.347749    0.819284
 C    1.968464    0.635773   -0.061149
 O    1.903679    1.836743    0.160187
 N    3.146471   -0.052037   -0.079499
 C    4.406052    0.590596    0.292878
 C    4.822658    1.598348   -0.788144
 C    5.990203    2.442393   -0.348337
 O    6.337193    2.628875    0.794311
 O    6.611346    3.018050   -1.394213
 C    5.461644   -0.476484    0.505252
 C    6.237993   -0.485242    1.663454
 C    7.215776   -1.458107    1.849559
 C    7.425492   -2.435147    0.880844
 C    6.658534   -2.430771   -0.281084
 C    5.685867   -1.454139   -0.468753
 H   -0.715589    1.252723    0.343008
 H   -1.510173   -2.691886   -1.315612
 H   -3.418603   -2.491418    0.292953
 H   -5.836070   -2.126206    0.552505
 H   -5.318317    2.010777   -0.464010
 H   -2.904738    1.642252   -0.738620
 H   -7.827242   -1.660041   -0.719620
 H  -10.241666   -1.215898   -0.394260
 H   -9.498055    2.401138    1.409974
 H   -7.046407    2.107697    1.207525
 H    3.117694   -1.058173    0.004803
 H    4.258300    1.147121    1.224124
 H    3.984955    2.277589   -0.981592
 H    5.063774    1.093819   -1.728247
 H    7.318940    3.567542   -1.020106
 H    6.085168    0.285792    2.412148
 H    7.813537   -1.452429    2.756141
 H    8.186353   -3.195750    1.028504
 H    6.819908   -3.185958   -1.044647
 H    5.099097   -1.450309   -1.385159
