67 
1uvs_ligand_ani.xyz
 C   -5.142991   -1.722491   -1.708297
 C   -5.214343   -0.202139   -1.532525
 C   -4.662811    0.277935   -0.182200
 C   -5.237181   -0.520077    0.996356
 C   -5.184688   -2.039044    0.800892
 C   -5.812780   -2.444195   -0.535868
 S   -2.855933    0.284263   -0.223024
 O   -2.356255   -1.089851   -0.201079
 O   -2.441615    1.194172   -1.284473
 N   -2.453870    0.990191    1.239211
 C   -1.599726    0.241076    2.167297
 C   -0.126623    0.281929    1.767661
 O    0.642019    1.124533    2.239302
 N    0.259156   -0.625401    0.849770
 C    1.624605   -0.781025    0.399103
 C    1.839426   -0.174540   -0.997430
 C    1.307466    1.251077   -1.154192
 N    1.821576    2.117682   -0.121877
 C    1.892953    3.480619   -0.223604
 C    1.944980    4.249558    0.953339
 C    2.067654    5.624831    0.849031
 N    2.139067    6.294093   -0.304303
 C    2.082585    5.553383   -1.411886
 C    1.960004    4.172828   -1.441007
 C    1.884598   -2.290611    0.312186
 O    0.971532   -3.035917   -0.014810
 N    3.142956   -2.760077    0.575383
 C    3.384580   -4.193858    0.430668
 C    4.188871   -4.471870   -0.837116
 C    5.494951   -3.673449   -0.827250
 C    5.221325   -2.182272   -0.619466
 C    4.360057   -1.959702    0.625321
 H   -4.092896   -2.030958   -1.774217
 H   -5.623581   -2.001482   -2.652637
 H   -6.267207    0.111255   -1.577658
 H   -4.686919    0.317121   -2.338963
 H   -4.902404    1.340057   -0.052552
 H   -6.288358   -0.213959    1.095999
 H   -4.733941   -0.222537    1.923338
 H   -4.142194   -2.374651    0.827257
 H   -5.706693   -2.528333    1.630990
 H   -5.746136   -3.530663   -0.671825
 H   -6.885341   -2.196690   -0.523390
 H   -2.129823    1.942001    1.087122
 H   -1.965174   -0.787214    2.207801
 H   -1.693493    0.704675    3.150526
 H   -0.409721   -1.288046    0.465336
 H    2.269530   -0.304754    1.142598
 H    2.909681   -0.205007   -1.237076
 H    1.332070   -0.815295   -1.729552
 H    0.206804    1.240655   -1.161950
 H    1.625687    1.629829   -2.129069
 H    1.636206    1.804871    0.827084
 H    1.872024    3.759152    1.923871
 H    2.110380    6.230658    1.753386
 H    2.139827    6.100241   -2.353054
 H    1.928361    3.657958   -2.396346
 H    3.946160   -4.540202    1.310028
 H    2.413455   -4.690837    0.416619
 H    4.390549   -5.546530   -0.925034
 H    3.583239   -4.185682   -1.706629
 H    6.136805   -4.042189   -0.013579
 H    6.048752   -3.835211   -1.759184
 H    6.160359   -1.623526   -0.523966
 H    4.698675   -1.778196   -1.497570
 H    4.106417   -0.906654    0.750135
 H    4.928734   -2.264763    1.515673
