25 
1uwt_ligand_dft.xyz
 C    0.523354    1.154686    0.138634
 N    0.997902    2.348071    0.139536
 C    1.532208    0.044190    0.304642
 N   -0.792111    0.804552    0.108803
 O   -0.035468    3.291602    0.005044
 O    2.843032    0.444870   -0.008437
 C    1.154105   -1.137460   -0.580852
 O    2.010241   -2.232755   -0.330677
 C   -0.266178   -1.595876   -0.263465
 O   -0.343065   -2.059772    1.067025
 C   -1.254303   -0.450289   -0.475762
 C   -2.626837   -0.770472    0.092920
 O   -3.475285    0.307595   -0.264412
 H    1.479688   -0.293977    1.349853
 H   -1.439948    1.573976   -0.003712
 H    0.439337    4.129414    0.029385
 H    2.836074    1.415830   -0.022108
 H    1.215790   -0.821940   -1.634228
 H    2.910568   -1.878925   -0.309935
 H   -0.537885   -2.401696   -0.963253
 H    0.436230   -2.621866    1.189303
 H   -1.368321   -0.327254   -1.564820
 H   -2.985633   -1.719997   -0.331650
 H   -2.540337   -0.882087    1.179394
 H   -4.255830    0.279160    0.298340
