40 
1ux7_ligand_ani.xyz
 O    4.993694    0.167939   -0.125448
 C    5.926770   -0.641763    0.564072
 C    3.682259   -0.060437    0.252854
 C    2.808347    0.945138   -0.480062
 C    1.337424    0.746916   -0.155714
 C    0.944307   -0.720858   -0.327066
 C    1.973878   -1.635520    0.334320
 O    3.140384    2.274589   -0.137067
 O    0.567878    1.531107   -1.050058
 O   -0.287680   -1.067952    0.295649
 O    3.289497   -1.362229   -0.116806
 C   -1.403754   -0.315510   -0.056514
 C   -2.644274   -1.192816    0.109294
 C   -3.881427   -0.390512   -0.252182
 C   -3.927840    0.901758    0.549373
 C   -2.593502    1.630280    0.431433
 O   -2.613717   -2.323636   -0.735869
 O   -5.068219   -1.102733    0.029863
 O   -4.933534    1.763344    0.068973
 O   -1.519930    0.784240    0.819915
 H    6.918619   -0.340050    0.220005
 H    5.861836   -0.482696    1.650789
 H    5.772589   -1.705880    0.352974
 H    3.571809    0.054444    1.350050
 H    2.942007    0.763532   -1.558932
 H    1.155468    1.046213    0.888082
 H    0.895124   -0.922609   -1.409487
 H    1.904531   -1.513140    1.427183
 H    1.764702   -2.680004    0.093483
 H    4.082038    2.379323   -0.327856
 H    0.812386    2.450434   -0.879238
 H   -1.325500    0.035257   -1.099002
 H   -2.704080   -1.482734    1.171003
 H   -3.834521   -0.135178   -1.327796
 H   -4.096205    0.636839    1.606287
 H   -2.569242    2.498742    1.093759
 H   -2.457894    1.980446   -0.604358
 H   -1.811657   -2.814587   -0.513948
 H   -5.003552   -1.944738   -0.442222
 H   -5.758588    1.258971    0.097167
