61 
1uxa_ligand_ani.xyz
 C    0.322065   -1.708424    1.661264
 C    0.170457   -1.415545    0.149302
 C   -0.672807   -2.439987   -0.586786
 C   -2.168112   -2.311375   -0.321164
 C   -2.617177   -0.839476   -0.454431
 C   -1.703435    0.089993    0.358375
 C   -1.970208    1.605787    0.107103
 C   -2.676805    2.287624    1.297800
 C   -2.882020    3.778680    1.060867
 C   -5.061504   -0.929757   -0.777813
 C   -6.409709   -0.488553   -0.253565
 N   -3.986939   -0.651354   -0.004279
 O   -0.295651   -2.830054    2.057138
 O    0.931180   -1.001717    2.424636
 O   -2.808659   -3.143307   -1.255812
 O   -0.357627   -0.135253   -0.012665
 O   -0.777246    2.324691   -0.085408
 O   -3.937593    1.688587    1.587440
 O   -3.891866    3.882341    0.060330
 O   -4.967438   -1.525343   -1.852545
 C    3.709969    1.495845   -1.139507
 C    2.586365    0.488879   -1.376023
 C    2.313311   -0.315404   -0.108009
 C    3.623631   -0.906182    0.426104
 C    4.672289    0.192753    0.572784
 C    6.033733   -0.321929    1.014298
 O    3.987572    2.107935   -2.364707
 O    1.413756    1.171864   -1.774618
 O    1.461970   -1.419267   -0.405605
 O    4.130808   -1.866700   -0.470313
 O    4.877784    0.863447   -0.669955
 O    6.940977    0.744240    1.172582
 H   -0.344208   -3.451947   -0.342943
 H   -0.512969   -2.290287   -1.660124
 H   -2.391429   -2.644523    0.704753
 H   -2.539580   -0.578240   -1.517784
 H   -1.819849   -0.138416    1.428058
 H   -2.625147    1.691863   -0.780290
 H   -2.043906    2.152370    2.184073
 H   -1.946257    4.246723    0.737013
 H   -3.218801    4.239546    2.001031
 H   -6.910649    0.094259   -1.031694
 H   -6.343766    0.104579    0.662482
 H   -7.020283   -1.376618   -0.064144
 H   -4.112395   -0.067362    0.816063
 H   -0.140658   -2.895793    3.014472
 H   -3.628569   -2.714377   -1.570163
 H   -0.157051    1.774593   -0.596688
 H   -4.579143    2.189315    1.055790
 H   -4.201604    4.793643    0.028625
 H    3.389882    2.250110   -0.391353
 H    2.923951   -0.208954   -2.153659
 H    1.863632    0.336641    0.652023
 H    3.418512   -1.346779    1.416597
 H    4.325647    0.935153    1.314465
 H    5.943199   -0.809379    1.991078
 H    6.390105   -1.067864    0.290499
 H    4.901384    2.416032   -2.315939
 H    1.654737    1.697098   -2.551254
 H    3.387193   -2.448521   -0.682896
 H    6.962612    1.207327    0.324266
