52 
1uy6_ligand_dft.xyz
 C    4.219762    2.199930    1.024501
 O    4.210618    0.968111    0.339477
 C    3.105421    0.191785    0.443532
 C    1.977441    0.516145    1.204192
 C    3.137147   -0.999187   -0.289701
 O    4.205765   -1.283991   -1.087313
 C    5.215971   -2.038441   -0.438118
 C    2.048026   -1.880913   -0.227071
 O    2.185571   -3.019442   -0.944379
 C    1.096059   -3.915656   -0.972510
 C    0.923487   -1.553071    0.531865
 C    0.889311   -0.350410    1.235792
 C   -0.366475    0.029435    1.992444
 C   -1.617108   -0.012230    1.164126
 N   -2.713896   -0.613831    1.560627
 C   -3.611219   -0.396025    0.537031
 C   -4.952047   -0.769973    0.342946
 N   -5.627903   -1.522093    1.246023
 C   -3.031873    0.344907   -0.485113
 N   -3.618010    0.729646   -1.624456
 C   -4.880657    0.317604   -1.681142
 N   -5.575471   -0.393530   -0.781073
 N   -1.742932    0.588464   -0.077382
 C   -0.751189    1.295366   -0.878111
 C   -0.356435    2.651492   -0.300543
 C    0.810711    3.266676   -1.071072
 C    1.252506    4.608722   -0.492015
 H    3.417436    2.862308    0.674368
 H    4.126551    2.060817    2.109370
 H    5.184166    2.657877    0.802179
 H    1.932121    1.448307    1.756172
 H    5.624821   -1.490457    0.419725
 H    4.828995   -3.009239   -0.105538
 H    6.005029   -2.196822   -1.175630
 H    0.866372   -4.303277    0.028160
 H    0.199210   -3.443256   -1.392196
 H    1.404615   -4.739774   -1.616377
 H    0.061244   -2.209966    0.567776
 H   -0.246795    1.028362    2.428952
 H   -0.541159   -0.657549    2.826227
 H   -5.235765   -1.637095    2.166856
 H   -6.626334   -1.598091    1.132940
 H   -5.432231    0.594132   -2.576740
 H   -1.205535    1.421950   -1.864526
 H    0.129055    0.656858   -0.991552
 H   -0.065893    2.536566    0.750581
 H   -1.225371    3.320841   -0.316830
 H    0.530423    3.393395   -2.124636
 H    1.653429    2.561965   -1.058543
 H    0.439319    5.342121   -0.528824
 H    1.552528    4.503849    0.558223
 H    2.102577    5.021200   -1.044785
