44 
1uy7_ligand_xtb.xyz
 C   -0.098182    4.163111   -0.387523
 C    1.197545    3.462909    0.007258
 C    1.056974    2.637937    1.286741
 C    0.286403    1.330365    1.082352
 N    1.020191    0.422953    0.238159
 C    2.183449   -0.190056    0.601744
 N    2.847248   -0.109191    1.756810
 C    3.945569   -0.838333    1.761170
 N    4.434018   -1.601530    0.795334
 C    2.581104   -0.958907   -0.504238
 C    3.770077   -1.690767   -0.359698
 N    4.252583   -2.503191   -1.321911
 N    1.668855   -0.803155   -1.516814
 C    0.767760    0.016522   -1.049187
 C   -0.428632    0.444728   -1.825092
 C   -1.716262    0.052016   -1.145040
 C   -2.800449    0.921797   -1.098691
 C   -3.973617    0.556482   -0.473707
 C   -1.845789   -1.195785   -0.553672
 C   -3.016873   -1.574453    0.079409
 C   -4.094564   -0.697065    0.126926
 O   -5.291555   -0.957281    0.722337
 C   -5.478121   -2.207553    1.339348
 H   -0.905923    3.449847   -0.533096
 H   -0.401654    4.861210    0.389683
 H    0.037186    4.719601   -1.312353
 H    1.970883    4.218402    0.160913
 H    1.534775    2.815461   -0.805950
 H    0.543094    3.227668    2.047611
 H    2.046149    2.380217    1.669405
 H   -0.694669    1.507500    0.640482
 H    0.152314    0.843390    2.053247
 H    4.529535   -0.808839    2.671776
 H    5.162648   -2.908004   -1.194263
 H    3.830319   -2.473941   -2.231970
 H   -0.359733   -0.042024   -2.801353
 H   -0.406911    1.525664   -1.984754
 H   -2.728815    1.896362   -1.561391
 H   -4.816953    1.227542   -0.434971
 H   -1.015719   -1.886476   -0.588713
 H   -3.075195   -2.553283    0.528435
 H   -5.385616   -3.028781    0.621156
 H   -4.770355   -2.361093    2.160556
 H   -6.491538   -2.191072    1.737200
