44 
1uy7_ligand_ani.xyz
 C    4.808468    7.164124   23.987372
 C    3.374423    7.093251   24.509645
 C    3.189094    7.719478   25.893968
 C    3.184695    9.248230   25.934392
 N    2.037525    9.836057   25.256842
 C    0.750067    9.768672   25.737053
 N    0.328822    9.283405   26.909371
 C   -0.990502    9.401081   27.041020
 N   -1.882553    9.910303   26.180420
 C   -0.042580   10.331294   24.746318
 C   -1.423502   10.383691   25.014592
 N   -2.286964   10.889323   24.110133
 N    0.722409   10.745388   23.673476
 C    1.947119   10.443856   24.020869
 C    3.165400   10.733603   23.193650
 C    4.105536   11.756061   23.810965
 C    5.481113   11.530579   23.900149
 C    6.333022   12.479995   24.443246
 C    3.610872   12.969377   24.278980
 C    4.451202   13.937626   24.824671
 C    5.820061   13.693227   24.910539
 O    6.728359   14.565543   25.425100
 C    6.246634   15.810586   25.880880
 H    4.893512    6.693314   23.001828
 H    5.167037    8.194819   23.891555
 H    5.496809    6.646226   24.665992
 H    2.686192    7.557966   23.791476
 H    3.078039    6.039389   24.567698
 H    2.247769    7.376313   26.336871
 H    3.992184    7.367176   26.555289
 H    3.132262    9.574906   26.976396
 H    4.093879    9.677009   25.508463
 H   -1.408145    9.029865   27.974177
 H   -3.252821   11.015985   24.366497
 H   -1.919541   11.340202   23.287129
 H    3.705963    9.796986   23.001959
 H    2.798555   11.090953   22.224891
 H    5.903617   10.593889   23.539064
 H    7.402020   12.308366   24.520146
 H    2.543015   13.171013   24.211251
 H    4.027938   14.872905   25.175188
 H    5.530254   15.687804   26.704017
 H    7.118871   16.359080   26.239345
 H    5.767862   16.377088   25.071112
