52 
1uyd_ligand_ani.xyz
 C    4.879552   14.973039   26.830171
 O    4.771601   15.022256   25.408962
 C    4.986582   13.826913   24.791236
 C    3.922506   13.129000   24.205684
 C    6.280336   13.319691   24.701321
 O    7.311605   13.941906   25.347599
 C    7.786133   15.087768   24.653883
 C    6.525832   12.174187   23.927789
 O    7.830502   11.821421   23.813681
 C    8.119768   10.643812   23.096366
 C    5.456576   11.504117   23.335763
 C    4.133447   11.932858   23.514362
 C    2.986015   11.130199   22.909105
 C    1.791808   10.895937   23.788646
 N    0.569117   11.162219   23.406908
 C   -0.203229   10.835667   24.499983
 C   -1.586088   10.916109   24.752114
 N   -2.434028   11.352275   23.800367
 C    0.578199   10.350916   25.539392
 N    0.145099    9.967635   26.744154
 C   -1.174694   10.102894   26.855773
 N   -2.057606   10.543197   25.949112
 N    1.869980   10.376168   25.065333
 C    2.995526    9.821698   25.804321
 C    2.978569    8.293399   25.874227
 C    3.138641    7.568159   24.536326
 C    4.549125    7.650349   23.957813
Cl    2.346152   13.827206   24.336672
 H    4.721690   15.994290   27.182542
 H    5.870972   14.622681   27.134343
 H    4.105939   14.319806   27.251860
 H    8.574290   15.524028   25.271184
 H    6.978814   15.815205   24.510916
 H    8.202858   14.799269   23.681007
 H    9.198685   10.498928   23.167578
 H    7.834611   10.736254   22.039961
 H    7.606079    9.775454   23.531366
 H    5.650693   10.641979   22.707508
 H    3.373921   10.158854   22.573485
 H    2.600137   11.641809   22.021628
 H   -3.407508   11.483937   24.021867
 H   -2.055407   11.708451   22.937127
 H   -1.600727    9.813360   27.813636
 H    2.928415   10.223599   26.819115
 H    3.915579   10.207455   25.364894
 H    2.037811    7.995570   26.349860
 H    3.784503    7.980069   26.551865
 H    2.409742    7.954175   23.811713
 H    2.880778    6.512935   24.686341
 H    4.614433    7.117456   23.003014
 H    5.278557    7.204970   24.644352
 H    4.861115    8.684472   23.779779
