52 
1uyd_ligand_xtb.xyz
 C   -3.449380   -3.242348    1.411372
 O   -2.330668   -2.691480    0.752288
 C   -2.357371   -1.459929    0.195897
 C   -1.156622   -1.097887   -0.441470
 C   -3.417290   -0.546755    0.207539
 O   -4.592601   -0.851975    0.864382
 C   -5.761927   -0.893682    0.067316
 C   -3.250532    0.707971   -0.413086
 O   -4.314915    1.557000   -0.338074
 C   -4.189120    2.851444   -0.875904
 C   -2.055959    1.023491   -1.037613
 C   -0.988113    0.130799   -1.052296
 C    0.289993    0.516130   -1.746786
 C    1.546523    0.202502   -1.006227
 N    2.568034   -0.360242   -1.591681
 C    3.532530   -0.462260   -0.623357
 C    4.834737   -0.983950   -0.589055
 N    5.446189   -1.497635   -1.677826
 C    3.043519    0.076288    0.577470
 N    3.724483    0.132661    1.723915
 C    4.930557   -0.389982    1.622341
 N    5.508891   -0.933542    0.562017
 N    1.774446    0.504361    0.313220
 C    0.936288    1.159824    1.283965
 C    1.512837    2.525582    1.668720
 C    1.502897    3.528396    0.514804
 C    0.109435    4.074973    0.224839
Cl    0.112974   -2.269383   -0.444305
 H   -3.785359   -2.611034    2.235029
 H   -4.279532   -3.414712    0.722031
 H   -3.099422   -4.199818    1.797706
 H   -6.025500    0.092903   -0.316700
 H   -5.641408   -1.588295   -0.771589
 H   -6.550435   -1.252063    0.726825
 H   -3.381219    3.410604   -0.394283
 H   -4.023380    2.824941   -1.957618
 H   -5.137985    3.344347   -0.670197
 H   -1.935183    1.976466   -1.526293
 H    0.265040    1.586490   -1.970617
 H    0.365729   -0.021038   -2.696054
 H    4.883199   -1.688028   -2.487483
 H    6.315605   -1.983468   -1.545226
 H    5.529558   -0.376323    2.523610
 H    0.899430    0.525957    2.175265
 H   -0.070908    1.252452    0.877690
 H    2.537055    2.366510    2.009716
 H    0.935001    2.923143    2.504732
 H    1.909583    3.052508   -0.380744
 H    2.161571    4.361971    0.766805
 H   -0.583923    3.270605   -0.007619
 H   -0.272261    4.612985    1.090120
 H    0.137338    4.761182   -0.619019
