43 
1uyk_ligand_ani.xyz
 C    5.070163    7.486184   24.376841
 C    3.642887    7.372351   24.909792
 C    3.439416    8.042441   26.270550
 C    3.347669    9.568981   26.248526
 N    2.160605   10.063663   25.564881
 C    0.887828    9.980332   26.073547
 N    0.500129    9.532658   27.274367
 C   -0.810708    9.626285   27.400160
 N   -1.740025   10.063067   26.563989
 C    0.057865   10.478087   25.076697
 C   -1.320385   10.503836   25.368338
 N   -2.215202   10.953580   24.472965
 N    0.789294   10.865345   23.971227
 C    2.029248   10.614097   24.303547
 C    3.217540   10.887762   23.428271
 C    4.165405   11.960347   23.950858
 C    3.639077   13.166217   24.445364
 C    4.528588   14.121781   24.876088
 C    5.545794   11.779078   23.897061
 O    4.263251   15.373479   25.362953
 C    6.446053   12.763456   24.334087
 C    5.902134   13.926703   24.825501
 O    6.542514   15.049579   25.280350
 C    5.515708   15.874571   25.820928
 F   -1.278814    9.204375   28.568056
 H    5.170021    6.992258   23.404159
 H    5.781425    7.015666   25.066151
 H    5.387182    8.527095   24.250649
 H    3.392964    6.309549   25.008493
 H    2.930985    7.779546   24.180043
 H    4.268640    7.762667   26.933929
 H    2.524322    7.665234   26.740336
 H    4.222216   10.030931   25.786801
 H    3.295250    9.936831   27.276605
 H   -3.188398   11.022127   24.723031
 H   -1.884914   11.335570   23.601377
 H    2.813549   11.186901   22.454915
 H    3.772329    9.953966   23.267443
 H    2.567066   13.335363   24.474160
 H    5.955904   10.852250   23.499764
 H    7.520556   12.619793   24.287247
 H    5.549206   15.830492   26.919112
 H    5.648662   16.899507   25.465846
