19 
1v0l_ligand_dft.xyz
 N  -65.046705   20.468524   54.473432
 C  -65.905145   19.933323   55.521947
 C  -65.053037   19.607150   56.742774
 O  -65.888111   19.075634   57.746124
 C  -63.963333   18.612566   56.361245
 O  -63.196867   18.397515   57.538677
 C  -63.136464   19.140325   55.191191
 C  -64.058055   19.496614   54.023627
 H  -65.610909   20.780200   53.690503
 H  -66.653473   20.682149   55.797078
 H  -66.443725   19.014097   55.222947
 H  -64.562046   20.531928   57.084785
 H  -65.291185   18.731592   58.424540
 H  -64.466971   17.677204   56.063840
 H  -62.609685   17.648631   57.385877
 H  -62.592790   20.034256   55.515793
 H  -62.399497   18.390093   54.877421
 H  -64.521320   18.567997   53.635060
 H  -63.476682   19.938202   53.208139
