17 
1v2j_ligand_ani.xyz
 C    6.738108   10.003544   20.630120
 C    5.998771    9.109454   19.853042
 C    6.551504    8.550363   18.706264
 C    7.843823    8.892595   18.314565
 C    8.585520    9.785802   19.083555
 C    8.038150   10.327052   20.242538
 C    6.165911   10.598067   21.882017
 N    6.776366   10.676669   23.003020
 N    4.895484   11.097203   21.760079
 H    4.992646    8.834938   20.166920
 H    5.966114    7.854681   18.110425
 H    8.272278    8.462080   17.413220
 H    9.596873   10.052652   18.787250
 H    8.612052   11.026578   20.849111
 H    7.705883   10.267031   22.927535
 H    4.418009   11.342569   22.612739
 H    4.345509   10.914722   20.939600
