61 
1v2k_ligand_ani.xyz
 N   18.171532    7.491146   12.185454
 C   19.013251    6.921111   11.320083
 C   20.380476    6.798510   11.510626
 C   20.081348    7.915967   13.597498
 C   18.726624    7.970095   13.298799
 C   20.957985    7.312049   12.682554
 N   22.335389    7.243256   12.876587
 C   22.977143    5.946382   12.676293
 C   24.472901    6.102669   12.443611
 C   24.403814    8.191122   13.797171
 C   22.904809    7.996439   13.984910
 C   25.114315    6.844527   13.614520
 C   26.599810    7.076301   13.350375
 O   27.032124    7.096440   12.206176
 N   27.422274    7.299361   14.426614
 C   27.041191    7.369545   15.829452
 C   27.431903    8.720336   16.424096
 C   29.238641    8.898163   14.758935
 C   28.840888    7.540405   14.193451
 N   28.856547    8.959898   16.174250
 S   29.614567   10.106189   17.121077
 O   31.024881   10.057540   16.778603
 O   29.149200    9.899068   18.480483
 C   28.967521   11.661937   16.552839
 C   29.512572   12.255884   15.446466
 C   27.880479   12.244054   17.244850
 C   27.337490   13.413682   16.784657
 C   28.961274   13.470559   14.952293
 C   27.858050   14.053655   15.625830
 C   27.302673   15.265709   15.131336
 C   28.940236   15.286947   13.338198
 C   29.483781   14.120290   13.804367
 C   27.835639   15.854979   14.018482
Cl   27.156930   17.339346   13.408420
 H   18.565283    6.524958   10.409235
 H   20.996753    6.342366   10.741699
 H   20.435710    8.316966   14.540373
 H   18.044745    8.438519   14.008782
 H   22.804118    5.291603   13.551385
 H   22.515960    5.449908   11.820855
 H   24.930647    5.115848   12.316340
 H   24.663755    6.665587   11.524388
 H   24.581121    8.802182   12.904375
 H   24.810044    8.751052   14.647802
 H   22.418751    8.974743   14.021559
 H   22.714411    7.489407   14.950767
 H   24.982473    6.234256   14.518808
 H   25.970927    7.204575   15.952379
 H   27.565880    6.577903   16.382932
 H   26.824741    9.529229   15.989829
 H   27.269603    8.713287   17.503875
 H   30.320788    9.034954   14.686688
 H   28.742325    9.701167   14.192928
 H   29.428906    6.754007   14.687658
 H   29.018193    7.491627   13.118500
 H   30.364576   11.810372   14.941665
 H   27.501093   11.751605   18.135155
 H   26.499063   13.872199   17.301706
 H   26.456936   15.717806   15.642135
 H   29.338319   15.785089   12.459697
 H   30.334638   13.673255   13.294133
