54 
1v2q_ligand_xtb.xyz
 N    1.616635   -1.113235   -0.334969
 C    2.998814   -1.126175   -0.765227
 C    3.714853    0.211510   -0.475363
 C    3.743130   -2.266607   -0.060853
 O    4.854438   -2.182950    0.382846
 O    3.015912   -3.383701   -0.074161
 C    3.565587   -4.488543    0.631994
 C    2.778520    1.361598   -0.702112
 C    2.514692    1.838871   -1.979704
 C    1.585874    2.846307   -2.175110
 C    0.894818    3.376389   -1.101811
 C    1.153081    2.914411    0.183450
 C    2.100622    1.914529    0.374424
 C    0.362829    3.415419    1.340019
 N   -0.901853    3.552703    1.361666
 N    1.076401    3.633230    2.485958
 C    1.290188   -1.209870    0.961175
 C   -0.214173   -1.046402    1.231198
 N   -0.767883    0.208816    0.785451
 O    2.089699   -1.424535    1.850456
 C   -6.896733   -1.985919    0.416975
 C   -5.551232   -1.408614    0.106439
 C   -5.169365   -0.182251    0.645581
 C   -3.919926    0.346664    0.380382
 C   -3.050843   -0.355649   -0.432331
 C   -3.403768   -1.572561   -0.978701
 C   -4.656245   -2.096298   -0.706729
 S   -1.440063    0.339840   -0.720547
 O   -1.556271    1.735272   -1.014776
 O   -0.731079   -0.491983   -1.666498
 H    0.889058   -0.905895   -1.014547
 H    2.998437   -1.335768   -1.839322
 H    4.046740    0.195231    0.563474
 H    4.594823    0.281437   -1.115163
 H    4.592883   -4.671163    0.310473
 H    2.931451   -5.341754    0.405461
 H    3.559075   -4.277893    1.702870
 H    3.038385    1.416811   -2.825407
 H    1.389164    3.211022   -3.171994
 H    0.154770    4.147406   -1.252846
 H    2.293334    1.542195    1.371607
 H   -1.354011    3.287220    0.491318
 H    2.054559    3.851557    2.405393
 H    0.569000    4.083584    3.230174
 H   -0.380476   -1.154339    2.307447
 H   -0.755877   -1.835729    0.704277
 H   -0.352827    1.049585    1.152243
 H   -7.632776   -1.198895    0.560156
 H   -6.844320   -2.567712    1.337566
 H   -7.231410   -2.645624   -0.379355
 H   -5.858756    0.359400    1.275861
 H   -3.605964    1.295767    0.783868
 H   -2.699930   -2.085273   -1.615297
 H   -4.943353   -3.046884   -1.131350
