17 
1v2s_ligand_dft.xyz
 C   -0.213903   -0.035498   -0.021960
 C    0.464758    1.174318   -0.189037
 C    1.856230    1.209483   -0.168426
 C    2.580672    0.036937    0.019618
 C    1.908661   -1.174065    0.176447
 C    0.520578   -1.211263    0.152478
 C   -1.705467   -0.111044   -0.035951
 N   -2.266975   -1.212798   -0.363670
 N   -2.353619    1.078591    0.275278
 H   -0.091583    2.089243   -0.371184
 H    2.373246    2.154190   -0.308265
 H    3.666242    0.064495    0.038054
 H    2.469861   -2.092955    0.317971
 H   -0.019145   -2.145452    0.264342
 H   -3.285014   -1.140739   -0.307027
 H   -3.348080    1.002088    0.439304
 H   -1.890542    1.675363    0.946543
