17 
1v2v_ligand_xtb.xyz
 C   -0.214420   -0.032519   -0.016740
 C    0.460737    1.168415   -0.212030
 C    1.843849    1.199805   -0.196037
 C    2.565217    0.037642    0.018167
 C    1.898657   -1.163150    0.202326
 C    0.517568   -1.199690    0.181458
 C   -1.690583   -0.106820   -0.033017
 N   -2.235391   -1.179554   -0.431127
 N   -2.357779    1.031994    0.349341
 H   -0.090397    2.077572   -0.406214
 H    2.360563    2.135457   -0.354411
 H    3.644922    0.067259    0.034116
 H    2.459447   -2.072560    0.361029
 H   -0.020797   -2.124631    0.313093
 H   -3.252825   -1.165067   -0.424280
 H   -3.354308    0.968898    0.483493
 H   -1.880564    1.723899    0.900913
