46 
1v7a_ligand_ani.xyz
 C    2.193774    0.991075   -0.763660
 N    2.705310   -0.113007   -0.121016
 C    3.625566    0.358469    0.770634
 N    3.730415    1.664160    0.737883
 C    2.837678    2.069108   -0.221041
 C    2.621526    3.489308   -0.589089
 O    1.808614    3.810750   -1.441780
 N    3.395559    4.365823    0.096066
 C    2.288841   -1.508539   -0.291068
 C    3.475013   -2.368069   -0.744536
 O    4.313794   -2.586850    0.386261
 C    1.612177   -2.041761    0.975489
 C    0.400290   -1.217685    1.373760
 C    3.044223   -3.698177   -1.347754
 O   -0.547141   -1.317561    0.320978
 C   -6.565722    0.664965   -0.293352
 C   -5.679468    0.867391    0.731085
 C   -4.363922    0.334840    0.666555
 C   -3.974677   -0.412770   -0.477106
 C   -4.916849   -0.603930   -1.524630
 C   -6.178579   -0.080233   -1.435643
 C   -3.417353    0.517841    1.704052
 C   -2.154451   -0.010556    1.626175
 C   -1.774841   -0.757947    0.481751
 C   -2.668609   -0.948652   -0.546868
 H    1.432282    0.934849   -1.530311
 H    4.193894   -0.312705    1.402530
 H    4.049656    4.035919    0.790230
 H    3.305438    5.349304   -0.102138
 H    1.552599   -1.479115   -1.098686
 H    4.016325   -1.773703   -1.492608
 H    5.077315   -3.091911    0.081126
 H    2.329849   -2.052747    1.800138
 H    1.292874   -3.075982    0.806195
 H    0.681227   -0.167788    1.530222
 H   -0.031120   -1.608283    2.305153
 H    2.549378   -4.326598   -0.600434
 H    2.359721   -3.542866   -2.187711
 H    3.917035   -4.244589   -1.722737
 H   -7.571593    1.073232   -0.238568
 H   -5.969899    1.438432    1.610760
 H   -4.615179   -1.176472   -2.399166
 H   -6.893683   -0.232106   -2.240189
 H   -3.709209    1.090128    2.582595
 H   -1.453325    0.145810    2.439569
 H   -2.362409   -1.520419   -1.418698
