46 
1v7a_ligand_xtb.xyz
 C    2.072086    0.965969   -0.672463
 N    2.685079   -0.124061   -0.136781
 C    3.745773    0.341745    0.570788
 N    3.847570    1.637203    0.511181
 C    2.800206    2.056751   -0.266732
 C    2.570059    3.479474   -0.569880
 O    1.645190    3.884938   -1.247163
 N    3.501591    4.283794   -0.010665
 C    2.249950   -1.494381   -0.261114
 C    3.417492   -2.385252   -0.737007
 O    4.267736   -2.627441    0.365065
 C    1.651879   -1.980092    1.065687
 C    0.417848   -1.166956    1.445179
 C    2.916905   -3.689937   -1.355480
 O   -0.549083   -1.368798    0.435982
 C   -6.511095    0.683240   -0.354528
 C   -5.620318    0.954757    0.644999
 C   -4.325607    0.395970    0.626768
 C   -3.955772   -0.456609   -0.447100
 C   -4.899335   -0.714302   -1.465550
 C   -6.145796   -0.157897   -1.418616
 C   -3.379666    0.650776    1.637597
 C   -2.131779    0.092639    1.605878
 C   -1.766300   -0.758950    0.545427
 C   -2.669064   -1.019218   -0.461223
 H    1.193373    0.901870   -1.279538
 H    4.415125   -0.305558    1.099968
 H    4.235515    3.865237    0.534721
 H    3.457120    5.278709   -0.144489
 H    1.465516   -1.514112   -1.023951
 H    3.969489   -1.818759   -1.507871
 H    4.957989   -3.242113    0.094504
 H    2.400974   -1.900112    1.852547
 H    1.361962   -3.024693    0.960210
 H    0.672628   -0.101217    1.526222
 H    0.036329   -1.511915    2.415943
 H    2.401437   -4.290408   -0.610770
 H    2.237179   -3.483725   -2.176834
 H    3.756886   -4.265651   -1.740463
 H   -7.501908    1.112966   -0.335375
 H   -5.893822    1.602237    1.466128
 H   -4.615419   -1.361309   -2.283220
 H   -6.862430   -0.360469   -2.201243
 H   -3.654085    1.303516    2.453964
 H   -1.432085    0.311995    2.397077
 H   -2.376990   -1.671001   -1.270539
