39 
1vcu_ligand_dft.xyz
 C    3.677627   -1.245028   -0.063223
 C    2.461432   -0.443512   -0.486618
 C    2.599259    1.042069   -0.161257
 C    1.304876    1.791787   -0.487815
 C    0.115198    1.086893    0.187230
 C    0.127033   -0.414527   -0.148455
 C   -0.968855   -1.221536    0.616428
 C   -2.001386   -1.793847   -0.355576
 C   -3.102235   -2.555199    0.364185
 C   -1.702055    2.755379    0.280387
 C   -3.152363    3.020595   -0.060745
 N   -1.179584    1.614124   -0.223184
 O    4.761594   -0.859510   -0.760110
 O    3.695610   -2.104223    0.778576
 O    1.473386    3.121210   -0.083309
 O    1.362201   -0.994220    0.196862
 O   -0.436791   -2.288717    1.356370
 O   -2.581745   -0.722082   -1.086396
 O   -4.064461   -2.866169   -0.635467
 O   -1.047059    3.547668    0.956888
 H    2.329881   -0.576688   -1.573427
 H    3.428843    1.485581   -0.717580
 H    2.807130    1.160860    0.908116
 H    1.129413    1.741896   -1.578367
 H    0.221953    1.206995    1.274504
 H   -0.027672   -0.525262   -1.235190
 H   -1.490540   -0.533742    1.299607
 H   -1.486371   -2.481182   -1.043785
 H   -2.688210   -3.453879    0.833162
 H   -3.537431   -1.911997    1.143525
 H   -3.651855    3.407026    0.830024
 H   -3.674615    2.129717   -0.419247
 H   -3.200732    3.796516   -0.830784
 H   -1.800504    0.977138   -0.716421
 H    5.505049   -1.390629   -0.432516
 H    0.656094    3.424050    0.358862
 H    0.528196   -2.261846    1.253360
 H   -3.393839   -1.079837   -1.476016
 H   -4.850766   -3.223688   -0.210099
