162 
1vij_ligand_ani.xyz
 C   -3.492310   -2.410664   -2.661200
 C   -1.612605   -3.378959   -1.270714
 C   -1.214149   -1.373107   -2.733863
 C   -2.228268   -2.108476   -1.857959
 S   -2.647497   -0.947138   -0.504687
 O   -3.411732    0.160938   -1.091266
 O   -1.399457   -0.630714    0.221105
 C   -3.728388   -1.881235    0.596250
 C   -4.403072   -0.992225    1.659982
 C   -5.690359   -0.301432    1.171381
 C   -6.773436   -1.294402    0.813280
 C   -7.414463   -1.957094    1.836536
 C   -8.458601   -2.874348    1.594164
 C   -8.857847   -3.134449    0.312460
 C   -8.217076   -2.495365   -0.783390
 C   -8.632062   -2.752564   -2.118892
 C   -8.014819   -2.154849   -3.181270
 C   -6.931068   -1.281594   -2.959651
 C   -6.498169   -1.022343   -1.681456
 C   -7.145202   -1.587275   -0.543718
 C   -3.428185    0.049823    2.190906
 O   -3.550870    1.244515    1.948313
 N   -2.415872   -0.441116    2.951871
 C   -1.219379    0.331257    3.188786
 C   -1.146089    0.926776    4.619682
 C   -2.091026    2.122274    4.744012
 C   -1.448490   -0.112722    5.698814
 C   -0.018101   -0.583423    2.923787
 O   -0.079255   -1.789442    3.143359
 N    1.095160    0.036014    2.457636
 C    2.280828   -0.686606    2.028059
 C    2.927667   -1.505471    3.159793
 C    3.125642   -0.720414    4.436116
 C    2.221829   -0.853680    5.491835
 C    2.375385   -0.116586    6.661687
 C    3.443243    0.765869    6.793530
 C    4.352195    0.906918    5.749682
 C    4.192662    0.168264    4.580496
 C    1.965267   -1.542776    0.773852
 O    1.299538   -0.738956   -0.182555
 C    3.243128   -2.173775    0.185748
 O    4.329881   -1.264835    0.194690
 C    3.095397   -2.812186   -1.211829
 C    4.390884   -3.558522   -1.586806
 C    4.726222   -4.708932   -0.666550
 C    4.095733   -5.946511   -0.822233
 C    4.397744   -7.011003    0.021226
 C    5.335122   -6.853445    1.038470
 C    5.963056   -5.623366    1.211245
 C    5.654675   -4.558279    0.368014
 N    2.822592   -1.755245   -2.177537
 C    2.737446   -1.897002   -3.527527
 O    2.898512   -2.950780   -4.129262
 C    2.475262   -0.588767   -4.297893
 C    3.684369   -0.213990   -5.194066
 C    4.992405   -0.151854   -4.398944
 C    3.817569   -1.151075   -6.394649
 N    2.111295    0.510667   -3.419869
 C    0.977618    1.253423   -3.602306
 O    0.252457    1.121332   -4.576800
 C    0.640853    2.199400   -2.440249
 C   -0.608571    3.044338   -2.759285
 C   -1.064991    3.808266   -1.540336
 C   -1.610434    3.091974   -0.494007
 C   -1.997273    3.710362    0.709736
 C   -1.826241    5.059190    0.878307
 C   -1.265949    5.848795   -0.162275
 C   -1.076686    7.247623   -0.000189
 C   -0.532762    8.014748   -0.995408
 C   -0.152267    7.412885   -2.210029
 C   -0.321242    6.062829   -2.398315
 C   -0.883923    5.227966   -1.389226
 C    1.835219    3.055591   -1.975440
 S    2.549013    2.395960   -0.458816
 O    3.408721    1.254678   -0.854587
 O    1.464050    2.167740    0.505741
 C    3.630233    3.696811    0.240494
 C    4.750463    3.991539   -0.751571
 C    4.184566    3.103966    1.535379
 C    2.781127    4.932493    0.536098
 H   -3.241543   -3.081916   -3.491575
 H   -4.264580   -2.902760   -2.060907
 H   -3.913446   -1.491858   -3.081355
 H   -1.233478   -4.006045   -2.086940
 H   -2.346940   -3.974682   -0.717533
 H   -0.772304   -3.147227   -0.607590
 H   -0.988055   -1.972825   -3.624656
 H   -0.277318   -1.198636   -2.195915
 H   -1.616196   -0.408948   -3.059287
 H   -3.108553   -2.648567    1.065287
 H   -4.490174   -2.366390   -0.020482
 H   -4.667585   -1.658195    2.494009
 H   -6.043925    0.335409    1.989360
 H   -5.448915    0.374682    0.352179
 H   -7.116877   -1.762251    2.865297
 H   -8.942152   -3.366220    2.434861
 H   -9.667198   -3.832229    0.110339
 H   -9.461020   -3.439143   -2.276489
 H   -8.347371   -2.356483   -4.196200
 H   -6.436502   -0.812290   -3.806913
 H   -5.620028   -0.394119   -1.545727
 H   -2.259426   -1.442094    2.981581
 H   -1.214758    1.164493    2.470800
 H   -0.110974    1.280368    4.751437
 H   -2.007163    2.580340    5.735203
 H   -3.131521    1.811761    4.597454
 H   -1.866892    2.892089    3.995188
 H   -0.857472   -1.025907    5.566298
 H   -2.506765   -0.394164    5.677144
 H   -1.228236    0.296813    6.691444
 H    1.000222    0.962418    2.055467
 H    2.988877    0.094432    1.732062
 H    2.303306   -2.380389    3.363649
 H    3.903902   -1.858096    2.800876
 H    1.386405   -1.541700    5.381291
 H    1.662926   -0.233056    7.476449
 H    3.567159    1.342019    7.706581
 H    5.191092    1.591543    5.849741
 H    4.912213    0.281946    3.770432
 H    1.289661   -2.359646    1.073809
 H    0.378426   -0.613519    0.113972
 H    3.518178   -2.979132    0.877270
 H    4.071528   -0.467084   -0.300580
 H    2.258164   -3.526458   -1.200097
 H    5.208251   -2.827148   -1.583157
 H    4.269236   -3.913407   -2.613142
 H    3.361745   -6.076566   -1.617084
 H    3.901317   -7.968292   -0.118408
 H    5.573800   -7.685845    1.695413
 H    6.691769   -5.489072    2.006129
 H    6.122741   -3.586344    0.520502
 H    2.342501   -0.961321   -1.774845
 H    1.609493   -0.779869   -4.942181
 H    3.459899    0.794106   -5.571543
 H    5.812807    0.177600   -5.045697
 H    4.940387    0.542808   -3.551092
 H    5.254370   -1.142387   -4.005335
 H    2.892188   -1.173132   -6.981631
 H    4.038690   -2.170760   -6.070276
 H    4.623704   -0.807415   -7.051947
 H    2.755377    0.754055   -2.674151
 H    0.375349    1.534794   -1.599417
 H   -1.398763    2.351927   -3.072750
 H   -0.414032    3.691796   -3.617459
 H   -1.752169    2.015172   -0.596160
 H   -2.435458    3.094436    1.491382
 H   -2.116411    5.557538    1.799348
 H   -1.377564    7.697189    0.943248
 H   -0.395185    9.083769   -0.854190
 H    0.282713    8.017348   -3.001362
 H   -0.000942    5.624805   -3.338998
 H    1.510523    4.070929   -1.745559
 H    2.633732    3.114580   -2.719122
 H    5.293093    3.079949   -1.013595
 H    5.458565    4.699885   -0.304217
 H    4.368147    4.449874   -1.670652
 H    3.373621    2.872975    2.233774
 H    4.757459    2.191077    1.337832
 H    4.853369    3.829072    2.014073
 H    2.450132    5.435170   -0.378552
 H    1.900768    4.671811    1.129358
 H    3.377000    5.657746    1.104326
