60 
1vja_ligand_dft.xyz
 O    2.543028   -3.407341   -1.715706
 C    3.576150   -3.443623   -0.763907
 C    3.614745   -2.154168    0.056283
 N    2.290451   -1.905764    0.605668
 C    2.074961   -1.051894    1.624525
 C    0.596937   -0.731460    1.892564
 N    0.007861   -0.241010    0.659751
 S   -1.336594   -0.897111   -0.042897
 C   -2.762697   -0.264008    0.868317
 C   -4.053553   -0.659575    0.207602
 C   -4.726497    0.255860   -0.603547
 C   -5.917894   -0.107253   -1.223216
 C   -6.440618   -1.384670   -1.042025
 C   -5.767215   -2.302495   -0.239642
 C   -4.577267   -1.942100    0.382759
 O   -1.238495   -2.333176    0.178680
 O   -1.378698   -0.337510   -1.387954
 C    0.467982    0.259666    3.041250
 O   -0.911239    0.445526    3.278970
 O    2.977545   -0.536688    2.285278
 C    3.981448   -0.951177   -0.831676
 O    3.871989   -0.988431   -2.054652
 N    4.365532    0.152585   -0.145775
 C    4.294021    1.467779   -0.768824
 C    2.879006    2.009583   -0.735075
 C    1.990121    1.746469   -1.779873
 C    0.671797    2.181578   -1.715992
 C    0.210743    2.890954   -0.602753
 C    1.101035    3.156658    0.445124
 C    2.417832    2.713922    0.378960
 C   -1.225236    3.305058   -0.509464
 N   -1.443114    4.476772    0.196390
 N   -2.223388    2.644303   -0.960528
 H    2.775493   -2.676937   -2.313204
 H    4.560779   -3.600586   -1.226226
 H    3.369400   -4.285931   -0.098155
 H    4.324712   -2.242345    0.884873
 H    1.511532   -2.196364    0.021512
 H    0.079343   -1.661063    2.153124
 H    0.187187    0.724116    0.402587
 H   -2.653738   -0.648740    1.884569
 H   -2.632431    0.821119    0.891210
 H   -4.309564    1.249937   -0.747997
 H   -6.437853    0.609686   -1.851698
 H   -7.370683   -1.666231   -1.527148
 H   -6.169423   -3.301281   -0.098677
 H   -4.042148   -2.659958    0.998071
 H    0.987720   -0.144032    3.918787
 H    0.965535    1.199339    2.761842
 H   -1.015981    1.124343    3.953918
 H    4.229021    0.109808    0.861794
 H    4.648473    1.367995   -1.796226
 H    4.976337    2.134005   -0.233626
 H    2.332611    1.179053   -2.639447
 H   -0.008628    1.958818   -2.531189
 H    0.748095    3.689869    1.322970
 H    3.093152    2.912594    1.207783
 H   -2.401194    4.796470    0.130541
 H   -0.761007    5.210432    0.062982
 H   -1.930476    1.751776   -1.360436
