60 
1vja_ligand_ani.xyz
 O    2.428027   -3.336274   -1.847818
 C    3.525263   -3.368443   -0.965177
 C    3.556664   -2.117109   -0.094182
 N    2.260982   -1.967366    0.554083
 C    2.094269   -1.128317    1.603580
 C    0.635365   -0.869304    1.997825
 N   -0.022475   -0.143396    0.924041
 S   -1.208061   -0.825638    0.009262
 C   -2.685512   -0.362528    0.918416
 C   -3.924234   -0.752861    0.162862
 C   -4.604985    0.201533   -0.596781
 C   -5.751836   -0.155280   -1.302887
 C   -6.219206   -1.464855   -1.258168
 C   -5.536972   -2.420012   -0.510558
 C   -4.392845   -2.065645    0.196411
 O   -1.033123   -2.270153    0.089935
 O   -1.223802   -0.157480   -1.282485
 C    0.543411   -0.125811    3.319082
 O   -0.830388   -0.051868    3.658202
 O    3.039127   -0.588001    2.175086
 C    3.843004   -0.870386   -0.954991
 O    3.694534   -0.885033   -2.177116
 N    4.234316    0.233406   -0.272946
 C    4.135323    1.540418   -0.912033
 C    2.735792    2.113341   -0.802644
 C    1.801168    1.936890   -1.827161
 C    0.492410    2.375915   -1.681746
 C    0.072113    2.994033   -0.501396
 C    1.009097    3.193416    0.518689
 C    2.318145    2.749385    0.371349
 C   -1.362822    3.406449   -0.324383
 N   -1.538040    4.607214    0.336206
 N   -2.356196    2.695206   -0.696079
 H    2.603352   -2.571118   -2.422788
 H    4.476924   -3.464540   -1.505664
 H    3.406074   -4.247910   -0.324817
 H    4.316299   -2.194431    0.690390
 H    1.453856   -2.277228    0.020151
 H    0.105803   -1.823738    2.087997
 H    0.332213    0.759447    0.623052
 H   -2.600805   -0.847465    1.897124
 H   -2.623613    0.722933    1.052825
 H   -4.218627    1.224940   -0.640517
 H   -6.282605    0.590259   -1.889419
 H   -7.114893   -1.742292   -1.809545
 H   -5.897001   -3.444972   -0.474937
 H   -3.852211   -2.817737    0.768091
 H    1.122580   -0.671034    4.074692
 H    0.989865    0.871931    3.206424
 H   -0.919694    0.497794    4.445113
 H    4.118936    0.199018    0.737244
 H    4.419555    1.417515   -1.960190
 H    4.865740    2.205313   -0.437286
 H    2.089831    1.418906   -2.738356
 H   -0.220554    2.212560   -2.487483
 H    0.694423    3.667937    1.444883
 H    3.024529    2.891484    1.187531
 H   -2.469455    4.995846    0.261896
 H   -0.799130    5.283895    0.201955
 H   -2.039188    1.822962   -1.136754
