60 
1vyq_ligand_xtb.xyz
 F    1.397590    4.765287    0.066991
 C    0.928046    3.483317   -0.127640
 C    2.037537    2.578727   -0.640363
 C    2.600468    1.930448    0.637754
 N    2.723514    0.470255    0.495367
 C    3.510504    0.013002   -0.547967
 N    3.629362   -1.348488   -0.618298
 C    3.088927   -2.307798    0.240046
 C    2.352334   -1.717186    1.334454
 C    2.202255   -0.383031    1.414612
 O    3.275602   -3.485063    0.036141
 O    4.054722    0.757660   -1.330836
 O    1.754773    2.266318    1.694702
 C    0.557634    2.864800    1.222017
 C   -0.605684    1.866396    1.133092
 O   -0.290953    0.860719    0.202662
 C   -1.304898   -0.138294   -0.030825
 C   -2.327152    0.319051   -1.064386
 C   -3.431894   -0.483627   -1.333305
 C   -4.345926   -0.116824   -2.302283
 C   -4.165930    1.051237   -3.025422
 C   -3.056657    1.839947   -2.782042
 C   -2.139923    1.471150   -1.812134
 C   -1.948322   -0.526607    1.291016
 C   -3.200008   -0.052291    1.665365
 C   -3.730069   -0.370505    2.904347
 C   -3.011094   -1.149272    3.793799
 C   -1.750952   -1.601480    3.440609
 C   -1.222710   -1.288706    2.201320
 C   -0.587151   -1.300195   -0.711721
 C   -0.927503   -2.625792   -0.478446
 C   -0.270361   -3.644375   -1.146727
 C    0.720834   -3.354833   -2.067024
 C    1.040322   -2.034235   -2.329357
 C    0.386624   -1.016632   -1.660185
 H    0.079224    3.579885   -0.808074
 H    1.622098    1.815644   -1.293239
 H    2.798763    3.136070   -1.179790
 H    3.607160    2.309442    0.869769
 H    4.188603   -1.698065   -1.388867
 H    1.948494   -2.381810    2.078090
 H    1.666062    0.098993    2.218349
 H    0.287578    3.641563    1.945326
 H   -1.519194    2.407087    0.845220
 H   -0.759837    1.440781    2.134280
 H   -3.573419   -1.400037   -0.779766
 H   -5.201135   -0.747003   -2.496518
 H   -4.881992    1.338226   -3.780797
 H   -2.898337    2.744487   -3.350790
 H   -1.264648    2.079165   -1.642594
 H   -3.769123    0.568900    0.989654
 H   -4.708117   -0.001398    3.175264
 H   -3.426647   -1.396002    4.759259
 H   -1.175457   -2.199153    4.131941
 H   -0.239466   -1.636635    1.927556
 H   -1.704170   -2.872496    0.230374
 H   -0.535638   -4.671078   -0.944334
 H    1.237364   -4.152316   -2.577955
 H    1.796351   -1.791585   -3.061773
 H    0.628389    0.011940   -1.875969
