60 
1vyq_ligand_ani.xyz
 F    1.529950    4.494231    0.020304
 C    0.994404    3.238923   -0.258308
 C    2.083440    2.328578   -0.793188
 C    2.741030    1.817247    0.492569
 N    3.301589    0.469569    0.382835
 C    4.582290    0.379516   -0.161712
 N    5.043083   -0.910792   -0.307333
 C    4.383331   -2.107290   -0.001847
 C    3.055671   -1.899984    0.560319
 C    2.575476   -0.654063    0.716644
 O    4.917459   -3.178834   -0.205791
 O    5.232853    1.354784   -0.477978
 O    1.719332    1.788349    1.467520
 C    0.602198    2.583103    1.070519
 C   -0.661074    1.734552    1.048386
 O   -0.525873    0.637928    0.158179
 C   -1.683351   -0.195310   -0.016355
 C   -2.707643    0.472260   -0.956905
 C   -4.026770    0.017485   -1.019842
 C   -4.925726    0.544345   -1.943776
 C   -4.521496    1.537217   -2.829499
 C   -3.204129    1.984792   -2.792982
 C   -2.309209    1.447144   -1.876528
 C   -2.269857   -0.532019    1.374341
 C   -3.302070    0.220439    1.950748
 C   -3.743237   -0.033752    3.247642
 C   -3.153782   -1.038702    4.007172
 C   -2.110302   -1.778412    3.460287
 C   -1.673690   -1.522884    2.164143
 C   -1.176644   -1.455463   -0.733489
 C   -1.944666   -2.618669   -0.770330
 C   -1.509474   -3.743608   -1.462322
 C   -0.295022   -3.720429   -2.139553
 C    0.468773   -2.556945   -2.127180
 C    0.022483   -1.431308   -1.443228
 H    0.153799    3.396500   -0.946022
 H    1.628968    1.488886   -1.329795
 H    2.779996    2.853983   -1.450383
 H    3.545735    2.479429    0.821971
 H    5.970183   -0.992332   -0.705774
 H    2.487515   -2.776651    0.839541
 H    1.578589   -0.448541    1.093059
 H    0.464714    3.374985    1.818488
 H   -1.525893    2.353733    0.767252
 H   -0.827822    1.357324    2.064360
 H   -4.378800   -0.744234   -0.324555
 H   -5.950661    0.184169   -1.962287
 H   -5.225065    1.952915   -3.545700
 H   -2.868729    2.755017   -3.482905
 H   -1.279084    1.793043   -1.877305
 H   -3.766185    1.026872    1.383818
 H   -4.555192    0.556264    3.663243
 H   -3.499732   -1.238275    5.017678
 H   -1.634618   -2.563746    4.042104
 H   -0.868269   -2.124242    1.745011
 H   -2.888099   -2.664642   -0.226913
 H   -2.116751   -4.644796   -1.463149
 H    0.052581   -4.599641   -2.675267
 H    1.423197   -2.525986   -2.650471
 H    0.621487   -0.527941   -1.457023
