58 
1w0z_ligand_ani.xyz
 N   -1.573718    3.627432   -1.025457
 N   -0.547229    5.079084    0.448057
 C   -0.510807    3.999029   -0.237800
 C    0.673050    3.075924   -0.302053
 C    1.034275    2.443109   -1.494934
 C    2.157659    1.629714   -1.552928
 C    2.966363    1.440883   -0.427426
 C    2.583634    2.049856    0.772257
 C    1.456983    2.859470    0.834718
 C    4.182547    0.536471   -0.476574
 N    3.876644   -0.804872   -0.004163
 C    3.305325   -1.686135   -0.873376
 O    3.339427   -1.551015   -2.087843
 C    2.577520   -2.865771   -0.202001
 N    1.276308   -2.403878    0.272612
 C    1.170111   -1.652449    1.387962
 O    2.126428   -1.411211    2.125051
 C   -0.231632   -1.110425    1.701782
 C   -0.313374   -0.580747    3.132738
 O   -1.589603   -0.036741    3.382228
 N   -0.630943   -0.037176    0.780362
 S   -1.592286   -0.442662   -0.524930
 O   -1.616259    0.699143   -1.425458
 O   -1.201196   -1.758370   -1.031991
 C   -3.185130   -0.592609    0.252448
 C   -4.248186   -1.020733   -0.756009
 C   -5.620878   -1.171560   -0.101938
 C   -6.707786   -1.559505   -1.101006
 C    2.417982   -4.024977   -1.169879
 H   -2.409987    4.166628   -0.849816
 H   -1.705838    2.638844   -1.212926
 H    0.339654    5.212064    0.933296
 H    0.430750    2.592626   -2.387732
 H    2.398224    1.118309   -2.482161
 H    3.178691    1.896119    1.671109
 H    1.167224    3.304871    1.785153
 H    4.991428    0.939459    0.143610
 H    4.553804    0.445975   -1.500592
 H    3.591794   -0.895061    0.968778
 H    3.148401   -3.169004    0.683530
 H    0.485351   -2.427532   -0.368505
 H   -0.965841   -1.914633    1.584516
 H   -0.167160   -1.407198    3.831332
 H    0.491048    0.148611    3.304589
 H   -1.682138    0.700646    2.760072
 H    0.106521    0.608158    0.497987
 H   -3.417844    0.384391    0.690413
 H   -3.082434   -1.317360    1.068298
 H   -4.292642   -0.275403   -1.559724
 H   -3.944023   -1.966884   -1.219275
 H   -5.892626   -0.227571    0.390258
 H   -5.559516   -1.929653    0.690835
 H   -7.681636   -1.669815   -0.612775
 H   -6.810000   -0.799315   -1.884269
 H   -6.469750   -2.510076   -1.592503
 H    1.862359   -4.840811   -0.697590
 H    1.890849   -3.698060   -2.071792
 H    3.398171   -4.401571   -1.476890
