61 
1w10_ligand_ani.xyz
 N   -2.095809    2.208271    1.169361
 C   -2.055086    2.471586   -0.094099
 N   -0.836504    2.674912   -0.703591
 N   -3.129900    2.530594   -0.954865
 C   -4.442506    1.995162   -0.621828
 C   -5.080803    1.294322   -1.820408
 C   -4.329954    0.068996   -2.361460
 C   -4.191217   -1.096301   -1.376410
 C   -3.943659   -2.408423   -2.118698
 O   -3.140987   -3.235610   -1.765618
 N   -3.161826   -0.873298   -0.386250
 C   -3.251883   -1.480837    0.835500
 O   -4.289334   -1.963269    1.259894
 C   -1.963181   -1.539635    1.665365
 C   -2.286577   -1.422942    3.152430
 N   -0.981868   -0.560409    1.232525
 C    0.349135   -0.842639    1.336800
 O    0.767294   -1.940808    1.672260
 C    1.293840    0.295998    0.930840
 C    1.220408    1.538927    1.851835
 O    1.501778    2.712150    1.119778
 N    2.625810   -0.258754    0.851561
 C    3.605405    0.363496    0.161116
 O    3.519932    1.501693   -0.288845
 O    4.696231   -0.403053    0.033437
 C    5.793496    0.232256   -0.649498
 C    6.945437   -0.756953   -0.746043
 C    8.181958   -0.054247   -1.308008
 C    6.566012   -1.967161   -1.598185
 H   -3.051982    2.180036    1.513361
 H   -0.081818    2.862466   -0.046150
 H   -0.831277    3.299157   -1.497789
 H   -2.890867    2.503371   -1.935695
 H   -4.350562    1.283294    0.205049
 H   -5.102136    2.801128   -0.274606
 H   -5.202862    2.022577   -2.633056
 H   -6.096738    0.991150   -1.535691
 H   -3.331550    0.355091   -2.721012
 H   -4.876429   -0.298945   -3.238691
 H   -5.131905   -1.232792   -0.829303
 H   -4.573424   -2.573769   -3.021456
 H   -2.221978   -0.688023   -0.713915
 H   -1.514208   -2.523407    1.468217
 H   -2.689108   -0.429447    3.385779
 H   -1.377404   -1.579712    3.740390
 H   -3.032032   -2.171079    3.431502
 H   -1.281855    0.419550    1.251664
 H    0.985145    0.667240   -0.060890
 H    0.214135    1.672667    2.262937
 H    1.925858    1.415201    2.684846
 H    2.332676    2.549791    0.627371
 H    2.718397   -1.239375    1.089947
 H    6.082226    1.129823   -0.091544
 H    5.460493    0.553110   -1.643504
 H    7.163204   -1.097181    0.276134
 H    9.038101   -0.736400   -1.352446
 H    7.992661    0.309470   -2.326631
 H    8.467924    0.805622   -0.691352
 H    7.411416   -2.657478   -1.692387
 H    5.722818   -2.512740   -1.166423
 H    6.279499   -1.648048   -2.608610
