67 
1w14_ligand_ani.xyz
 C   -0.595923   -1.269080   -2.905222
 C   -1.866558   -0.491249   -3.278088
 C   -2.877968   -0.409329   -2.156716
 C   -3.012910    0.741164   -1.374810
 C   -3.689344   -1.508056   -1.865341
 C   -3.943763    0.799857   -0.343094
 C   -4.625521   -1.453729   -0.836945
 C   -4.758232   -0.296909   -0.073175
 S    0.475773   -0.306866   -1.855940
 O   -0.164425   -0.123394   -0.557861
 O    0.917505    0.853907   -2.623737
 N    1.794012   -1.329093   -1.660322
 C    3.039749   -0.660332   -1.247425
 C    4.086834   -1.696474   -0.762090
 O    3.530334   -2.882146   -0.265736
 C    2.783640    0.395267   -0.160609
 O    2.669580    0.083543    1.028473
 N    2.725513    1.677541   -0.585810
 C    2.443356    2.775354    0.329834
 C    2.937137    4.090715   -0.250543
 C    0.926834    2.831799    0.607598
 O    0.223179    3.665200    0.031632
 N    0.486929    1.918736    1.497278
 C   -0.903711    1.623485    1.863741
 C   -0.909996    0.871794    3.200648
 C   -0.348887   -0.554480    3.189808
 C   -1.233618   -1.560751    2.443788
 N   -0.716748   -2.921756    2.545304
 C    0.310219   -3.329219    1.713132
 N    0.635201   -4.670235    1.834997
 N    0.932715   -2.584195    0.874257
 C   -1.777343    2.883143    1.963391
 O   -2.325447    3.281340    0.732342
 H   -0.836450   -2.191875   -2.367108
 H   -0.003726   -1.516103   -3.790985
 H   -1.578830    0.509270   -3.617408
 H   -2.318367   -1.002629   -4.136713
 H   -2.360247    1.595022   -1.556467
 H   -3.587499   -2.416385   -2.457996
 H   -4.002508    1.707972    0.251281
 H   -5.253873   -2.317527   -0.632077
 H   -5.491121   -0.255342    0.729337
 H    1.543068   -2.102525   -1.038080
 H    3.428687   -0.145893   -2.132186
 H    4.707294   -1.985861   -1.616148
 H    4.740206   -1.213696   -0.020964
 H    2.837918   -2.673644    0.393369
 H    2.468625    1.836254   -1.555781
 H    2.967960    2.545038    1.264087
 H    2.743229    4.909998    0.447391
 H    2.414965    4.318719   -1.184263
 H    4.012991    4.035671   -0.440131
 H    1.150359    1.183406    1.724455
 H   -1.335387    1.000405    1.067109
 H   -1.947061    0.826887    3.563269
 H   -0.356648    1.476615    3.932196
 H    0.670378   -0.572999    2.779216
 H   -0.259504   -0.899722    4.225664
 H   -2.234045   -1.561729    2.889145
 H   -1.351110   -1.274278    1.387864
 H   -1.402108   -3.640476    2.735799
 H    1.498427   -4.880930    1.348751
 H    0.635615   -5.021269    2.783251
 H    0.540325   -1.651145    0.824658
 H   -1.186733    3.690693    2.418528
 H   -2.623802    2.674201    2.630121
 H   -1.556525    3.561320    0.197726
