21 
1w1p_ligand_ani.xyz
 O    0.848230   -2.589077   -0.394483
 C    0.859617   -1.422680   -0.046910
 C   -0.360377   -0.717039    0.541472
 C   -1.692922   -1.260195    0.015995
 C   -2.622182   -0.041083    0.073538
 C   -1.707741    1.130114   -0.303068
 N   -0.400807    0.694676    0.182192
 C    0.702771    1.466967    0.029439
 O    0.654000    2.640433   -0.296006
 C    2.017409    0.743038    0.322946
 N    1.971415   -0.638192   -0.115981
 H   -0.309439   -0.826644    1.634885
 H   -1.556127   -1.596347   -1.016743
 H   -2.048745   -2.109399    0.603080
 H   -2.999665    0.098116    1.093425
 H   -3.483190   -0.127109   -0.594779
 H   -1.980245    2.077101    0.168898
 H   -1.666680    1.291855   -1.387533
 H    2.230830    0.823481    1.400262
 H    2.809939    1.269138   -0.210131
 H    2.811789   -1.101153   -0.431409
