21 
1w1p_ligand_xtb.xyz
 O    0.668940   -2.581280   -0.518932
 C    0.770564   -1.460324   -0.075427
 C   -0.386969   -0.668639    0.535069
 C   -1.772051   -1.150565    0.106521
 C   -2.609412    0.128206    0.138417
 C   -1.636207    1.195096   -0.355556
 N   -0.342364    0.712505    0.092767
 C    0.792783    1.415267    0.008372
 O    0.867423    2.567280   -0.362964
 C    2.008084    0.589815    0.451522
 N    1.919522   -0.759033   -0.056210
 H   -0.275061   -0.712974    1.630796
 H   -1.712650   -1.553986   -0.904922
 H   -2.155511   -1.928283    0.762068
 H   -2.918669    0.346679    1.161344
 H   -3.496235    0.061570   -0.486934
 H   -1.824201    2.187950    0.057244
 H   -1.642495    1.271421   -1.448358
 H    2.041026    0.590599    1.550893
 H    2.911944    1.070987    0.078895
 H    2.740092   -1.189419   -0.455275
