35 
1w1y_ligand_dft.xyz
 N    0.379402    0.712238   -0.149133
 C    0.344915   -0.692924    0.230009
 C    1.708334   -1.351030   -0.018214
 O    1.816675   -2.519353   -0.359590
 C   -0.751479   -1.427171   -0.553034
 C   -2.117903   -0.830409   -0.318922
 C   -2.696737    0.034750   -1.247102
 C   -3.932958    0.631937   -1.010799
 C   -4.054668   -0.504382    1.113606
 C   -2.822686   -1.087916    0.863073
 C   -4.614633    0.364175    0.173922
 O   -5.823240    0.910206    0.471327
 N    2.767304   -0.536773    0.177857
 C    2.679594    0.865067    0.578998
 C    1.427783    1.550593    0.053442
 O    1.385153    2.752149   -0.144973
 C    3.991213    1.453002    0.058450
 C    4.970288    0.284358    0.227877
 C    4.135188   -0.954397   -0.126784
 H   -0.502750    1.157563   -0.371939
 H    0.125732   -0.789351    1.306571
 H   -0.496268   -1.394889   -1.617413
 H   -0.717895   -2.477755   -0.253536
 H   -2.178855    0.244106   -2.180384
 H   -4.362628    1.302548   -1.751798
 H   -4.599568   -0.708699    2.029198
 H   -2.398701   -1.765805    1.600533
 H   -6.098540    1.487422   -0.250838
 H    2.646340    0.942566    1.678215
 H    4.280140    2.355028    0.599426
 H    3.873218    1.716585   -0.997578
 H    5.307122    0.224679    1.268804
 H    5.856364    0.377626   -0.404142
 H    4.404996   -1.842439    0.451292
 H    4.208135   -1.215366   -1.188720
