35 
1w1y_ligand_ani.xyz
 N    0.386839    0.724707   -0.229606
 C    0.340326   -0.662238    0.201855
 C    1.705768   -1.337783   -0.024422
 O    1.820056   -2.494722   -0.397098
 C   -0.768997   -1.421343   -0.534362
 C   -2.131354   -0.818726   -0.288403
 C   -2.812734   -0.121219   -1.285962
 C   -4.053581    0.464311   -1.045979
 C   -3.968406   -0.334710    1.228580
 C   -2.732670   -0.909326    0.971535
 C   -4.633341    0.358487    0.216321
 O   -5.842461    0.906793    0.521589
 N    2.772017   -0.547334    0.246225
 C    2.661304    0.861801    0.598265
 C    1.469093    1.536833   -0.080156
 O    1.479537    2.704725   -0.420616
 C    4.013123    1.444951    0.178479
 C    4.971831    0.255172    0.313489
 C    4.126697   -0.944430   -0.129984
 H   -0.460502    1.161290   -0.570859
 H    0.142463   -0.705174    1.287445
 H   -0.541936   -1.416173   -1.606142
 H   -0.736673   -2.467140   -0.212192
 H   -2.369078   -0.035148   -2.276807
 H   -4.565110    1.004010   -1.841157
 H   -4.433024   -0.407428    2.207294
 H   -2.218522   -1.444732    1.769157
 H   -6.192790    1.352002   -0.260272
 H    2.520076    0.968238    1.684076
 H    4.295225    2.305620    0.788562
 H    3.948313    1.775439   -0.863098
 H    5.271785    0.128924    1.360547
 H    5.880159    0.366979   -0.284759
 H    4.389972   -1.880828    0.368273
 H    4.178250   -1.112542   -1.212945
