31 
1w2g_ligand_dft.xyz
 O   -1.980228    2.795721   -0.668010
 C   -2.539974    1.922163    0.282177
 C   -2.751118    0.531664   -0.311155
 O   -1.546629    0.152854   -0.995288
 C   -2.999118   -0.551284    0.736868
 O   -3.757595   -1.566670    0.115153
 C   -1.573562   -1.002513    1.055196
 C   -0.883629   -0.886550   -0.306704
 N    0.543459   -0.578885   -0.215376
 C    1.422747   -1.651491   -0.278153
 O    1.062216   -2.804536   -0.423657
 N    2.747758   -1.291033   -0.146700
 C    3.284191   -0.019356    0.086334
 O    4.484871    0.134913    0.200229
 C    2.279421    1.040938    0.173398
 C    2.757445    2.440480    0.413453
 C    0.984238    0.708896    0.021037
 H   -1.425092    2.251368   -1.244716
 H   -1.893008    1.847787    1.173552
 H   -3.497985    2.342377    0.605171
 H   -3.552904    0.546438   -1.053600
 H   -3.517092   -0.145701    1.618008
 H   -3.850471   -2.299300    0.735888
 H   -1.104144   -0.322143    1.774392
 H   -1.513729   -2.017167    1.456656
 H   -0.957251   -1.815466   -0.872790
 H    3.409395   -2.055407   -0.196714
 H    3.289135    2.509547    1.368016
 H    3.464133    2.745317   -0.364712
 H    1.922710    3.146943    0.425330
 H    0.202871    1.458891    0.047941
