57 
1w2k_ligand_ani.xyz
 C   -5.332111   -2.112095   -0.045680
 N   -5.747643   -3.432952    0.045995
 N   -6.205492   -1.176995   -0.078481
 C   -3.847743   -1.917292   -0.037087
 C   -3.009083   -2.733152    0.722103
 C   -1.648126   -2.487779    0.792004
 C   -1.082218   -1.412769    0.097255
 N    0.278821   -1.109388    0.287312
 C    0.941226   -0.234762   -0.677344
 C    0.521376    1.233963   -0.493913
 N    0.086026    1.567104    0.751246
 C   -0.693234    2.784154    0.923622
 C   -2.141190    2.608448    0.498492
 C   -2.558221    2.977254   -0.783359
 C   -3.878883    2.800181   -1.181332
 C   -4.795722    2.211654   -0.314404
 C   -4.384115    1.814108    0.955820
 C   -3.069435    2.020617    1.362494
 O    0.600160    2.023885   -1.420764
 C    2.448820   -0.348115   -0.579560
 C    3.088528   -0.325415    0.659259
 C    4.471265   -0.373834    0.762523
 O    5.008976   -0.385104    2.016909
 C    6.030413    0.561062    2.316297
 C    5.245858   -0.497490   -0.408548
 O    6.592800   -0.593484   -0.234928
 C    7.390945   -0.774977   -1.385476
 C    3.221752   -0.438614   -1.729220
 C    4.610763   -0.521886   -1.647233
 C   -1.911628   -0.618043   -0.704474
 C   -3.271795   -0.872708   -0.761556
 H   -6.737855   -3.538383   -0.135871
 H   -5.174065   -4.107768   -0.441738
 H   -5.755538   -0.260480   -0.104713
 H   -3.439002   -3.558433    1.285108
 H   -1.016213   -3.126386    1.407227
 H    0.816280   -1.950112    0.457841
 H    0.653816   -0.483028   -1.709028
 H   -0.120159    0.779642    1.351604
 H   -0.632658    3.076343    1.977347
 H   -0.212611    3.562863    0.326364
 H   -1.835685    3.399114   -1.478154
 H   -4.192193    3.114481   -2.173448
 H   -5.830650    2.082870   -0.628228
 H   -5.089387    1.338861    1.635697
 H   -2.756568    1.707512    2.356860
 H    2.517669   -0.260475    1.581797
 H    7.011260    0.206635    1.987602
 H    5.815520    1.530238    1.849089
 H    6.020877    0.675721    3.403338
 H    8.419900   -0.856844   -1.033177
 H    7.117446   -1.692602   -1.922874
 H    7.307119    0.080881   -2.067721
 H    2.748776   -0.452566   -2.709903
 H    5.193583   -0.606042   -2.557978
 H   -1.504884    0.221827   -1.261195
 H   -3.906909   -0.235687   -1.372202
