22 
1w3j_ligand_ani.xyz
 C    2.020379   -0.138385    0.111001
 C    0.927485    0.235230   -0.896958
 C   -0.154279    1.203163   -0.380519
 C   -1.146481    0.538199    0.581014
 C   -1.603893   -0.814192    0.024041
 O    1.553489   -0.988806    1.158058
 O    0.296987   -0.963077   -1.446626
 O   -0.975776    1.657595   -1.445880
 O   -0.584264    0.359134    1.891421
 N   -0.413542   -1.614042   -0.367591
 H    2.462066    0.777160    0.526592
 H    2.802099   -0.695470   -0.414970
 H    1.402395    0.668478   -1.779061
 H    0.337062    2.047608    0.131063
 H   -2.022139    1.192012    0.646026
 H   -2.233700   -0.621844   -0.845972
 H   -2.191214   -1.335511    0.776723
 H    1.045242   -0.427961    1.778915
 H   -0.413584    1.971184   -2.166257
 H   -0.773235    1.148053    2.414359
 H   -0.672888   -2.559883   -0.724328
 H    0.337589   -1.638743    0.429151
