81 
1w51_ligand_dft.xyz
 C   -5.120121   -2.629543   -2.635446
 C   -5.014167   -1.870527   -1.314924
 C   -5.321888   -0.382213   -1.498301
 N   -5.182677    0.422065   -0.283279
 C   -6.391418    0.730741    0.484798
 C   -7.004267   -0.468189    1.212395
 C   -6.052378   -1.127180    2.207784
 C   -3.979891    0.746645    0.251686
 O   -3.835828    1.229160    1.371989
 C   -2.745709    0.543041   -0.594733
 C   -2.508007    1.319719   -1.727708
 C   -1.288593    1.233107   -2.393652
 C   -0.307280    0.362473   -1.940015
 C   -0.545309   -0.439322   -0.818280
 C   -1.759099   -0.327213   -0.141617
 C    0.455225   -1.395416   -0.262490
 O    0.284455   -1.914784    0.857652
 N    1.548912   -1.653192   -1.001167
 C    2.630959   -2.595698   -0.702319
 C    3.794559   -2.303897   -1.680732
 C    4.576978   -1.052015   -1.349020
 C    5.796000   -1.148246   -0.671995
 C    6.477421   -0.005903   -0.258575
 C    5.945654    1.254540   -0.515578
 C    4.744412    1.366784   -1.212374
 C    4.073892    0.222155   -1.631722
 C    3.114784   -2.605960    0.771525
 O    2.371235   -3.471982    1.593801
 C    3.243100   -1.191640    1.408905
 N    2.277456   -1.038198    2.535981
 C    2.243466    0.344291    3.139104
 C    1.443545    1.263505    2.256236
 C    0.064964    1.372978    2.453723
 C   -0.689028    2.172622    1.604892
 C   -0.084722    2.854114    0.551515
 C    1.290457    2.733423    0.344071
 O    1.971674    3.324688   -0.666699
 C    1.262895    4.195024   -1.529024
 C    2.056593    1.946660    1.209471
 H   -6.121450   -2.533704   -3.069711
 H   -4.921501   -3.695231   -2.491529
 H   -4.400214   -2.249332   -3.369363
 H   -5.700911   -2.299115   -0.577783
 H   -4.003638   -1.980354   -0.902428
 H   -6.353344   -0.257970   -1.843322
 H   -4.682712    0.024103   -2.288072
 H   -7.121195    1.160029   -0.211377
 H   -6.116176    1.500910    1.206897
 H   -7.896930   -0.105057    1.735171
 H   -7.361536   -1.205331    0.482094
 H   -5.692598   -0.401805    2.943519
 H   -5.174561   -1.544163    1.701605
 H   -6.549787   -1.944351    2.738846
 H   -3.270157    2.010300   -2.077773
 H   -1.101084    1.850649   -3.266317
 H    0.646194    0.351388   -2.460512
 H   -1.920593   -0.912933    0.756700
 H    1.547339   -1.301319   -1.946029
 H    2.272468   -3.614784   -0.894363
 H    3.389874   -2.253793   -2.699752
 H    4.460511   -3.172129   -1.665699
 H    6.222917   -2.128300   -0.471375
 H    7.427682   -0.102865    0.257302
 H    6.472910    2.146460   -0.192196
 H    4.315883    2.342482   -1.416652
 H    3.141295    0.335543   -2.178097
 H    4.117986   -3.038439    0.742427
 H    1.431491   -3.306115    1.390666
 H    3.027518   -0.396003    0.697748
 H    4.242646   -1.025726    1.814400
 H    1.336940   -1.260588    2.155380
 H    2.478100   -1.761980    3.231248
 H    3.279453    0.667143    3.265469
 H    1.783700    0.241234    4.124340
 H   -0.420906    0.841346    3.267410
 H   -1.765115    2.233525    1.737767
 H   -0.698379    3.459598   -0.104366
 H    0.825207    5.034337   -0.976748
 H    1.996081    4.573938   -2.240891
 H    0.471335    3.661417   -2.069467
 H    3.128971    1.892454    1.044563
