41 
1w6r_ligand_dft.xyz
 C   -0.688010    1.607421   -1.015555
 C    0.098426    2.613957   -1.395158
 C    1.149563    3.255677   -0.519482
 C    0.937819    2.902981    0.954063
 C    0.600656    1.442149    1.154028
 C   -0.624245    0.940963    0.348165
 O    1.708026    0.609374    0.698946
 C    1.869133   -1.746871    0.070350
 C    1.127182   -2.884922   -0.302353
 C   -0.249544   -2.826628   -0.421951
 C   -2.379953   -1.687307   -0.286432
 N   -3.314216   -0.798854   -0.057295
 C   -3.175962    0.618126    0.352345
 C   -1.935466    1.030686    1.132778
 C    1.150729   -0.558875    0.304324
 C   -0.207696   -0.489593    0.140121
 C   -0.962694   -1.624859   -0.199759
 C    3.965789   -2.856698    0.000362
 O    3.181938   -1.686180    0.224532
 O    2.441699    2.916563   -0.979280
 C   -4.720866   -1.172724   -0.269685
 H   -1.369503    1.161642   -1.738615
 H    0.038741    2.982518   -2.415895
 H    1.085944    4.341899   -0.632559
 H    1.837549    3.160565    1.519845
 H    0.110755    3.493889    1.366370
 H    0.457801    1.213330    2.218715
 H    1.631962   -3.826222   -0.480921
 H   -0.788253   -3.733593   -0.680767
 H   -2.774497   -2.656026   -0.584391
 H   -3.281594    1.219883   -0.556800
 H   -4.054523    0.822407    0.969969
 H   -1.859223    0.443028    2.054970
 H   -2.111772    2.071739    1.427249
 H    3.684931   -3.648426    0.701912
 H    3.856201   -3.203999   -1.031794
 H    4.995663   -2.554521    0.179934
 H    2.579426    1.980456   -0.776701
 H   -4.790338   -2.165372   -0.713412
 H   -5.248297   -1.162195    0.687580
 H   -5.183927   -0.447974   -0.944165
