8 
1w70_ligand_dft.xyz
 C    0.964428    0.152171   -0.003343
 C   -0.580307    0.013501   -0.000495
 O    1.634334   -0.999513    0.001124
 F   -1.104274    0.643305   -1.044380
 F   -0.946195   -1.288865   -0.067765
 F   -1.086548    0.524466    1.116659
 O    1.479627    1.229756   -0.001871
 H    1.016734   -1.746132   -0.011612
