8 
1w70_ligand_ani.xyz
 C    8.223747   38.719951    3.388419
 C    8.405264   39.509677    4.706123
 O    6.960200   38.423492    3.079058
 F    9.116227   40.612666    4.497975
 F    7.200596   39.871231    5.213378
 F    9.022392   38.758702    5.616331
 O    9.169898   38.406077    2.729873
 H    6.358076   38.788103    3.747143
