27 
1w7h_ligand_xtb.xyz
 N   -1.910680    2.193773   -0.381052
 C   -2.471282    0.959065   -0.209036
 N   -3.788836    0.872803   -0.197761
 C   -4.350846   -0.307860    0.040743
 C   -3.627450   -1.455911    0.268456
 C   -2.232817   -1.384894    0.245029
 C   -1.632934   -0.168043    0.005452
 O   -0.289046    0.079532   -0.064453
 C    0.600109   -0.993763    0.161059
 C    2.011664   -0.474459    0.089277
 C    2.324431    0.767024    0.627360
 C    3.620893    1.245761    0.570853
 C    4.618314    0.484476   -0.014459
 C    4.313018   -0.756260   -0.546958
 C    3.014323   -1.231912   -0.500045
 H   -2.524851    2.903852   -0.742344
 H   -0.949894    2.211669   -0.678879
 H   -5.432099   -0.309043    0.039063
 H   -4.119202   -2.396819    0.456832
 H   -1.649318   -2.277631    0.412418
 H    0.447964   -1.782501   -0.589478
 H    0.418931   -1.427092    1.158385
 H    1.542717    1.355892    1.082739
 H    3.853815    2.214640    0.987510
 H    5.630806    0.857607   -0.057123
 H    5.087132   -1.353992   -1.005350
 H    2.778445   -2.198218   -0.922853
