70 
1w7x_ligand_dft.xyz
 O   -1.098283   -1.630419    1.910754
 C   -1.019456   -0.974216    0.885322
 N   -1.462324   -1.388376   -0.328017
 C   -2.335060   -2.541418   -0.431020
 C   -3.791576   -2.170261   -0.168054
 C   -4.558210   -1.519298   -1.136234
 C   -5.868402   -1.144436   -0.858800
 C   -6.421947   -1.414568    0.390658
 C   -5.652818   -2.041286    1.367683
 C   -4.341755   -2.416839    1.089946
 C   -2.181369   -3.233287   -1.774951
 O   -2.362011   -4.407809   -1.963605
 O   -1.858881   -2.373795   -2.765642
 C   -0.361175    0.421211    0.880694
 N   -0.938828    1.266760   -0.147397
 C   -2.259188    1.719262   -0.046468
 C   -2.721210    2.669123   -0.969351
 C   -4.044579    3.076301   -0.960641
 C   -3.157891    1.208292    0.898242
 C   -4.485229    1.613279    0.885968
 C   -4.954815    2.541674   -0.041844
 C   -6.397004    2.920069   -0.064136
 N   -7.378865    2.142924    0.204578
 N   -6.652220    4.221693   -0.467109
 C    1.130631    0.261533    0.664518
 C    1.984554    0.216520    1.764279
 C    3.351996    0.029156    1.599483
 O    4.151178   -0.010077    2.710965
 C    4.701712   -1.294893    2.975395
 C    3.889677   -0.088274    0.309016
 C    3.032779   -0.065706   -0.788009
 C    1.663648    0.092783   -0.614838
 O    5.223954   -0.260805    0.080097
 C    6.094210    0.754560    0.603276
 C    7.355410    0.748628   -0.215029
 C    8.333026   -0.222512    0.006873
 C    9.488195   -0.252145   -0.766855
 C    9.679627    0.696239   -1.769232
 C    8.710747    1.669104   -1.996507
 C    7.553252    1.690595   -1.223879
 H   -1.502114   -0.688007   -1.057658
 H   -2.010688   -3.258360    0.324873
 H   -4.131071   -1.300289   -2.111011
 H   -6.457996   -0.635848   -1.615609
 H   -7.451913   -1.139219    0.600513
 H   -6.076529   -2.244775    2.346525
 H   -3.734383   -2.894713    1.852824
 H   -1.815216   -2.900479   -3.580190
 H   -0.534133    0.818980    1.890318
 H   -0.292484    1.954217   -0.511005
 H   -2.035676    3.066883   -1.713869
 H   -4.390431    3.793298   -1.699286
 H   -2.842192    0.482950    1.639384
 H   -5.166251    1.197671    1.622624
 H   -7.032029    1.197708    0.362684
 H   -6.003186    4.922019   -0.136380
 H   -7.623765    4.479842   -0.349784
 H    1.597912    0.311199    2.774335
 H    5.362431   -1.621361    2.163684
 H    5.272016   -1.198125    3.900704
 H    3.904608   -2.035371    3.112167
 H    3.467326   -0.177014   -1.776006
 H    1.008281    0.089870   -1.480746
 H    6.305052    0.554443    1.658886
 H    5.592403    1.727170    0.539253
 H    8.183937   -0.961428    0.790420
 H   10.242274   -1.012317   -0.585693
 H   10.584425    0.677695   -2.369659
 H    8.855770    2.412023   -2.775248
 H    6.794946    2.448441   -1.404997
