70 
1w7x_ligand_ani.xyz
 O   -0.429683   -2.018812    1.357893
 C   -0.897261   -1.113371    0.680585
 N   -2.030730   -1.232435   -0.055345
 C   -2.938159   -2.323698    0.243054
 C   -3.805677   -2.044280    1.474508
 C   -4.949178   -1.250657    1.396445
 C   -5.681906   -0.963183    2.544566
 C   -5.296116   -1.487787    3.776378
 C   -4.158317   -2.286947    3.858463
 C   -3.407994   -2.544357    2.716960
 C   -3.796969   -2.677058   -0.956505
 O   -4.317153   -3.749390   -1.127661
 O   -3.955273   -1.645556   -1.810934
 C   -0.186647    0.250335    0.611211
 N   -1.113134    1.338394    0.322935
 C   -2.020661    1.744376    1.316788
 C   -2.704484    2.956769    1.163298
 C   -3.690446    3.330244    2.060147
 C   -2.323706    0.940603    2.423721
 C   -3.313472    1.326786    3.312593
 C   -4.027536    2.512848    3.138612
 C   -5.153643    2.860554    4.062025
 N   -5.970832    2.027621    4.588324
 N   -5.319416    4.218728    4.293635
 C    0.940531    0.188383   -0.404148
 C    2.150225   -0.389092   -0.017652
 C    3.217691   -0.478559   -0.899382
 O    4.399590   -1.009529   -0.450462
 C    4.800888   -2.209027   -1.103530
 C    3.075533    0.011238   -2.207564
 C    1.862403    0.562864   -2.606481
 C    0.802222    0.651078   -1.710851
 O    4.106865   -0.076385   -3.108384
 C    5.218566    0.768200   -2.806451
 C    6.374898    0.398616   -3.701690
 C    6.163942   -0.371122   -4.843791
 C    7.231066   -0.693837   -5.677294
 C    8.515536   -0.248818   -5.377144
 C    8.729856    0.523520   -4.238920
 C    7.663181    0.845955   -3.405881
 H   -2.412771   -0.385253   -0.453419
 H   -2.329719   -3.205586    0.461929
 H   -5.267907   -0.842206    0.439384
 H   -6.561935   -0.327108    2.474800
 H   -5.886366   -1.294458    4.671067
 H   -3.851669   -2.701577    4.815230
 H   -2.495423   -3.130720    2.791762
 H   -4.536635   -1.975551   -2.515919
 H    0.268694    0.363713    1.608090
 H   -0.630439    2.133163   -0.077810
 H   -2.472912    3.605986    0.320718
 H   -4.228798    4.263668    1.912448
 H   -1.817125   -0.008354    2.577815
 H   -3.550377    0.681470    4.154859
 H   -5.752833    1.072231    4.300796
 H   -4.467634    4.760167    4.353625
 H   -5.968962    4.403865    5.047669
 H    2.279652   -0.797261    0.980484
 H    4.951334   -2.042549   -2.174890
 H    5.744127   -2.506324   -0.640446
 H    4.055114   -2.999935   -0.954286
 H    1.767452    0.930610   -3.624224
 H   -0.139038    1.079008   -2.046116
 H    5.498007    0.655287   -1.752545
 H    4.910585    1.812495   -2.959204
 H    5.160385   -0.716412   -5.073021
 H    7.057175   -1.296913   -6.566012
 H    9.347122   -0.502628   -6.029707
 H    9.730976    0.875033   -3.999571
 H    7.835319    1.453229   -2.518477
