25 
1w8l_ligand_dft.xyz
 C    2.703891   -1.459204   -0.098663
 C    1.511060   -0.533222   -0.321461
 C    0.420308   -0.777339    0.731543
 C    1.918854    0.946347   -0.298225
 C    0.706497    1.874527   -0.422524
 N   -0.707116    0.121304    0.547976
 C   -0.350890    1.532501    0.629238
 C   -2.153122   -1.707133   -0.273221
 C   -1.889927   -0.225534   -0.056355
 O   -2.714942    0.611252   -0.392387
 H    3.155976   -1.284533    0.885570
 H    2.408848   -2.513463   -0.150280
 H    3.477845   -1.289776   -0.854687
 H    1.067438   -0.751400   -1.304224
 H    0.842030   -0.601645    1.732757
 H    0.085653   -1.815695    0.707488
 H    2.641864    1.147486   -1.097671
 H    2.435513    1.150247    0.652225
 H    0.253418    1.768124   -1.416165
 H    1.012261    2.921233   -0.314031
 H    0.041390    1.730174    1.636445
 H   -1.262197    2.112206    0.488095
 H   -1.432180   -2.145761   -0.971720
 H   -2.105354   -2.271607    0.663548
 H   -3.153181   -1.800382   -0.696073
