28 
1w8m_ligand_dft.xyz
 C    2.188302    1.286590   -0.485430
 C    3.266653    0.727866    0.446084
 C    3.608586   -0.721676    0.083559
 C    2.346882   -1.589888    0.026793
 C    1.301447   -0.961026   -0.895181
 N    1.022081    0.409005   -0.478780
 C   -0.119301    0.845204    0.108398
 O   -0.304628    1.980652    0.515760
 C   -1.227190   -0.190933    0.338561
 O   -1.072529   -1.221567    0.954155
 O   -2.386262    0.244957   -0.138076
 C   -3.531640   -0.578883    0.144443
 C   -4.733869    0.091690   -0.483587
 H    2.567915    1.346233   -1.514564
 H    1.860548    2.279664   -0.178719
 H    2.894298    0.776120    1.476922
 H    4.159668    1.360520    0.391443
 H    4.322926   -1.135359    0.803396
 H    4.101758   -0.740114   -0.899009
 H    1.902968   -1.687305    1.024521
 H    2.587761   -2.598296   -0.327846
 H    0.383881   -1.546896   -0.900687
 H    1.681094   -0.922547   -1.925799
 H   -3.633439   -0.673482    1.229420
 H   -3.356858   -1.579022   -0.264069
 H   -4.879191    1.092250   -0.067483
 H   -4.607907    0.181002   -1.566267
 H   -5.631857   -0.501793   -0.286351
