81 
1w96_ligand_ani.xyz
 C    0.647923   -2.267959   -0.686577
 C   -0.462325   -3.123948   -0.114349
 C   -1.407104   -2.197838    0.673816
 C   -2.644019   -2.970910    1.208406
 C   -3.704091   -1.983106    1.726509
 C   -3.977044   -0.836743    0.740401
 C   -2.635252   -0.182113    0.369299
 C   -2.749229    0.996311   -0.617049
 C   -1.378322    1.615626   -0.803175
 C   -1.026553    2.870361   -0.525147
 C    0.279126    3.503648   -0.916896
 C    1.108608    3.918509    0.321479
 C    1.811914    2.741790    0.994477
 C    3.020484    2.215381    0.211990
 C    3.772132    1.063817    0.894433
 C    2.958349   -0.217305    1.108101
 C    2.483306   -0.891209   -0.176459
 C    0.054803   -4.279923    0.745618
 C   -3.871833   -4.910814    0.661285
 C   -4.751996   -1.317063   -0.486841
 C   -3.805692    2.014557   -0.188364
 C    1.009576    5.044292   -2.573291
 C   -0.037737    5.873249    1.027307
 C    3.605820   -1.487201   -1.007907
 C    4.004488   -0.872479   -2.193757
 C    5.063641   -1.381703   -2.940347
 C    5.734161   -2.519365   -2.501091
 C    5.339324   -3.143006   -1.319762
 C    4.281246   -2.629292   -0.577608
 O    0.737517   -1.938072   -1.842372
 O   -0.710679   -1.673216    1.776100
 O   -3.139577   -3.804941    0.189033
 O   -3.176990   -1.490831    2.962911
 O   -1.785868   -1.164899   -0.219822
 O   -0.027658    4.636589   -1.716518
 O    0.298893    4.531916    1.303153
 O    1.552752   -1.909173    0.245755
 H   -1.012027   -3.518086   -0.970906
 H   -2.316414   -3.583759    2.061644
 H   -4.640676   -2.526636    1.923078
 H   -4.580145   -0.090743    1.282953
 H   -2.157713    0.199777    1.282138
 H   -3.028294    0.567281   -1.587735
 H   -0.642385    0.920760   -1.218272
 H   -1.696324    3.542612    0.005111
 H    0.859762    2.791816   -1.528101
 H    1.869036    4.643483   -0.009900
 H    2.132576    3.085800    1.983927
 H    1.070899    1.948158    1.165169
 H    2.715666    1.905780   -0.798406
 H    3.728260    3.042232    0.063031
 H    4.665594    0.820661    0.303137
 H    4.138490    1.409094    1.870164
 H    3.562633   -0.943961    1.666746
 H    2.068666   -0.026063    1.719890
 H    1.918275   -0.190942   -0.801222
 H   -0.759300   -4.982671    0.962860
 H    0.462792   -3.907759    1.687874
 H    0.832098   -4.835502    0.213645
 H   -4.105549   -5.533648   -0.205134
 H   -3.282207   -5.502420    1.378124
 H   -4.812100   -4.612663    1.147129
 H   -4.097009   -1.901957   -1.136172
 H   -5.600745   -1.943212   -0.192672
 H   -5.145165   -0.474642   -1.066162
 H   -3.801900    2.875806   -0.864251
 H   -3.614544    2.380535    0.828929
 H   -4.812301    1.588218   -0.209154
 H    1.301474    4.241652   -3.268901
 H    0.630094    5.887685   -3.156003
 H    1.906229    5.371865   -2.025391
 H   -0.758618    5.957817    0.205365
 H   -0.477744    6.283070    1.941089
 H    0.856027    6.463331    0.773506
 H    3.475597    0.015417   -2.539573
 H    5.364028   -0.892868   -3.863656
 H    6.562495   -2.922222   -3.079169
 H    5.858939   -4.032870   -0.972582
 H    3.970377   -3.120424    0.342545
 H   -1.375672   -1.495481    2.469774
 H   -3.705865   -0.736657    3.256592
