50 
1wbn_ligand_dft.xyz
 C    3.819725   15.279382   41.122335
 C    5.336926   15.055433   41.252186
 C    5.879628   15.898022   42.412235
 C    5.610359   13.566063   41.527683
 C    6.006237   15.443242   39.951580
 C    5.753088   14.888277   38.669375
 C    6.602288   15.567343   37.829675
 N    6.848074   15.517838   36.452304
 C    6.458154   14.439989   35.665992
 O    5.919791   13.447569   36.111013
 N    6.765521   14.640929   34.332052
 C    6.486845   13.780347   33.255718
 C    7.070778   14.079928   32.022481
 C    6.818527   13.289041   30.911773
 C    5.979411   12.188372   31.024149
Cl    5.693529   11.207022   29.605692
 C    5.385415   11.868275   32.246526
 C    4.464863   10.687322   32.393607
 O    3.227935   11.024140   31.784594
 C    2.284503   10.056222   31.688637
 C    1.123950   10.385589   30.985745
 C    0.128076    9.432056   30.867438
 C    0.321445    8.180386   31.452777
 N    1.422311    7.857021   32.125190
 C    2.384124    8.777055   32.241731
 C    5.642751   12.671948   33.355234
 N    7.285756   16.452579   38.597972
 N    6.932242   16.390558   39.900003
 H    3.395255   14.680196   40.309298
 H    3.597363   16.332470   40.919126
 H    3.312478   14.994553   42.051572
 H    6.958120   15.758464   42.531506
 H    5.385421   15.604194   43.345359
 H    5.700008   16.964183   42.244811
 H    6.685248   13.378894   41.622588
 H    5.227223   12.933078   40.719893
 H    5.123784   13.256577   42.460120
 H    5.065220   14.107575   38.391587
 H    6.963585   16.411137   35.995107
 H    7.400627   15.394606   34.115519
 H    7.730972   14.938218   31.922725
 H    7.276188   13.525375   29.957704
 H    4.314861   10.460066   33.456454
 H    4.893208    9.802157   31.906074
 H    1.033503   11.375124   30.549682
 H   -0.787573    9.650663   30.327463
 H   -0.441121    7.408955   31.377181
 H    3.262703    8.470513   32.802443
 H    5.191588   12.430327   34.307915
 H    8.050089   17.048730   38.326177
