50 
1wbn_ligand_ani.xyz
 C    4.516841   13.906799   41.214458
 C    5.566899   15.013738   41.328873
 C    4.988552   16.177283   42.145313
 C    6.813103   14.458632   42.043033
 C    5.956605   15.487916   39.944994
 C    5.770810   14.841552   38.694522
 C    6.397376   15.659927   37.783187
 N    6.598127   15.589466   36.398791
 C    6.161116   14.522461   35.626541
 O    5.460088   13.635810   36.073302
 N    6.608207   14.598606   34.323084
 C    6.454491   13.614121   33.324871
 C    7.330571   13.645011   32.236570
 C    7.228813   12.697962   31.229184
 C    6.237936   11.723352   31.297184
Cl    6.160435   10.541262   30.021158
 C    5.338311   11.689517   32.363821
 C    4.229811   10.667837   32.441402
 O    3.219502   11.026430   31.501704
 C    2.118176   10.236399   31.421857
 C    1.168087   10.575131   30.455986
 C    0.032842    9.791637   30.347404
 C   -0.120967    8.701060   31.201304
 N    0.778449    8.371575   32.123481
 C    1.874606    9.122817   32.230218
 C    5.461012   12.639570   33.376515
 N    6.892278   16.706013   38.486421
 N    6.628232   16.621088   39.809025
 H    4.913822   13.049084   40.663208
 H    3.627881   14.271494   40.690256
 H    4.214714   13.560639   42.209175
 H    5.728177   16.970880   42.283360
 H    4.680207   15.816910   43.133347
 H    4.111559   16.603171   41.645670
 H    7.585825   15.229483   42.129880
 H    7.232962   13.612764   41.488431
 H    6.549378   14.115599   43.050246
 H    5.259744   13.923941   38.456192
 H    7.180016   16.302180   35.982457
 H    7.247991   15.339818   34.082404
 H    8.106227   14.404055   32.180431
 H    7.915284   12.709169   30.388293
 H    3.805239   10.666557   33.453217
 H    4.610719    9.665657   32.212217
 H    1.338017   11.436228   29.815771
 H   -0.729450   10.020542   29.607915
 H   -1.003543    8.067782   31.139657
 H    2.583498    8.816021   32.996861
 H    4.784184   12.630312   34.221806
 H    7.378224   17.522727   38.150993
