21 
1wdn_ligand_xtb.xyz
 N    0.799489    1.676581    0.378377
 C    1.149748    0.322773    0.863096
 C    1.743105   -0.504667   -0.289865
 O    1.648634   -1.689398   -0.382849
 C   -0.061628   -0.351281    1.521074
 C   -1.122979   -0.933413    0.577153
 C   -1.914498    0.054584   -0.245844
 O   -1.518743    1.197889   -0.516088
 N   -3.081461   -0.374303   -0.703125
 O    2.394777    0.279139   -1.146208
 H    1.461631    1.984447   -0.340206
 H    0.772536    2.362127    1.134274
 H   -0.245697    1.573759   -0.066743
 H    1.952820    0.395059    1.608417
 H    0.310801   -1.181797    2.121361
 H   -0.526493    0.365088    2.201305
 H   -0.645369   -1.634751   -0.112533
 H   -1.819917   -1.514768    1.182334
 H   -3.636759    0.237875   -1.283808
 H   -3.433260   -1.297657   -0.512509
 H    2.823683   -0.234345   -1.851172
