45 
1wdr_ligand_ani.xyz
 C   -1.023872    0.972936    0.328192
 C   -2.261765    0.802355    1.214973
 C   -3.222385   -0.199009    0.594248
 C   -3.524166    0.172277   -0.850517
 C   -2.199093    0.278369   -1.594695
 C   -2.280766    0.642577   -3.064572
 O   -0.241713   -0.198681    0.343905
 O   -1.933723    0.347605    2.509465
 O   -4.445226   -0.227335    1.299512
 O   -4.313895   -0.819460   -1.467172
 O   -1.391940    1.295724   -0.979739
 O   -1.032084    0.437616   -3.694855
 C    3.793855   -0.943830    0.893277
 C    3.133943    0.005687    1.889193
 C    1.627635   -0.154050    1.841200
 C    1.157697    0.025764    0.405214
 C    1.878298   -0.963401   -0.512685
 C    1.518775   -0.764985   -1.980630
 O    5.159578   -0.652817    0.884804
 O    3.554813   -0.253097    3.212408
 O    0.970947    0.806555    2.655428
 O    3.288200   -0.753355   -0.414427
 O    1.694533    0.577623   -2.390008
 H   -0.428316    1.813880    0.706030
 H   -2.778551    1.776462    1.274165
 H   -2.742591   -1.191117    0.606694
 H   -4.026676    1.155218   -0.870461
 H   -1.689054   -0.694447   -1.516846
 H   -2.617414    1.687094   -3.159684
 H   -3.007850   -0.000728   -3.569507
 H   -0.999674    0.561948    2.682040
 H   -4.224234   -0.439676    2.217561
 H   -5.088320   -0.941907   -0.900358
 H   -0.342511    0.865432   -3.156237
 H    3.611759   -1.993127    1.198431
 H    3.385660    1.035085    1.586081
 H    1.358261   -1.167444    2.180696
 H    1.400466    1.044049    0.069909
 H    1.632079   -1.994566   -0.212901
 H    2.123188   -1.443706   -2.597220
 H    0.468194   -1.012749   -2.148902
 H    5.493434   -0.934878    0.023675
 H    4.515287   -0.144070    3.226225
 H    1.417729    0.795090    3.514402
 H    2.631687    0.788488   -2.276308
