27 
1wht_ligand_xtb.xyz
 C    2.031532    1.596060    0.368001
 C    0.945153    0.889191   -0.402348
 C    0.800989   -0.555531    0.066204
 C    2.082898   -1.308701   -0.226993
 C   -0.362557   -1.273776   -0.646256
 C   -1.676523   -0.627060   -0.309943
 C   -2.259032   -0.837547    0.934181
 C   -2.314813    0.209870   -1.215645
 C   -3.453550   -0.224636    1.265692
 C   -3.511376    0.823385   -0.886318
 C   -4.082429    0.609184    0.355948
 O    2.295481    2.803172   -0.143135
 O    2.603375    1.159686    1.330042
 O    2.857357   -1.045365   -1.106679
 O    2.241948   -2.352361    0.590255
 H    1.210645    0.922870   -1.460651
 H    0.009130    1.434540   -0.267321
 H    0.637358   -0.584636    1.146309
 H   -0.371987   -2.317323   -0.324750
 H   -0.190685   -1.243907   -1.723882
 H   -1.773194   -1.490598    1.644867
 H   -1.875083    0.379055   -2.188235
 H   -3.896271   -0.398455    2.235432
 H   -3.997832    1.470284   -1.601689
 H   -5.015464    1.087886    0.613992
 H    3.006766    3.234579    0.356257
 H    3.069578   -2.817981    0.390680
