34 
1wm1_ligand_dft.xyz
 N    3.685906    0.696756   -0.708273
 C    2.492102   -0.231221   -0.686068
 C    1.312781    0.652896   -0.242991
 O    1.509762    1.798712    0.110749
 C    2.866826   -1.324475    0.336127
 C    3.898123   -0.643928    1.240905
 C    4.726796    0.173921    0.259637
 C    0.003969    0.019441   -0.290443
 N   -0.226828   -1.185919   -0.712931
 N   -1.576395   -1.374237   -0.614739
 C   -2.076552   -0.263948   -0.137235
 O   -1.113096    0.660537    0.088686
 C   -3.501502    0.075294    0.170571
 C   -3.894195    1.327030   -0.639044
 C   -3.619765    0.364085    1.680645
 C   -4.387620   -1.114804   -0.218647
 H    4.061243    0.831881   -1.648413
 H    3.309766    1.609972   -0.380642
 H    2.307422   -0.632447   -1.683491
 H    3.308767   -2.174346   -0.190810
 H    1.988685   -1.690712    0.868731
 H    4.516760   -1.359020    1.785402
 H    3.414049    0.011053    1.972823
 H    5.264978    1.019391    0.688336
 H    5.415972   -0.451071   -0.311437
 H   -3.795805    1.150862   -1.714921
 H   -3.282944    2.192773   -0.366441
 H   -4.940162    1.570265   -0.430804
 H   -4.659681    0.610980    1.913773
 H   -2.994069    1.210410    1.980436
 H   -3.338512   -0.511285    2.274930
 H   -5.429785   -0.870336    0.006389
 H   -4.308365   -1.338165   -1.286136
 H   -4.116207   -2.016149    0.337668
