27 
1ws4_ligand_ani.xyz
 C    1.260492    0.346525   -0.548140
 C    0.616497    1.690502   -0.212298
 C   -0.627206    1.476891    0.642582
 C   -1.573906    0.487629   -0.015742
 C   -0.811773   -0.801815   -0.290323
 C   -1.605910   -1.862733   -1.032972
 C    2.465115   -1.406110    0.462426
 O    1.804207   -0.164845    0.640607
 O    1.524379    2.551359    0.444357
 O   -1.319686    2.693675    0.825016
 O   -2.663508    0.193862    0.828261
 O    0.322838   -0.520931   -1.130396
 O   -0.800081   -2.997559   -1.260984
 H    2.072872    0.475791   -1.278543
 H    0.320572    2.191720   -1.140969
 H   -0.318684    1.058441    1.617118
 H   -1.914678    0.908347   -0.978464
 H   -0.469871   -1.224217    0.664710
 H   -2.464186   -2.176737   -0.433174
 H   -1.985632   -1.440039   -1.978201
 H    3.274258   -1.320569   -0.277342
 H    2.892568   -1.682047    1.428425
 H    1.767763   -2.188806    0.135632
 H    1.977991    1.998663    1.098754
 H   -0.660891    3.331945    1.135136
 H   -3.063325    1.042085    1.066211
 H   -0.020014   -2.661125   -1.726088
