27 
1ws4_ligand_xtb.xyz
 C   -0.429112    1.256022   -0.588086
 C   -1.563557    0.222995   -0.706831
 C   -1.277371   -0.942443    0.249583
 C    0.114805   -1.516107   -0.036962
 C    1.145963   -0.390809    0.077488
 C    2.551962   -0.861982   -0.302515
 C    0.285391    2.952577    0.893727
 O   -0.561474    1.839559    0.679246
 O   -2.813354    0.799329   -0.437515
 O   -2.226865   -1.971711    0.096032
 O    0.444249   -2.528151    0.874010
 O    0.824002    0.682378   -0.807771
 O    3.493024    0.168520   -0.179850
 H   -0.525025    2.024966   -1.373497
 H   -1.607007   -0.155461   -1.733579
 H   -1.300581   -0.563375    1.285284
 H    0.119710   -1.909570   -1.067519
 H    1.153235   -0.026443    1.113801
 H    2.854025   -1.659705    0.376436
 H    2.526868   -1.247278   -1.331072
 H    0.070143    3.744277    0.168248
 H    0.072266    3.302601    1.900944
 H    1.337709    2.668735    0.815047
 H   -2.715631    1.341853    0.357427
 H   -3.087204   -1.554204   -0.039623
 H   -0.321757   -3.114321    0.931715
 H    3.178107    0.907021   -0.715251
