27 
1ws5_ligand_dft.xyz
 C   -1.545084   -0.524121    0.416631
 C   -1.495658    0.996553    0.263286
 C   -0.301321    1.393467   -0.597212
 C    0.975358    0.757509   -0.068172
 C    0.797300   -0.760861    0.039326
 C    1.967540   -1.440377    0.736778
 C   -2.152272   -2.430470   -0.817822
 O   -1.940698   -1.035199   -0.821785
 O   -1.386195    1.561163    1.548658
 O   -0.204396    2.805690   -0.550540
 O    2.001958    1.135051   -0.961138
 O   -0.324253   -1.069326    0.853131
 O    3.150169   -1.162602   -0.002976
 H   -2.257993   -0.799019    1.205059
 H   -2.423445    1.316372   -0.231372
 H   -0.460856    1.045403   -1.626906
 H    1.161597    1.151313    0.943580
 H    0.676404   -1.176699   -0.971200
 H    2.035539   -1.046614    1.760405
 H    1.778200   -2.520239    0.793040
 H   -2.893348   -2.715383   -0.057282
 H   -1.223060   -2.979202   -0.624330
 H   -2.532220   -2.692964   -1.806645
 H   -1.067465    2.463651    1.398481
 H    0.673559    3.023844   -0.893448
 H    2.778637    0.597166   -0.740176
 H    3.906595   -1.496048    0.491116
