32 
1wvj_ligand_xtb.xyz
 O    3.781737   -1.731976   -0.385297
 C    3.594837   -0.587803   -0.108469
 O    4.512867    0.377164   -0.189948
 C    2.240013   -0.048760    0.371640
 N    2.302508    1.397013    0.665702
 C    1.164990   -0.337772   -0.696088
 C   -0.195344   -0.657857   -0.112736
 C   -1.215219    0.386602   -0.106356
 C   -0.440532   -1.888029    0.346764
 C   -1.758007   -2.362638    0.861931
 C   -2.828649   -2.270307   -0.238203
 C   -3.505464   -0.904393   -0.266892
 C   -2.578825    0.250751   -0.175751
 O   -3.183021    1.458819   -0.158518
 N   -2.187828    2.390490   -0.064149
 C   -0.973361    1.812623   -0.014941
 O    0.074023    2.475601    0.119042
 H    5.365014    0.028291   -0.499653
 H    1.981137   -0.601169    1.280663
 H    1.286278    1.871630    0.441192
 H    2.991549    1.842415    0.051638
 H    2.573689    1.591827    1.629652
 H    1.104660    0.504119   -1.386206
 H    1.490565   -1.210998   -1.264116
 H    0.353345   -2.619263    0.295831
 H   -1.661997   -3.394488    1.194336
 H   -2.074767   -1.760112    1.716493
 H   -2.366127   -2.481138   -1.202353
 H   -3.597355   -3.023222   -0.067936
 H   -4.094260   -0.798562   -1.182410
 H   -4.212819   -0.816095    0.563384
 H   -2.453163    3.362878   -0.029007
