32 
1wvj_ligand_ani.xyz
 O    3.888515   -0.997961   -1.887287
 C    3.691520   -0.588103   -0.773195
 O    4.685785   -0.169775    0.045687
 C    2.347096   -0.508703   -0.063224
 N    2.444733    0.486250    1.048827
 C    1.199091   -0.195149   -1.028438
 C   -0.168677   -0.331909   -0.365987
 C   -0.908073    0.889572   -0.075847
 C   -0.590903   -1.567656   -0.045807
 C   -1.981944   -1.951249    0.383268
 C   -3.097009   -1.236138   -0.393441
 C   -3.419190    0.156101    0.144039
 C   -2.247668    1.075473    0.140983
 O   -2.552210    2.369250    0.412305
 N   -1.369325    3.101809    0.236758
 C   -0.300175    2.221275    0.101289
 O    0.867540    2.597472    0.140773
 H    5.513911   -0.278261   -0.449605
 H    2.197402   -1.498853    0.373059
 H    2.075026    1.396130    0.700600
 H    3.439793    0.590211    1.305831
 H    1.905037    0.174197    1.869285
 H    1.316360    0.814611   -1.419824
 H    1.277104   -0.890401   -1.868667
 H    0.137082   -2.376879   -0.117688
 H   -2.086355   -3.035267    0.255387
 H   -2.105348   -1.757000    1.457644
 H   -2.808895   -1.171368   -1.449671
 H   -4.008671   -1.842919   -0.353920
 H   -4.226203    0.615399   -0.439091
 H   -3.798311    0.082546    1.173801
 H   -1.317236    3.827002    0.942356
