36 
1x38_ligand_xtb.xyz
 C   -2.889692   -0.022193   -0.091388
 C   -3.559532    1.140898    0.286867
 C   -4.939821    1.185815    0.291570
 C   -5.674563    0.071602   -0.080269
 C   -5.018212   -1.088411   -0.457912
 C   -3.637347   -1.138211   -0.464824
 C    0.549255    0.687193    0.211396
 C    1.717035    1.568834    0.478459
 C    2.865225    1.096544   -0.420595
 C    3.137364   -0.387849   -0.146260
 C    1.929748   -1.270323   -0.500615
 C    2.002432   -2.579355    0.297861
 O    1.425346    2.919858    0.205474
 O    4.056700    1.798798   -0.161368
 O    4.225998   -0.845764   -0.906418
 N    0.691064   -0.581410   -0.244579
 O    1.871212   -2.270329    1.665792
 N   -0.703283    1.039716    0.309387
 C   -1.437529   -0.049023   -0.084207
 C   -0.574669   -1.061535   -0.433366
 H   -2.974371    1.999525    0.576238
 H   -5.447844    2.092470    0.587174
 H   -6.754252    0.105719   -0.075249
 H   -5.587721   -1.959979   -0.747645
 H   -3.135733   -2.047632   -0.759332
 H    2.034461    1.471333    1.532674
 H    2.571878    1.235344   -1.474685
 H    3.353640   -0.491859    0.928650
 H    1.998016   -1.514676   -1.569656
 H    2.971656   -3.046916    0.083056
 H    1.200709   -3.257282   -0.024940
 H    0.469338    3.026861    0.296749
 H    3.825997    2.733533   -0.097109
 H    4.913576   -0.170237   -0.836942
 H    1.947524   -3.079318    2.181247
 H   -0.753537   -2.049437   -0.802027
