41 
1x39_ligand_ani.xyz
 O   -2.218931    3.396929    1.682380
 C   -2.736223    3.279281    0.373327
 C   -2.890475    1.797179    0.042209
 C   -3.869442    1.134514    1.015785
 O   -5.161282    1.583462    0.666029
 C   -3.775538   -0.380627    0.942050
 O   -4.767860   -0.915083    1.793384
 C   -2.392080   -0.840033    1.374443
 O   -2.329364   -2.238749    1.222781
 N   -1.598241    1.104565    0.049930
 C   -0.443319    1.471778   -0.617063
 C    0.437303    0.442274   -0.439294
 N   -0.146185   -0.562135    0.299360
 C   -1.355198   -0.128938    0.570189
 C    1.859966    0.326608   -0.886681
 N    2.291425   -1.036786   -0.767848
 C    3.592155   -1.431979   -0.992065
 C    4.546914   -0.564448   -1.543986
 C    5.843372   -1.008128   -1.781202
 C    6.219136   -2.312199   -1.480122
 C    5.273571   -3.175609   -0.932899
 C    3.976827   -2.747690   -0.688782
 H   -2.248702    4.325626    1.938973
 H   -2.070774    3.754330   -0.363718
 H   -3.726595    3.747645    0.285854
 H   -3.325495    1.713764   -0.960982
 H   -3.612533    1.442393    2.041976
 H   -5.778902    1.090876    1.224583
 H   -3.941872   -0.703517   -0.098859
 H   -4.659319   -1.875956    1.773208
 H   -2.263923   -0.564484    2.438034
 H   -1.396742   -2.465331    1.089003
 H   -0.374986    2.409225   -1.151124
 H    2.492285    1.005640   -0.284317
 H    1.962127    0.673335   -1.926347
 H    1.715552   -1.604957   -0.162900
 H    4.279239    0.460021   -1.788083
 H    6.566500   -0.316980   -2.208811
 H    7.233415   -2.652026   -1.668510
 H    5.547372   -4.199395   -0.690178
 H    3.246621   -3.434294   -0.264823
