28 
1x76_ligand_dft.xyz
 C   -4.728318    0.038128    0.000002
 C   -4.188906   -1.250765    0.000009
 C   -2.816083   -1.421242   -0.000050
 C   -1.950563   -0.318662   -0.000043
 C   -2.503097    0.965301   -0.000059
 C   -3.879524    1.145164   -0.000047
 O   -6.079949    0.146752    0.000028
 C   -0.504284   -0.507864   -0.000022
 C    0.286527   -1.614599   -0.000000
 C    1.646638   -1.147184   -0.000008
 C    1.546196    0.249712   -0.000049
 O    0.250159    0.638632   -0.000058
 C    2.905669   -1.746925    0.000034
 C    4.031510   -0.926680    0.000026
 C    3.916157    0.469760    0.000003
 C    2.658326    1.082530   -0.000023
 O    5.243991   -1.544410    0.000015
 C    2.527651    2.508556   -0.000043
 N    2.429145    3.663349    0.000083
 H   -4.861255   -2.101711    0.000064
 H   -2.411540   -2.428863   -0.000104
 H   -1.849694    1.830785   -0.000139
 H   -4.292358    2.151362   -0.000075
 H   -6.326472    1.079601    0.000913
 H   -0.045523   -2.642069    0.000164
 H    3.032275   -2.823819    0.000065
 H    4.804662    1.094256   -0.000015
 H    5.944880   -0.882169    0.000297
