28 
1x76_ligand_ani.xyz
 C   25.909312   35.930411   41.467932
 C   27.060825   35.235011   41.841886
 C   28.207941   35.354323   41.076554
 C   28.232131   36.161888   39.936470
 C   27.072739   36.857571   39.575576
 C   25.916661   36.743451   40.332610
 O   24.809311   35.776524   42.250649
 C   29.445865   36.272552   39.130329
 C   30.661294   35.667932   39.171932
 C   31.422160   36.204714   38.071473
 C   30.561278   37.117363   37.456452
 O   29.372288   37.160399   38.084693
 C   32.704922   36.001614   37.559050
 C   33.080872   36.728390   36.436973
 C   32.210010   37.648918   35.830759
 C   30.933053   37.858456   36.337442
 O   34.337172   36.502550   35.955911
 C   30.028109   38.799528   35.739699
 N   29.308302   39.562479   35.250328
 H   27.034178   34.610369   42.729157
 H   29.105035   34.814426   41.368579
 H   27.085565   37.489488   38.691990
 H   25.018077   37.286455   40.041331
 H   24.084317   36.299640   41.886280
 H   31.001903   34.922381   39.877612
 H   33.411442   35.303246   37.996239
 H   32.525800   38.211790   34.954141
 H   34.470435   37.055129   35.176948
