31 
1x78_ligand_xtb.xyz
 C    3.815770    0.110832   -0.318221
 C    2.612432    0.774827   -0.444835
 C    1.458643    0.030915   -0.224919
 C    1.497880   -1.337000    0.105280
 C    2.725019   -1.988556    0.224220
 C    3.874253   -1.252743    0.008519
 O    0.179567    0.463461   -0.292831
 C   -0.615383   -0.606861   -0.006011
 C    0.136335   -1.723605    0.241013
 O    5.115934   -1.805439    0.098548
 C    2.526953    2.242359   -0.777399
 C    2.106932    2.976045    0.392683
 N    1.773660    3.540914    1.328286
 C   -2.050013   -0.407193   -0.009353
 C   -2.580851    0.872450   -0.196449
 C   -3.941868    1.078623   -0.208450
 C   -4.812217    0.005268   -0.031853
 C   -4.293482   -1.271896    0.158926
 C   -2.929194   -1.475551    0.169668
 O   -6.147496    0.247642   -0.053732
 H    4.749837    0.628098   -0.469864
 H    2.771817   -3.037554    0.479607
 H   -0.223076   -2.699292    0.494499
 H    5.042015   -2.736978    0.337283
 H    1.785939    2.408435   -1.565512
 H    3.497251    2.622308   -1.105290
 H   -1.908730    1.706163   -0.326505
 H   -4.356852    2.063402   -0.351555
 H   -4.966456   -2.108187    0.297905
 H   -2.543407   -2.472137    0.314100
 H   -6.635254   -0.573464    0.084540
