31 
1x78_ligand_ani.xyz
 C   28.164491   27.274096   11.923129
 C   26.799239   27.363435   11.733664
 C   26.380735   28.004223   10.574350
 C   27.254007   28.530403    9.621026
 C   28.638431   28.423752    9.823496
 C   29.071613   27.794793   10.979934
 O   25.092577   28.217194   10.210590
 C   25.123013   28.877459    9.011518
 C   26.401953   29.094297    8.605117
 O   30.397195   27.645154   11.271786
 C   25.795900   26.826481   12.730912
 C   24.832181   25.898430   12.125040
 N   24.072085   25.168143   11.650521
 C   23.811892   29.203725    8.459770
 C   22.650440   28.933036    9.199828
 C   21.401893   29.247607    8.695298
 C   21.294134   29.835646    7.432180
 C   22.439128   30.104519    6.681960
 C   23.687436   29.788344    7.200906
 O   20.042321   30.121830    6.987943
 H   28.571431   26.793076   12.807774
 H   29.347718   28.822106    9.100968
 H   26.723672   29.599409    7.704226
 H   30.917858   28.041166   10.562321
 H   25.216866   27.646159   13.174470
 H   26.314236   26.315150   13.547715
 H   22.744762   28.470325   10.179451
 H   20.495923   29.046909    9.260624
 H   22.355096   30.558927    5.696392
 H   24.577279   29.995965    6.613018
 H   20.100495   30.519244    6.110077
