54 
1x7a_ligand_ani.xyz
 C   67.828537   22.276267   54.582537
 C   69.078626   22.175108   55.179716
 C   70.095237   21.433104   54.585768
 C   69.834657   20.776526   53.383410
 C   68.590547   20.884264   52.776356
 C   67.580045   21.630647   53.371019
 C   66.250811   21.706245   52.689999
 N   65.885097   20.734801   51.946875
 N   65.521541   22.856085   52.972164
 N   70.834940   20.034535   52.688941
 N   70.888366   20.169725   51.351970
 N   72.080769   17.244938   54.583155
 C   72.180966   16.447987   55.730188
 C   72.223996   15.066148   55.519167
 C   72.307870   14.149615   56.540063
 C   72.371959   14.628010   57.851016
 N   72.429947   13.700954   58.921955
 C   72.346569   16.001426   58.089630
 C   72.246455   16.910084   57.043062
 C   73.326444   13.669245   59.988475
 C   71.576693   12.638137   59.133513
 C   72.930623   12.570798   60.771148
 N   71.827038   11.946217   60.205293
 C   71.714575   19.069757   53.124311
 C   72.383901   18.613039   52.002495
 C   71.893520   18.598448   54.524680
 C   71.839459   19.348300   50.948478
 O   71.903407   19.317979   55.510732
 C   72.197084   19.249801   49.496537
 F   72.535700   20.439692   48.984186
 F   71.180184   18.769210   48.766224
 F   73.244045   18.417085   49.339888
 C   73.637585   12.255847   61.936271
 C   74.722969   13.045602   62.274527
 C   75.113371   14.135061   61.474039
 C   74.424090   14.463222   60.316715
 F   72.169230   14.643046   54.235716
 H   67.034412   22.840106   55.065079
 H   69.274111   22.681172   56.121362
 H   71.062245   21.334500   55.057492
 H   68.399709   20.386542   51.831697
 H   64.958437   20.899227   51.549978
 H   64.730587   23.021508   52.364443
 H   66.070807   23.689722   53.134386
 H   72.012783   16.714292   53.726204
 H   72.347427   13.088618   56.313420
 H   72.392933   16.365467   59.112232
 H   72.219141   17.971991   57.237280
 H   70.759158   12.443360   58.447818
 H   73.184184   17.890432   51.939027
 H   73.333150   11.411556   62.548028
 H   75.286456   12.817808   63.175653
 H   75.973128   14.729840   61.768279
 H   74.732492   15.296880   59.691416
