30 
1x7r_ligand_ani.xyz
 C   19.062124    6.887338  114.737496
 C   18.741986    7.266071  116.038224
 O   17.541863    6.857584  116.515227
 C   19.617575    8.030488  116.810712
 C   20.842154    8.424481  116.277955
 O   21.655120    9.153360  117.035578
 C   21.202587    8.051544  114.960017
 C   22.486536    8.436133  114.376162
 O   23.319339    9.084505  115.022000
 C   22.695483    8.019317  112.979987
 C   21.723581    7.295880  112.382151
 O   20.569322    6.904596  112.953555
 C   20.285464    7.291916  114.230180
 C   23.935295    8.369370  112.237708
 C   25.205746    8.230782  112.812702
 C   26.358856    8.502380  112.097958
 C   26.270028    8.940124  110.777147
 O   27.432374    9.196905  110.121258
 C   25.018542    9.100597  110.185091
 C   23.870556    8.807959  110.909657
 H   18.378848    6.297835  114.140604
 H   17.436333    7.173094  117.421392
 H   19.369820    8.330533  117.824614
 H   22.467122    9.328891  116.505014
 H   21.790474    6.915419  111.367789
 H   25.285905    7.905804  113.844183
 H   27.339016    8.388751  112.550324
 H   27.230569    9.488600  109.223357
 H   24.937969    9.444638  109.155268
 H   22.907412    8.960110  110.429694
