51 
1x8j_ligand_xtb.xyz
 C    2.446330   -1.506627   -0.300072
 C    3.932985   -1.430811    0.042839
 C    4.527596   -0.072975   -0.335790
 O    4.508005    0.142312   -1.733660
 C    3.728213    1.052763    0.316845
 C    2.245672    0.947981   -0.041144
 C    1.459073    2.134167    0.507619
 C    0.034093    2.104102   -0.029232
 C   -0.659121    0.788347    0.321930
 C    0.165022   -0.417874   -0.178265
 C    1.616684   -0.399856    0.377645
 C   -0.567241   -1.742955    0.089879
 C   -1.992658   -1.770431   -0.471215
 C   -2.780504   -0.578741    0.058945
 C   -2.036343    0.705589   -0.327318
 C   -3.065929    1.809014   -0.075090
 C   -4.367623    1.173641   -0.579979
 C   -4.151782   -0.331958   -0.547976
 O   -4.936905   -1.160972   -0.921900
 C   -3.063923   -0.735103    1.562166
 C    1.631821   -0.614058    1.895095
 H    2.335042   -1.413079   -1.382837
 H    2.078900   -2.490593   -0.005777
 H    4.087245   -1.597288    1.109006
 H    4.465535   -2.223499   -0.492344
 H    5.572925   -0.027591    0.020020
 H    4.921456   -0.611487   -2.167506
 H    4.112555    2.004173   -0.054547
 H    3.880902    1.027487    1.395909
 H    2.195096    0.994389   -1.134576
 H    1.944517    3.063729    0.202203
 H    1.451062    2.110915    1.598420
 H   -0.535985    2.939092    0.382780
 H    0.058700    2.219248   -1.115753
 H   -0.773072    0.741785    1.407043
 H    0.247312   -0.309409   -1.267476
 H   -0.603248   -1.934826    1.161389
 H   -0.012295   -2.560007   -0.371688
 H   -2.480666   -2.707410   -0.197939
 H   -1.959628   -1.720739   -1.562141
 H   -1.878648    0.662486   -1.413575
 H   -3.126446    2.048292    0.986841
 H   -2.829057    2.725277   -0.613418
 H   -5.244142    1.439981    0.011167
 H   -4.578477    1.460048   -1.611875
 H   -2.145863   -0.796214    2.137389
 H   -3.629356   -1.651856    1.718247
 H   -3.654179    0.093693    1.943453
 H    1.405137   -1.651329    2.130524
 H    2.607373   -0.386827    2.312997
 H    0.904325    0.015550    2.397250
