91 
1xdg_ligand_dft.xyz
 C    4.296933    2.506663   -2.012586
 O    4.426570    2.490984   -0.605147
 C    4.501021    1.270725    0.006059
 C    4.871464    1.337925    1.362880
 O    5.117044    2.538749    1.938332
 C    4.991299    0.169174    2.095974
 C    4.724892   -1.061560    1.491703
 C    4.242512    0.050449   -0.591916
 C    4.338766   -1.131216    0.159260
 C    3.898427   -2.436878   -0.464100
 N    2.447817   -2.533467   -0.630275
 C    1.591270   -2.662008    0.553359
 C    1.204114   -1.285424    1.115967
 C    0.416529   -1.365319    2.415716
 N   -0.001055   -0.164913    2.887315
 C   -0.809341   -0.061143    4.081231
 O    0.199944   -2.420850    3.002161
 C    0.411875   -3.564641    0.176570
 C   -0.159472   -3.208643   -1.208919
 O    0.542861   -2.111295   -1.831543
 C    1.895920   -2.062379   -1.784845
 O    2.517913   -1.594412   -2.720154
 C   -1.635104   -2.819380   -1.229562
 C   -2.011442   -1.684596   -0.273146
 C   -3.326523   -0.978515   -0.625301
 C   -3.714702    0.091247    0.418311
 C   -4.929736    0.874895   -0.042270
 C   -5.930896    0.122435   -0.801211
 C   -5.762957   -1.155014   -1.159367
 C   -4.513411   -1.940917   -0.852673
 C   -4.772862   -2.919856    0.305510
 C   -5.107684    2.168938    0.255061
 C   -4.144330    3.017556    1.039932
 C   -3.563951    4.134756    0.155126
 C   -3.069179    2.151534    1.717414
 C   -2.570945    1.007278    0.843260
 O   -1.933332    1.520832   -0.349922
 C   -0.670768    1.942899   -0.242013
 O   -0.036428    1.930799    0.796536
 C   -0.099941    2.368834   -1.574035
 C    0.884353    3.523116   -1.388809
 C    0.553862    1.117498   -2.200035
 C    0.939233    1.279305   -3.666935
 H    5.128727    1.972632   -2.487458
 H    4.313651    3.556824   -2.306540
 H    3.350471    2.057139   -2.330176
 H    4.987012    3.212320    1.254412
 H    5.286600    0.235875    3.137709
 H    4.797630   -1.971565    2.081935
 H    3.934927   -0.017315   -1.630141
 H    4.213278   -3.278456    0.162302
 H    4.339115   -2.566546   -1.454366
 H    2.178793   -3.176403    1.318471
 H    2.113992   -0.710443    1.311939
 H    0.645703   -0.708289    0.373589
 H    0.128538    0.659181    2.309390
 H   -1.873760   -0.237431    3.873927
 H   -0.478588   -0.806671    4.806497
 H   -0.694250    0.937376    4.508883
 H    0.775185   -4.596152    0.152599
 H   -0.344642   -3.510785    0.960426
 H   -0.029038   -4.062998   -1.883267
 H   -2.218908   -3.721705   -1.010667
 H   -1.875490   -2.529944   -2.260145
 H   -1.216828   -0.936228   -0.317279
 H   -2.039782   -2.050959    0.762133
 H   -3.165375   -0.455539   -1.577801
 H   -3.995169   -0.442145    1.340326
 H   -6.850922    0.644229   -1.057719
 H   -6.560748   -1.675864   -1.685544
 H   -4.279210   -2.545811   -1.739227
 H   -5.033398   -2.390197    1.227526
 H   -5.612244   -3.579624    0.061854
 H   -3.902080   -3.551133    0.510881
 H   -6.005070    2.670127   -0.108422
 H   -4.710920    3.513165    1.841072
 H   -2.862717    4.755764    0.724306
 H   -4.363095    4.785097   -0.217186
 H   -3.040852    3.716814   -0.708705
 H   -2.220517    2.764030    2.038189
 H   -3.490984    1.693492    2.620920
 H   -1.826289    0.427537    1.390199
 H   -0.936072    2.678288   -2.211613
 H    1.712368    3.219679   -0.740737
 H    1.291190    3.837870   -2.354218
 H    0.397450    4.390458   -0.931686
 H    1.438128    0.851837   -1.604575
 H   -0.133738    0.268805   -2.121271
 H    1.405394    0.354968   -4.018446
 H    0.055342    1.482318   -4.282311
 H    1.647941    2.100182   -3.825038
