20 
1xff_ligand_ani.xyz
 N   -0.418664    1.687086    0.504571
 C   -1.082729    0.609455   -0.303689
 C   -1.731350   -0.388531    0.645896
 O   -2.015403   -1.532165    0.398887
 C   -0.167827   -0.061719   -1.336809
 C    0.831339   -1.100066   -0.823216
 C    1.987308   -0.541727   -0.036595
 O    2.910497   -1.471697    0.230519
 O    2.117179    0.609745    0.331169
 O   -2.009289    0.199071    1.831949
 H    0.603362    1.492987    0.547386
 H   -0.818907    1.656645    1.455569
 H   -0.585118    2.614449    0.086972
 H   -1.921145    1.060339   -0.841042
 H    0.364056    0.726952   -1.879980
 H   -0.817856   -0.562393   -2.058819
 H    0.323736   -1.844722   -0.199998
 H    1.260560   -1.649964   -1.668175
 H    3.615329   -1.030072    0.734701
 H   -2.444978   -0.473574    2.380504
