17 
1xge_ligand_dft.xyz
 O    1.639662   -2.289573   -0.301242
 C    1.116455   -1.245606    0.020198
 N    0.100220   -1.142612    0.941458
 N    1.534166   -0.020491   -0.513864
 C    1.168079    1.254543   -0.108788
 O    1.686312    2.241552   -0.577145
 C    0.107228    1.287987    0.973175
 C   -0.753552    0.025584    0.973902
 C   -1.793729    0.080770   -0.153609
 O   -2.373970    1.083873   -0.484212
 O   -2.021638   -1.124087   -0.696043
 H   -0.320832   -2.038542    1.143623
 H    2.289985   -0.084045   -1.184231
 H    0.620855    1.378952    1.936230
 H   -0.506234    2.176596    0.823378
 H   -1.331019   -0.003773    1.904478
 H   -2.703261   -1.001263   -1.376770
