29 
1xgi_ligand_ani.xyz
 N   79.149112    4.719311   31.284075
 C   80.514069    4.803327   31.669979
 C   80.919352    4.076229   32.792934
 C   81.447753    5.557130   30.966048
 C   82.238900    4.143190   33.233912
 C   82.754325    5.595149   31.427018
 C   83.177238    4.910185   32.554378
 N   83.716131    6.396844   30.661329
 S   78.198601    5.963215   30.741552
 C   78.792379    6.273685   29.097156
 O   76.856542    5.420493   30.680141
 O   78.504631    7.145435   31.524925
 C   78.969003    5.385260   28.054297
 C   79.087318    7.619276   28.726150
 S   79.501728    6.211561   26.628599
 C   78.769255    3.925944   27.879400
 C   79.488646    7.721743   27.430352
 O   78.442221    3.243861   28.999051
 O   78.898168    3.373844   26.812795
 O   83.314487    6.950254   29.651791
 O   84.859646    6.459497   31.081072
 H   78.764825    3.810492   31.059555
 H   80.186085    3.477590   33.326282
 H   81.204917    6.091678   30.060026
 H   82.539567    3.587412   34.116938
 H   84.209641    4.979213   32.876274
 H   79.003246    8.439581   29.432001
 H   79.774966    8.625594   26.908495
 H   78.310251    2.324003   28.709458
