43 
1xm4_ligand_ani.xyz
Cl   83.993272    4.659779   61.518193
 C   83.714142    3.290195   60.501834
 C   82.486674    3.179534   59.854724
 N   82.192057    2.215140   58.986949
 C   83.144306    1.325639   58.721986
 C   84.397872    1.356963   59.316332
Cl   85.573417    0.159441   58.868496
 C   84.709386    2.331025   60.274803
 N   85.957624    2.341551   60.903753
 C   86.146258    2.296461   62.280857
 O   85.237634    2.273152   63.085811
 C   87.579304    2.259933   62.709694
 C   88.630534    2.664100   61.900045
 C   89.941015    2.586087   62.365877
 C   90.209392    2.109167   63.642343
 O   91.446051    1.981815   64.173792
 C   92.540861    2.336469   63.358133
 C   89.134506    1.727473   64.484013
 C   87.836255    1.819025   64.010990
 O   89.496953    1.288059   65.718952
 C   88.479769    0.865285   66.624075
 C   87.665068    2.039750   67.214306
 C   88.165051    2.206585   68.656903
 C   88.511348    0.774185   69.077086
 C   89.180802    0.199587   67.820915
 H   81.712605    3.917552   60.055206
 H   82.915003    0.544101   58.000273
 H   86.708176    1.970362   60.336521
 H   88.446020    3.073387   60.909139
 H   90.748371    2.894753   61.710838
 H   92.502381    3.397053   63.076174
 H   93.433710    2.151924   63.956548
 H   92.577182    1.722171   62.448577
 H   86.978212    1.566770   64.627856
 H   87.820856    0.158612   66.104481
 H   86.604569    1.761077   67.218048
 H   87.769189    2.947294   66.610861
 H   87.428340    2.686582   69.308662
 H   89.070306    2.826402   68.664267
 H   87.592192    0.219181   69.308889
 H   89.155825    0.728228   69.961201
 H   90.231797    0.500143   67.776211
 H   89.142708   -0.893988   67.774370
