38 
1xm6_ligand_dft.xyz
 O   -5.525978    0.599638    0.104069
 C   -4.488299    0.014437   -0.056408
 O   -3.355564    0.278780    0.648489
 N   -4.222617   -1.017631   -0.927206
 C   -2.798353   -1.223949   -1.059664
 C   -2.309061   -0.645173    0.293451
 C   -2.256513   -1.716863    1.382230
 C   -0.998582    0.101967    0.164146
 C   -0.896167    1.459351    0.431887
 C    0.326872    2.117366    0.295465
 C    1.463420    1.429239   -0.117500
 O    2.684433    1.991872   -0.309477
 C    2.830324    3.365359   -0.027742
 C    1.369671    0.046188   -0.374607
 C    0.148367   -0.592698   -0.232210
 O    2.427084   -0.689313   -0.815299
 C    3.609545   -0.697831   -0.014316
 C    4.286677   -2.045364   -0.195076
 C    5.599992   -2.127753    0.581149
 H   -4.856673   -1.136089   -1.701885
 H   -2.544169   -2.283273   -1.159422
 H   -2.369022   -0.672484   -1.905700
 H   -1.457691   -2.436805    1.181141
 H   -3.209956   -2.252840    1.427772
 H   -2.066863   -1.246342    2.350135
 H   -1.773456    2.013357    0.744298
 H    0.374241    3.180483    0.502013
 H    3.875576    3.602280   -0.229190
 H    2.189175    3.978992   -0.673113
 H    2.604015    3.586019    1.023336
 H    0.121986   -1.657737   -0.446638
 H    3.345704   -0.537755    1.039905
 H    4.271994    0.117724   -0.322652
 H    3.598677   -2.833305    0.132014
 H    4.467213   -2.204434   -1.264304
 H    6.307509   -1.360924    0.245851
 H    5.436653   -1.983795    1.655389
 H    6.076245   -3.103116    0.444402
