41 
1xmy_ligand_xtb.xyz
 C    1.491767   -0.148260    0.294389
 C    0.192139   -0.437676    0.677447
 C   -0.870611    0.400912    0.360646
 C   -0.612614    1.595133   -0.326777
 C    0.687544    1.868337   -0.733837
 C    1.726746    1.008970   -0.438798
 C    2.620140   -1.078028    0.662252
 C    3.465967   -1.464463   -0.559221
 C    4.678150   -0.546067   -0.511583
 O    5.489631   -0.357816   -1.385893
 N    4.691875    0.027832    0.709660
 C    3.634146   -0.379528    1.596864
 O   -2.125327    0.029749    0.779598
 C   -3.099207   -0.153575   -0.251047
 C   -4.473524   -0.253841    0.434030
 C   -5.077816   -1.581501   -0.027038
 C   -3.856086   -2.457029   -0.288818
 C   -2.897547   -1.493426   -0.982889
 O   -1.595440    2.503250   -0.662771
 C   -2.314433    3.051430    0.426787
 H   -0.029881   -1.338338    1.231086
 H    0.863938    2.778666   -1.285821
 H    2.725031    1.248604   -0.770721
 H    2.202076   -1.960138    1.150343
 H    3.821145   -2.494305   -0.495874
 H    2.929621   -1.348040   -1.499163
 H    5.432809    0.641838    1.004599
 H    4.011079   -1.072679    2.360182
 H    3.189506    0.483576    2.100104
 H   -3.047869    0.681317   -0.957306
 H   -5.110678    0.596764    0.198603
 H   -4.302198   -0.270231    1.511087
 H   -5.633276   -1.438506   -0.955507
 H   -5.751644   -2.005948    0.715290
 H   -4.083570   -3.331706   -0.896077
 H   -3.428280   -2.787976    0.658280
 H   -1.857513   -1.814450   -0.933568
 H   -3.174079   -1.379127   -2.031731
 H   -1.657893    3.674577    1.043872
 H   -3.094638    3.670926   -0.012179
 H   -2.766270    2.280577    1.054960
