44 
1xog_ligand_xtb.xyz
 C   -1.111461   -0.500040   -0.977663
 C   -0.250664    0.067051    0.178081
 O   -0.493944   -0.762512    1.312249
 C   -1.651060   -1.522164    1.074532
 C   -1.622787   -1.831944   -0.428692
 C   -2.912525   -0.721661    1.395813
 O   -2.942568    0.458422    1.609816
 O   -3.992101   -1.501525    1.398753
 N    1.912989    0.729077    1.018407
 C    2.626529    1.872350    0.912309
 C    3.129625    2.395924    2.241202
 O    2.854162    2.408061   -0.152005
 C    1.264280    0.093604   -0.105714
 C    1.835286   -1.309400   -0.338670
 C    3.357981   -1.335489   -0.517198
 C    3.826007   -2.785015   -0.639173
 C    3.799592   -0.531972   -1.737773
 C   -2.282165    0.420492   -1.299669
 O   -3.432760    0.069831   -1.347826
 O   -1.867652    1.658079   -1.543381
 C   -2.880005    2.625772   -1.797811
 H   -0.520148   -0.606969   -1.888106
 H   -0.564376    1.092086    0.414847
 H   -1.620792   -2.412432    1.707301
 H   -0.921177   -2.639848   -0.628866
 H   -2.606822   -2.085137   -0.817462
 H   -4.795299   -0.969567    1.520747
 H    1.692974    0.344291    1.923371
 H    3.767744    1.654538    2.716788
 H    3.698245    3.306196    2.076642
 H    2.290105    2.608904    2.898988
 H    1.445125    0.737378   -0.971479
 H    1.566161   -1.929483    0.519386
 H    1.373448   -1.739030   -1.229280
 H    3.821087   -0.895086    0.371796
 H    3.398625   -3.248054   -1.526385
 H    3.524039   -3.364980    0.230384
 H    4.909363   -2.829873   -0.720200
 H    3.282115   -0.877240   -2.630807
 H    4.868930   -0.652098   -1.895659
 H    3.598552    0.526695   -1.600862
 H   -2.361854    3.535028   -2.089852
 H   -3.468304    2.791862   -0.893493
 H   -3.541553    2.281403   -2.594938
