43 
1xon_ligand_dft.xyz
Cl   -2.695483   -2.615721    1.046980
 C   -3.806035   -1.466683    0.382565
 C   -5.111207   -1.873097    0.114081
 N   -6.065725   -1.046766   -0.303333
 C   -5.749871    0.234972   -0.467706
 C   -4.468074    0.723249   -0.249815
Cl   -4.141221    2.415319   -0.509559
 C   -3.442220   -0.131420    0.171706
 N   -2.150466    0.352096    0.403330
 C   -1.047246   -0.076030   -0.324802
 O   -1.107081   -1.032247   -1.071750
 C    0.209490    0.697801   -0.097759
 C    0.247556    2.016714    0.331937
 C    1.473563    2.662293    0.504587
 C    2.664430    1.993531    0.252300
 O    3.897183    2.523007    0.397933
 C    3.994746    3.856781    0.844159
 C    2.631847    0.651548   -0.205417
 C    1.408850    0.026515   -0.378364
 O    3.837226    0.097156   -0.445386
 C    3.895755   -1.248174   -0.927507
 C    3.584840   -2.265959    0.196856
 C    4.953061   -2.821892    0.662971
 C    5.999213   -1.882208    0.044328
 C    5.358760   -1.495326   -1.291148
 H   -5.387844   -2.913110    0.262506
 H   -6.538722    0.905581   -0.796716
 H   -2.084115    1.236091    0.884922
 H   -0.659193    2.591022    0.500654
 H    1.483881    3.695751    0.829955
 H    3.516450    4.551620    0.141961
 H    3.548234    3.981456    1.839087
 H    5.061370    4.076246    0.897541
 H    1.341434   -0.995933   -0.728804
 H    3.228655   -1.340864   -1.792460
 H    2.926785   -3.061254   -0.166958
 H    3.055154   -1.763158    1.010790
 H    5.096385   -3.836859    0.274627
 H    5.028433   -2.880160    1.752323
 H    6.980719   -2.351828   -0.068436
 H    6.121800   -0.985702    0.662005
 H    5.803331   -0.620322   -1.771607
 H    5.411188   -2.338080   -1.991747
