50 
1xuc_ligand_xtb.xyz
 C    1.225907   -1.147964   -0.296496
 C    0.058771   -1.552098    0.342405
 C   -1.137021   -1.113927   -0.215689
 N    1.195729   -0.367191   -1.376415
 C   -9.098572    1.331899   -0.614918
 C    8.677382    1.925150   -0.974857
 C   -2.455900   -1.503350    0.394329
 C   -4.876691   -1.296886    0.071144
 C   -5.633601    0.002365    0.168524
 C    2.570549   -1.586220    0.216455
 C    6.801133    0.306749   -0.565016
 C    5.829533    1.841977    1.512920
 C   -5.024178    1.133309    0.695438
 C   -5.727664    2.321159    0.783546
 C   -7.040320    2.387530    0.353595
 C   -6.950727    0.080498   -0.261188
 N   -1.158479   -0.337422   -1.298948
 C    0.007412   -0.001741   -1.815291
 N   -3.507520   -1.099435   -0.337773
 N    3.585477   -1.161663   -0.554591
 C    4.974327   -1.397258   -0.233108
 C    5.680698   -0.116867    0.133539
 C    7.450218    1.488741   -0.233548
 C    6.949591    2.253580    0.812683
 C    5.195257    0.659899    1.177880
 C   -7.668920    1.264609   -0.171025
 O    2.690273   -2.268846    1.214494
 O   -2.529277   -2.128097    1.433633
 H    0.079856   -2.176903    1.220167
 H   -9.759096    1.282308    0.251112
 H   -9.298365    2.267592   -1.132941
 H   -9.341916    0.503292   -1.275251
 H    9.568391    1.671350   -0.399891
 H    8.746044    1.432501   -1.941595
 H    8.674404    3.002518   -1.126347
 H   -5.379888   -1.971073   -0.631753
 H   -4.835424   -1.787515    1.050643
 H    7.180391   -0.296647   -1.378635
 H    5.451205    2.444472    2.325561
 H   -4.001262    1.080270    1.038285
 H   -5.249589    3.199611    1.191403
 H   -7.585066    3.317897    0.424865
 H   -7.427569   -0.799532   -0.670610
 H   -0.013354    0.636451   -2.689970
 H   -3.314215   -0.549170   -1.163195
 H    3.353663   -0.553483   -1.327770
 H    5.468945   -1.875193   -1.084804
 H    4.977662   -2.088263    0.616216
 H    7.442924    3.177152    1.079697
 H    4.324739    0.330958    1.725960
