50 
1xud_ligand_dft.xyz
 C    1.177651   -1.730022   -0.146383
 C    0.000180   -1.742123    0.588683
 C   -1.177494   -1.729965   -0.146057
 C   -8.038107    1.838379   -1.640177
 C    8.037313    1.839622   -1.640374
 C   -2.508889   -1.738412    0.575833
 C   -4.940679   -1.709479    0.255166
 C   -5.494884   -0.300918    0.270229
 C    2.509246   -1.738545    0.575141
 C    4.940962   -1.709741    0.253809
 C    5.495003   -0.301123    0.269583
 C    6.470587    0.095332   -0.643806
 C    6.467877    2.282814    0.272816
 C   -5.011652    0.628491    1.194045
 C   -5.497972    1.929829    1.196640
 C   -6.468026    2.282918    0.272132
 C   -6.470821    0.094852   -0.643122
 N   -1.187024   -1.701090   -1.482796
 C   -0.000187   -1.685959   -2.083476
 N    1.186818   -1.701135   -1.483122
 N   -3.578100   -1.778545   -0.245037
 N    3.578232   -1.778722   -0.246020
 C    6.982170    1.393575   -0.664939
 C    5.498164    1.929006    1.197449
 C    5.011985    0.627649    1.194195
 C   -6.982532    1.392999   -0.664905
 O    2.557090   -1.718059    1.797215
 O   -2.556393   -1.717866    1.797918
 F   -6.940161    3.543755    0.277727
 F    6.939828    3.543718    0.279100
 H    0.000326   -1.759414    1.671121
 H   -8.935088    2.188407   -1.118764
 H   -7.680858    2.669103   -2.257626
 H   -8.326158    1.018105   -2.303025
 H    8.934156    2.190249   -1.119141
 H    8.325758    1.019525   -2.303268
 H    7.679409    2.670096   -2.257793
 H   -5.566070   -2.359686   -0.364440
 H   -4.922123   -2.123660    1.266356
 H    4.922836   -2.124594    1.264734
 H    5.566212   -2.359457   -0.366449
 H    6.853132   -0.624931   -1.364891
 H   -4.252570    0.326569    1.910059
 H   -5.141731    2.670134    1.904647
 H   -6.853518   -0.625944   -1.363593
 H   -0.000334   -1.658853   -3.169758
 H   -3.394052   -1.694017   -1.236068
 H    3.393925   -1.694120   -1.236995
 H    5.142123    2.668861    1.906029
 H    4.253202    0.325142    1.910279
