76 
1xuo_ligand_ani.xyz
 O   -3.756838   -0.045853   -4.602451
 C   -2.861617   -0.688100   -4.069851
 N   -1.969819   -1.450346   -4.748855
 C   -1.979375   -1.531425   -6.192624
 C   -2.643716   -0.671893   -2.546239
 C   -3.911728   -0.247107   -1.800635
 C   -3.678401   -0.102175   -0.311937
 C   -3.428073   -1.207548    0.472860
 C   -3.155901   -1.104612    1.864328
 C   -2.907223   -2.242559    2.684559
 C   -2.647996   -2.108931    4.027078
 C   -2.614940   -0.828221    4.616245
 C   -2.841292    0.288545    3.850821
 C   -3.117670    0.180861    2.459551
 C   -3.365007    1.313136    1.636853
 C   -3.641824    1.170233    0.300249
 N   -1.479641    0.161886   -2.209476
 C   -1.589472    1.598740   -2.448336
 C   -0.883812    2.459229   -1.405199
 C    0.611105    2.581427   -1.620833
 O    1.145926    3.678562   -1.714414
 N    1.328636    1.417068   -1.717983
 C    0.844271    0.131828   -1.208900
 C    0.504134    0.142918    0.309540
 C    1.005237   -1.089372    1.080275
 C    0.301567   -2.373620    0.639548
 C    0.823384   -0.856419    2.578399
 C   -0.289732   -0.496592   -2.044716
 O   -0.137802   -1.638894   -2.477550
 C    2.783236    1.548359   -1.852403
 C    3.503642    1.513647   -0.517641
 C    4.183629    0.405832   -0.068397
 C    4.721268    0.383199    1.245870
 C    5.407605   -0.735038    1.790941
 C    5.890339   -0.697018    3.074540
 C    5.713063    0.459587    3.866381
 C    5.060261    1.554008    3.362520
 C    4.548780    1.542569    2.039562
 N    3.903971    2.658924    1.579258
 C    3.419503    2.623723    0.361696
 H   -1.205937   -1.857777   -4.220811
 H   -1.086441   -1.061647   -6.622281
 H   -2.024375   -2.574970   -6.521327
 H   -2.863053   -1.003861   -6.557489
 H   -2.365231   -1.678506   -2.215788
 H   -4.673275   -1.011278   -1.991082
 H   -4.302751    0.677861   -2.232760
 H   -3.428106   -2.201240    0.026585
 H   -2.921918   -3.228882    2.225821
 H   -2.459105   -2.988782    4.635666
 H   -2.401790   -0.727778    5.677415
 H   -2.804812    1.278715    4.298475
 H   -3.333336    2.298807    2.091158
 H   -3.819570    2.058512   -0.304203
 H   -1.206406    1.850553   -3.447344
 H   -2.652299    1.846924   -2.460463
 H   -1.260836    3.481736   -1.460846
 H   -1.084840    2.091681   -0.396132
 H    1.671439   -0.568593   -1.358350
 H    0.959309    1.035695    0.752704
 H   -0.579906    0.234953    0.465925
 H    2.083284   -1.196599    0.881339
 H   -0.785850   -2.256356    0.718004
 H    0.536968   -2.634247   -0.395230
 H    0.596427   -3.209943    1.283063
 H    1.399108    0.013599    2.915335
 H   -0.229615   -0.676764    2.821270
 H    1.155545   -1.727243    3.155033
 H    2.964145    2.496098   -2.362563
 H    3.141938    0.731802   -2.489401
 H    4.310533   -0.472832   -0.698028
 H    5.542101   -1.619327    1.170489
 H    6.412756   -1.555303    3.489062
 H    6.101014    0.477529    4.882415
 H    4.911644    2.457857    3.945915
 H    2.905162    3.521547    0.015391
