42 
1xur_ligand_dft.xyz
 C    1.177057   -1.274905    0.000375
 C   -0.000107   -1.085930    0.711320
 C   -1.177220   -1.275017    0.000320
 N    1.186631   -1.612441   -1.293093
 C   -2.509006   -1.085834    0.695202
 C   -4.939804   -1.163612    0.386549
 C   -5.487144    0.216710    0.102122
 C    2.508793   -1.085604    0.695313
 C    6.476461    0.417734   -0.857739
 C    5.529190    2.584499    0.466542
 C   -5.006022    1.338016    0.780752
 C   -5.528909    2.584487    0.466845
 C   -6.515756    2.666448   -0.513679
 C   -6.476329    0.418092   -0.857917
 N   -1.186708   -1.612535   -1.293150
 C   -0.000018   -1.762483   -1.875513
 N   -3.577862   -1.343861   -0.085436
 N    3.577704   -1.343679   -0.085236
 C    4.939611   -1.163534    0.386868
 C    5.487168    0.216666    0.102238
 N    6.991379    1.608402   -1.171738
 C    6.516156    2.666149   -0.513908
 C    5.006113    1.338162    0.780614
 N   -6.991040    1.608875   -1.171766
 O    2.559643   -0.733861    1.865883
 O   -2.559934   -0.734222    1.865811
 H   -0.000144   -0.807272    1.757455
 H   -5.568042   -1.925717   -0.084519
 H   -4.929832   -1.353118    1.463105
 H    6.881530   -0.433133   -1.406037
 H    5.184499    3.480524    0.972304
 H   -4.235720    1.221252    1.538385
 H   -5.184130    3.480361    0.972814
 H   -6.946224    3.628791   -0.782546
 H   -6.881435   -0.432633   -1.406410
 H    0.000019   -2.033534   -2.927651
 H   -3.395047   -1.542925   -1.060168
 H    3.394956   -1.542930   -1.059942
 H    5.567817   -1.925810   -0.083966
 H    4.929478   -1.352806    1.463464
 H    6.946766    3.628399   -0.782888
 H    4.235693    1.221610    1.538159
