71 
1xxe_ligand_xtb.xyz
 C    3.494733    0.101388    0.240468
 C    2.963378    1.538293    0.374041
 C    3.918583    2.467001   -0.403105
 C    4.932984    0.028562    0.754525
 C    5.761885    1.048443   -0.038445
 O    5.238410    2.348306    0.091622
 O    2.675661   -0.808315    0.976234
 O    1.376022   -1.112975   -0.827228
 C    1.613866   -1.318347    0.334677
 C    0.790348   -2.189715    1.247496
 C    0.224933   -1.380493    2.422173
 C   -0.557412   -0.141042    1.986357
 C   -1.771241   -0.457319    1.115091
 C   -2.585072    0.804745    0.837541
 C   -3.741909    0.582149   -0.136357
 C   -4.847782   -0.308967    0.426074
 C   -6.057282   -0.365714   -0.504468
 C   -7.174300   -1.234465    0.068696
 C   -8.368883   -1.394546   -0.873451
 C   -9.075299   -0.090971   -1.250044
 C   -9.642781    0.666705   -0.051885
 C  -10.453079    1.880603   -0.490614
 C    5.501571   -1.394254    0.645965
 C    5.284479   -1.978747   -0.733174
 O    5.690654   -1.491752   -1.775692
 N    4.586510   -3.124441   -0.754516
 O    4.337577   -3.735034   -1.984840
 O    1.634445    1.663158   -0.044437
 C    3.515149    3.937352   -0.254576
 O    4.288522    4.770793   -1.070806
 H    3.454778   -0.186258   -0.820837
 H    2.965745    1.828784    1.431505
 H    3.896113    2.191102   -1.471720
 H    4.932349    0.322680    1.809099
 H    5.799857    0.749043   -1.094271
 H    6.778870    1.101707    0.354959
 H   -0.011581   -2.633054    0.658820
 H    1.425747   -2.987242    1.637739
 H    1.053942   -1.066090    3.059191
 H   -0.423180   -2.035855    3.008459
 H    0.102139    0.538532    1.443201
 H   -0.895220    0.379938    2.885889
 H   -2.394307   -1.198752    1.619537
 H   -1.441742   -0.876164    0.163123
 H   -1.914754    1.559627    0.419747
 H   -2.978251    1.197236    1.778721
 H   -3.357341    0.143409   -1.059750
 H   -4.173049    1.554219   -0.388987
 H   -5.162247    0.078752    1.398444
 H   -4.467410   -1.320448    0.579060
 H   -5.750038   -0.764388   -1.474280
 H   -6.425230    0.649151   -0.663481
 H   -7.508943   -0.813585    1.018539
 H   -6.772523   -2.229192    0.279974
 H   -8.028201   -1.879499   -1.791958
 H   -9.094272   -2.061392   -0.399763
 H   -9.896111   -0.334653   -1.929981
 H   -8.387104    0.557658   -1.794780
 H   -8.828642    0.999666    0.593665
 H  -10.278898   -0.003950    0.530761
 H  -11.291908    1.576833   -1.113376
 H   -9.832361    2.564818   -1.065502
 H  -10.842837    2.415007    0.372886
 H    5.033558   -2.028047    1.398890
 H    6.576616   -1.357789    0.832509
 H    4.160042   -3.611052    0.014373
 H    4.753126   -3.120925   -2.625687
 H    1.517749    1.225887   -0.899921
 H    3.617406    4.218143    0.802792
 H    2.475481    4.064417   -0.560165
 H    5.215513    4.585386   -0.876538
