71 
1xxe_ligand_ani.xyz
 C   -4.079118    0.056816    0.176828
 C   -3.320336   -1.137326   -0.436077
 C   -4.108864   -1.713989   -1.610895
 C   -5.533427   -0.309898    0.450827
 C   -6.160962   -0.921242   -0.801525
 O   -5.425022   -2.059452   -1.210322
 O   -3.492029    0.385636    1.460904
 O   -1.908802    1.620302    0.438239
 C   -2.375760    1.131927    1.452816
 C   -1.735888    1.223707    2.811156
 C   -1.215930   -0.147035    3.290656
 C   -0.441119   -0.940426    2.230957
 C    0.732602   -0.201706    1.586139
 C    1.330277   -0.998909    0.424496
 C    2.451295   -0.272164   -0.323115
 C    3.682925    0.031342    0.530211
 C    4.810454    0.682082   -0.267942
 C    6.040297    1.001597    0.580868
 C    7.155846    1.726979   -0.180869
 C    7.665598    1.000818   -1.430595
 C    8.168356   -0.419156   -1.168191
 C    8.767323   -1.074685   -2.409700
 C   -6.335605    0.867343    1.017026
 C   -6.593548    2.003328    0.042978
 O   -6.081958    2.154364   -1.063701
 N   -7.532846    2.899090    0.461844
 O   -7.634286    4.062349   -0.293986
 O   -2.021075   -0.805471   -0.887713
 C   -3.502477   -2.987608   -2.185880
 O   -4.280401   -3.462935   -3.259322
 H   -4.011174    0.925256   -0.485516
 H   -3.247720   -1.912974    0.342374
 H   -4.160682   -0.956341   -2.412525
 H   -5.509991   -1.090351    1.222241
 H   -6.197913   -0.176506   -1.609215
 H   -7.182106   -1.262348   -0.597517
 H   -0.920381    1.947147    2.726870
 H   -2.460861    1.619754    3.531502
 H   -2.072002   -0.747034    3.616458
 H   -0.590507    0.014661    4.177166
 H   -1.133630   -1.252366    1.435603
 H   -0.072874   -1.867762    2.690022
 H    1.496572    0.014085    2.346511
 H    0.395782    0.768656    1.196266
 H    0.519897   -1.229171   -0.283145
 H    1.705870   -1.964239    0.797016
 H    2.059616    0.669783   -0.736646
 H    2.755853   -0.881502   -1.185071
 H    4.048530   -0.901720    0.984845
 H    3.407357    0.691140    1.364635
 H    4.441648    1.608367   -0.733608
 H    5.092594    0.017409   -1.096814
 H    6.432871    0.071997    1.017360
 H    5.734679    1.625420    1.432027
 H    6.797723    2.723887   -0.474309
 H    7.998576    1.893876    0.504803
 H    8.481260    1.590335   -1.871660
 H    6.873491    0.971536   -2.192395
 H    7.344044   -1.039323   -0.792950
 H    8.918104   -0.389889   -0.365349
 H    9.611249   -0.490748   -2.795680
 H    8.023578   -1.151450   -3.211850
 H    9.129786   -2.085019   -2.193145
 H   -5.800097    1.273021    1.884805
 H   -7.310636    0.515821    1.377790
 H   -7.618764    3.118232    1.445234
 H   -7.048049    3.853896   -1.050838
 H   -1.854641    0.132925   -0.686328
 H   -3.417384   -3.741293   -1.384429
 H   -2.499408   -2.784804   -2.569259
 H   -5.185579   -3.518138   -2.921097
