38 
1y0l_ligand_xtb.xyz
 N    0.324833    0.416704   -0.896060
 C    0.571462    1.688333   -0.450460
 N   -0.427798    2.242685    0.168446
 C   -2.725585    1.353777    0.641082
 C   -3.554310    0.261559    0.458473
 C   -3.097740   -0.883136   -0.224429
 C   -1.807025   -0.941477   -0.723716
 C   -1.432336    1.302833    0.142927
 C   -0.979668    0.149717   -0.530977
 C   -4.956569    0.301829    0.989083
 C   -4.014447   -2.053833   -0.418075
 N    1.821083    2.294569   -0.609667
 C    1.261583   -0.485543   -1.510804
 C    1.539290   -1.754997   -0.684246
 C    1.542726   -1.581454    0.837916
 C    2.441517   -0.455842    1.371728
 C    3.793763   -0.432290    0.679930
 O    4.575333   -1.340344    0.722180
 O    4.071747    0.685362   -0.003971
 H   -3.071017    2.236319    1.155728
 H   -1.466080   -1.818171   -1.253872
 H   -5.150232    1.250901    1.481572
 H   -5.678642    0.177378    0.182609
 H   -5.121178   -0.500516    1.707677
 H   -4.341637   -2.449808    0.542803
 H   -4.904021   -1.759067   -0.973740
 H   -3.514033   -2.848637   -0.965591
 H    2.112245    2.344487   -1.580586
 H    1.778162    3.227714   -0.215331
 H    2.194581    0.058749   -1.666207
 H    0.878391   -0.783851   -2.494339
 H    2.507764   -2.144560   -1.002172
 H    0.789057   -2.511694   -0.919260
 H    1.878030   -2.528576    1.262993
 H    0.524734   -1.398463    1.188879
 H    2.619917   -0.637984    2.433607
 H    1.943226    0.508898    1.276787
 H    3.321301    1.322181   -0.016844
