38 
1y0l_ligand_ani.xyz
 N   -0.506298  116.743673   61.490827
 C    0.112371  117.959253   61.324653
 N    1.051485  118.217170   62.191599
 C    1.870483  116.801153   64.108692
 C    1.710227  115.590261   64.773513
 C    0.737786  114.653999   64.332797
 C   -0.061196  114.941539   63.231806
 C    1.071645  117.093211   63.007968
 C    0.115203  116.158709   62.585399
 C    2.593373  115.306015   65.966927
 C    0.546409  113.337138   65.038587
 N   -0.236521  118.785686   60.266931
 C   -1.507711  116.168498   60.613874
 C   -0.961314  115.801413   59.236456
 C   -2.044137  115.280817   58.296998
 C   -1.475060  114.960968   56.914027
 C   -2.484578  114.440869   55.919595
 O   -2.550676  114.758759   54.757608
 O   -3.319675  113.527299   56.462604
 H    2.615331  117.519371   64.442818
 H   -0.800390  114.217383   62.895178
 H    2.429615  116.043698   66.762044
 H    2.422262  114.317163   66.397171
 H    3.653288  115.366955   65.692489
 H    0.262714  113.475173   66.088577
 H   -0.245492  112.757811   64.554607
 H    1.459003  112.729659   65.022987
 H   -1.233153  118.867007   60.115569
 H    0.204937  119.691895   60.356754
 H   -2.346043  116.869805   60.518329
 H   -1.898462  115.282477   61.120836
 H   -0.176737  115.044271   59.357463
 H   -0.483670  116.688994   58.803929
 H   -2.843722  116.028055   58.198479
 H   -2.510237  114.377120   58.706671
 H   -0.695539  114.191281   57.006092
 H   -1.003948  115.837382   56.460881
 H   -3.906580  113.246049   55.741267
