24 
1y2b_ligand_xtb.xyz
 O   -0.619861   -1.995895   -0.015346
 C   -0.546849   -0.786470   -0.011424
 O   -1.628680    0.010237   -0.015079
 C   -2.890700   -0.650504   -0.027242
 C   -3.982711    0.400094    0.047668
 C    0.700647   -0.036325   -0.002378
 C    0.926126    1.368944   -0.004906
 C   -0.074676    2.462724   -0.015735
 C    1.972952   -0.605369    0.008003
 C    2.393255   -2.023468    0.015316
 N    2.832635    0.426070    0.011018
 N    2.218245    1.617584    0.003215
 H   -2.940122   -1.339907    0.823833
 H   -2.971720   -1.244344   -0.945505
 H   -3.886335    0.976136    0.964112
 H   -3.907782    1.078761   -0.797757
 H   -4.955601   -0.082541    0.031528
 H   -0.702997    2.387093   -0.900824
 H   -0.721372    2.388116    0.856027
 H    0.439166    3.419729   -0.011285
 H    1.971503   -2.529206    0.882045
 H    2.001524   -2.529639   -0.865245
 H    3.477534   -2.108481    0.033654
 H    3.840103    0.386222    0.017383
