38 
1y2d_ligand_ani.xyz
 O   15.293251   46.597593    9.553928
 C   14.376672   46.139290   10.206014
 O   13.132518   45.986231    9.708925
 C   12.948363   46.440687    8.352946
 C   13.513515   45.464992    7.337251
 C   14.494217   45.700673   11.605044
 C   13.492819   45.207358   12.489144
 C   12.033123   44.973283   12.250609
 N   14.013927   44.934115   13.667503
 N   15.327972   45.269758   13.590552
 C   15.670313   45.695854   12.344528
 C   17.057426   46.047404   11.904357
 C   16.138258   45.085314   14.744424
 C   15.879637   43.979223   15.550137
 C   16.656350   43.741009   16.674961
 C   17.687522   44.617200   17.004272
 C   17.923251   45.741513   16.221611
 C   17.149481   45.980338   15.093836
 O   18.517923   44.366844   18.070754
 C   17.926592   44.562474   19.341430
 H   13.408640   47.426755    8.245898
 H   11.865364   46.538249    8.252112
 H   13.086607   44.467658    7.479304
 H   13.269766   45.810201    6.326647
 H   14.600002   45.404557    7.429682
 H   11.878916   44.240404   11.453318
 H   11.578074   44.605183   13.173947
 H   11.536199   45.897010   11.941303
 H   17.236223   47.124789   12.003820
 H   17.821035   45.507512   12.473839
 H   17.167198   45.816630   10.842637
 H   15.059773   43.318864   15.286991
 H   16.476603   42.869642   17.299846
 H   18.723912   46.418065   16.500413
 H   17.331672   46.868038   14.497218
 H   17.040709   43.928585   19.483441
 H   18.681608   44.287743   20.081280
 H   17.640567   45.612962   19.488086
