36 
1y2e_ligand_ani.xyz
 O   15.838998    6.508692    9.219814
 C   14.791194    6.238243    9.770110
 O   13.645658    6.042850    9.089035
 C   13.738350    6.171070    7.657205
 C   12.353828    5.911779    7.106886
 C   14.631224    6.083743   11.222074
 C   15.702853    6.158423   12.152157
 N   15.270301    5.959895   13.378124
 C   17.149348    6.425126   11.883762
 C   13.495239    5.845269   11.988881
 C   12.056355    5.763272   11.577707
 N   13.935526    5.725756   13.272715
 C   13.212578    5.446246   14.464369
 C   13.585618    6.115656   15.626462
 C   12.905725    5.897437   16.812999
 C   12.178343    4.513122   14.518435
 C   11.507256    4.282681   15.710449
 C   11.852106    4.978585   16.872845
 N   11.209881    4.712406   18.081714
 H   14.473136    5.452773    7.281607
 H   14.097497    7.175144    7.412796
 H   11.640843    6.637805    7.508754
 H   12.358409    6.000061    6.015828
 H   12.016026    4.905401    7.370408
 H   17.275286    7.378318   11.362394
 H   17.697412    6.440485   12.829329
 H   17.563809    5.654136   11.227860
 H   11.803271    4.750711   11.241460
 H   11.379419    6.040902   12.391850
 H   11.881243    6.427900   10.728904
 H   14.419126    6.809973   15.583824
 H   13.203074    6.432421   17.712817
 H   11.895185    3.951074   13.634536
 H   10.703368    3.551803   15.741071
 H   11.246031    5.465148   18.754851
 H   10.274485    4.341695   17.989968
