34 
1y2h_ligand_ani.xyz
 O   -0.382289   47.697047  -12.555623
 C   -0.074339   48.287360  -11.540600
 O   -0.985313   48.875806  -10.740839
 C   -2.358244   48.767029  -11.164314
 C   -3.193113   49.485289  -10.127927
 C    1.303072   48.439965  -11.053378
 C    1.806335   49.072437   -9.918808
 C    1.137204   49.773978   -8.776799
 C    2.442025   47.912461  -11.721263
 C    2.488633   47.129403  -12.995396
 N    3.545228   48.192145  -11.062522
 N    3.157815   48.914134   -9.980093
 C    4.138992   49.356306   -9.044837
 C    4.816661   48.439755   -8.233874
Cl    4.470388   46.738853   -8.313281
 C    5.769950   48.882435   -7.320442
 C    6.063779   50.236971   -7.222215
 C    5.403322   51.153306   -8.031739
 C    4.444463   50.713844   -8.934727
 H   -2.622058   47.708451  -11.244943
 H   -2.459981   49.213513  -12.157832
 H   -2.901967   50.537689  -10.061996
 H   -4.253235   49.436309  -10.395887
 H   -3.064595   49.023130   -9.144736
 H    1.424049   49.318982   -7.822326
 H    1.428399   50.830946   -8.740766
 H    0.056613   49.713686   -8.899215
 H    2.064293   47.712943  -13.817072
 H    3.524534   46.864811  -13.224372
 H    1.882370   46.223361  -12.910373
 H    6.277607   48.153470   -6.695014
 H    6.812322   50.573140   -6.510244
 H    5.630185   52.213087   -7.961993
 H    3.927897   51.420959   -9.577556
