36 
1y2j_ligand_ani.xyz
 O   41.156163    1.510647   58.265394
 N   40.087517    2.033647   58.533408
 O   39.256714    2.379209   57.710220
 C   39.778467    2.263220   59.951731
 C   38.571530    2.847784   60.299730
 C   40.729709    1.888894   60.887362
 C   40.457441    2.114303   62.234585
 C   39.235732    2.671298   62.617618
 C   38.308408    3.045778   61.650780
 N   41.376811    1.766801   63.263456
 C   42.737118    1.838053   63.285353
 C   43.563844    2.398277   62.167876
 C   43.121565    1.330272   64.521765
 C   41.907875    1.041193   65.202099
 N   40.870767    1.322068   64.443609
 C   41.723837    0.498361   66.582984
 C   44.456928    1.098829   65.088360
 O   44.665397    0.714702   66.220939
 O   45.450773    1.350935   64.214797
 C   46.787324    1.131065   64.705419
 C   47.728949    1.466659   63.570587
 H   37.865226    3.129429   59.527931
 H   41.644298    1.426976   60.543687
 H   39.033058    2.800745   63.675745
 H   37.364874    3.490609   61.954243
 H   43.024213    3.172490   61.612525
 H   44.484629    2.823479   62.570609
 H   43.854565    1.609741   61.463175
 H   42.214538    1.142008   67.318622
 H   40.656136    0.422929   66.804448
 H   42.190666   -0.486976   66.670445
 H   46.882593    0.089524   65.026504
 H   46.953596    1.766917   65.580018
 H   47.603640    2.509883   63.265639
 H   48.767039    1.322147   63.886318
 H   47.538059    0.823101   62.707018
