36 
1y2j_ligand_xtb.xyz
 O    3.631982   -2.531349   -0.774113
 N    4.299671   -1.588680   -0.405425
 O    5.507774   -1.587172   -0.323305
 C    3.600848   -0.381358   -0.032043
 C    4.317947    0.698806    0.463916
 C    2.222271   -0.336503   -0.192600
 C    1.541115    0.816295    0.174736
 C    2.257763    1.915504    0.655646
 C    3.631437    1.854055    0.796282
 N    0.158280    0.943557    0.036872
 C   -0.826917    0.010472    0.128539
 C   -0.599961   -1.407507    0.495538
 C   -2.017302    0.690740   -0.096496
 C   -1.638985    2.050176   -0.310601
 N   -0.339081    2.173417   -0.214299
 C   -2.523118    3.200665   -0.599843
 C   -3.392106    0.201226   -0.128185
 O   -4.363027    0.904469   -0.283170
 O   -3.474691   -1.132079    0.031985
 C   -4.787297   -1.690968    0.007052
 C   -4.719313   -3.105932    0.550786
 H    5.388303    0.620808    0.571609
 H    1.724817   -1.188041   -0.625939
 H    1.710211    2.811328    0.900953
 H    4.170332    2.709750    1.171135
 H   -0.419406   -2.016650   -0.390346
 H    0.248892   -1.504975    1.169913
 H   -1.492566   -1.794354    0.978568
 H   -3.095388    3.009914   -1.505446
 H   -3.238423    3.330038    0.209996
 H   -1.927257    4.100885   -0.718826
 H   -5.151541   -1.682138   -1.026758
 H   -5.453052   -1.060586    0.607075
 H   -4.028378   -3.701122   -0.040421
 H   -4.378183   -3.098284    1.582917
 H   -5.705052   -3.559605    0.507995
