40 
1y3n_ligand_ani.xyz
 C    1.122599   -0.692302    1.049254
 C    1.719389   -2.088791    0.906114
 O    1.625875   -2.533253   -0.431813
 C    3.209303   -2.068902    1.250852
 O    3.816784   -3.300935    0.961415
 C    3.854078   -0.903572    0.548614
 C    3.133348    0.126707    0.109406
 O    1.796812    0.275638    0.262902
 C    3.761510    1.237273   -0.663046
 O    2.864501    2.130417   -1.100920
 O    4.948548    1.319230   -0.877925
 C   -3.163561    0.105615   -1.054527
 C   -1.788801    0.498009   -1.592788
 O   -1.941083    1.388918   -2.682496
 C   -0.997085    1.246151   -0.527399
 O   -1.656384    2.459822   -0.227589
 C   -0.954477    0.441709    0.774717
 O   -0.200087   -0.752815    0.616017
 C   -2.375945   -0.015421    1.167630
 O   -3.034305   -0.685010    0.111825
 C   -3.231748    1.120516    1.732331
 O   -2.618422    1.685308    2.783542
 O   -4.324676    1.455761    1.347793
 O   -3.788649   -0.641783   -2.056168
 H    1.166953   -0.381504    2.108035
 H    1.202746   -2.782749    1.586781
 H    0.699978   -2.436783   -0.693961
 H    3.323834   -1.931876    2.333832
 H    3.550605   -3.531848    0.058569
 H    4.925156   -0.907324    0.391108
 H    3.375927    2.799191   -1.586728
 H   -3.745953    1.006775   -0.806655
 H   -1.266904   -0.420985   -1.893678
 H   -2.593445    0.993372   -3.277837
 H    0.021066    1.426588   -0.889350
 H   -1.953714    2.809243   -1.081888
 H   -0.540521    1.070728    1.570843
 H   -2.263139   -0.749912    1.972151
 H   -3.202014    2.395229    3.100144
 H   -4.478398   -1.166134   -1.629008
