80 
1y3p_ligand_dft.xyz
 C    4.922477   -0.696469    1.190600
 C    4.576726   -2.119771    1.629244
 O    3.537425   -2.652091    0.847452
 C    5.787977   -3.028915    1.375041
 O    5.425491   -4.380091    1.497098
 C    6.359897   -2.719502    0.012775
 C    6.016215   -1.625418   -0.670419
 O    5.172865   -0.661793   -0.208562
 C    6.537832   -1.367626   -2.040145
 O    6.074665   -0.216681   -2.559416
 O    7.291581   -2.102946   -2.631454
 C    2.047544    0.675398   -0.557417
 C    3.144443    1.477347   -1.243030
 O    2.595848    2.610171   -1.888513
 C    4.194708    1.970963   -0.183997
 O    4.193093    3.375280   -0.102254
 C    3.838830    1.491715    1.239744
 O    3.819118    0.083139    1.461572
 C    2.388800    1.889257    1.530507
 O    1.510097    1.409975    0.546134
 C    2.198086    3.395688    1.672104
 O    1.429846    4.082997    1.034649
 O    2.920666    3.875164    2.685884
 C   -2.665802   -0.478722    0.314658
 C   -1.554002   -1.521573    0.433025
 O   -1.693749   -2.531436   -0.543534
 C   -0.174968   -0.903282    0.229450
 O    0.817421   -1.913952    0.276230
 C   -0.173912   -0.144532   -1.106400
 O    1.026177    0.512111   -1.481160
 C   -1.328425    0.893115   -1.146876
 O   -2.564629    0.276351   -0.881627
 C   -1.042006    2.074776   -0.223094
 O   -1.425585    2.149884    0.921711
 O   -0.289837    2.997431   -0.826613
 C   -6.931909   -0.624427   -1.375200
 C   -5.808524    0.402608   -1.391382
 O   -6.272378    1.617355   -1.949252
 C   -5.383492    0.716134    0.038219
 O   -6.459686    1.291318    0.752455
 C   -5.017302   -0.573799    0.777207
 O   -3.855655   -1.192478    0.237198
 C   -6.129793   -1.621663    0.635475
 O   -6.537343   -1.804316   -0.695873
 C   -7.252465   -1.356441    1.639600
 O   -7.049389   -1.195363    2.817227
 O   -8.480202   -1.402558    1.101655
 O   -7.207413   -0.955288   -2.696048
 H    5.824215   -0.323192    1.706047
 H    4.323462   -2.111883    2.697455
 H    2.697644   -2.181451    0.981748
 H    6.547727   -2.845938    2.144196
 H    4.578302   -4.457488    1.031184
 H    7.044522   -3.427094   -0.439291
 H    6.461498   -0.147983   -3.446900
 H    2.419217   -0.288446   -0.217888
 H    3.641686    0.838738   -1.977317
 H    1.626817    2.558325   -1.828824
 H    5.187301    1.617917   -0.466234
 H    3.570284    3.663566   -0.798682
 H    4.516534    1.976156    1.951944
 H    2.110701    1.449903    2.497348
 H    2.757205    4.831117    2.726304
 H   -2.655228    0.192577    1.181153
 H   -1.604114   -1.954087    1.443016
 H   -2.640097   -2.721130   -0.620492
 H    0.040297   -0.220444    1.051355
 H    0.507490   -2.640876   -0.284609
 H   -0.385010   -0.872423   -1.895691
 H   -1.397853    1.273026   -2.168457
 H    0.153998    3.531553   -0.125146
 H   -7.814739   -0.198815   -0.879779
 H   -4.958834   -0.008420   -1.948769
 H   -6.675283    1.397986   -2.799771
 H   -4.522856    1.395621    0.018583
 H   -6.835077    1.959529    0.160369
 H   -4.868093   -0.353459    1.840514
 H   -5.698805   -2.581073    0.940078
 H   -9.095636   -1.238521    1.834680
 H   -7.990278   -1.519925   -2.705933
