66 
1y3x_ligand_dft.xyz
 N   -4.957605   -3.281779   -0.029943
 C   -4.286592   -2.208967   -0.204011
 N   -4.937837   -0.995912   -0.308795
 C   -2.791618   -2.121585   -0.264404
 C   -2.107434   -1.047460    0.309169
 C   -0.722672   -0.972138    0.237989
 C    0.005388   -1.992854   -0.380066
 C    1.512981   -1.997092   -0.399615
 C    2.294392   -0.948656   -1.236472
 C    3.324287   -0.308780   -0.288783
 C    3.483599   -1.284688    0.892850
 C    4.418991   -2.432365    0.509760
 C    3.923517   -0.666387    2.215876
 N    2.047160   -1.803349    1.016069
 C    1.807679   -2.982747    1.889453
 C    2.746699    1.096748    0.027254
 N    1.861130    1.345043   -1.100127
 C    1.113074    2.589593   -1.260003
 C   -0.136139    2.604527   -0.410452
 C   -0.056858    2.906737    0.949051
 C   -1.177993    2.834311    1.790525
 C   -2.368378    2.476570    1.199070
 C   -2.459183    2.203434   -0.162972
 C   -1.363622    2.236156   -0.991708
 O   -3.740077    1.833141   -0.461448
 C   -4.501517    2.151102    0.707125
 O   -3.579987    2.270252    1.785549
 C    1.466043    0.221813   -1.764502
 O    0.620583    0.154290   -2.630917
 C    3.813486    2.183563    0.213790
 C    4.614623    2.519344   -1.043059
 C   -0.676911   -3.069965   -0.944374
 C   -2.063511   -3.126305   -0.901842
 H   -4.344184   -4.076622    0.140372
 H   -5.938308   -1.098535   -0.425826
 H   -4.515811   -0.289605   -0.898791
 H   -2.668152   -0.268904    0.812933
 H   -0.235774   -0.087046    0.650335
 H    1.850403   -2.995088   -0.687511
 H    2.743345   -1.454482   -2.092852
 H    4.291656   -0.190027   -0.780866
 H    5.419873   -2.018936    0.361547
 H    4.129208   -2.925253   -0.422740
 H    4.493979   -3.183352    1.300594
 H    4.902345   -0.199382    2.080250
 H    4.036172   -1.425485    2.995233
 H    3.234679    0.103568    2.576723
 H    1.504694   -1.032235    1.419143
 H    2.300626   -3.853082    1.458069
 H    0.731722   -3.154347    1.934929
 H    2.196469   -2.782361    2.887527
 H    2.141397    1.068521    0.952025
 H    0.863582    2.671733   -2.319797
 H    1.773176    3.423495   -1.008016
 H    0.891874    3.230814    1.370339
 H   -1.119118    3.062221    2.848474
 H   -1.431249    1.965491   -2.039131
 H   -5.194143    1.335790    0.913605
 H   -5.014201    3.108589    0.553771
 H    3.327989    3.091480    0.589891
 H    4.487522    1.860515    1.015505
 H    3.964837    2.857920   -1.855169
 H    5.187521    1.663489   -1.415036
 H    5.329819    3.317373   -0.828144
 H   -0.124847   -3.866217   -1.436821
 H   -2.585187   -3.952978   -1.374348
