13 
1y4z_ligand_xtb.xyz
 O    0.031407    2.953919   -0.002629
 C    0.029085    1.616938   -0.000870
 C   -1.190383    0.931311    0.000570
Cl   -2.642729    1.838487    0.002837
 C   -1.221254   -0.460768   -0.000115
Cl   -2.722837   -1.278031   -0.000930
 C   -0.032179   -1.189577   -0.000312
Cl   -0.072895   -2.902764   -0.002236
 C    1.189766   -0.519475    0.000768
Cl    2.656728   -1.404840    0.003612
 C    1.211265    0.870748   -0.000404
Cl    2.715897    1.723673   -0.001637
 H    0.950126    3.272652   -0.004765
