52 
1y6a_ligand_dft.xyz
 O   -1.610809   -4.259318    0.117966
 S   -0.994379   -2.932933    0.103786
 O    0.032341   -2.601399   -0.884297
 C   -0.303412   -2.656582    1.747722
 C    0.372374   -1.304370    1.926327
 C   -2.302891   -1.728073   -0.029865
 C   -3.606288   -2.120965    0.218822
 C   -4.625055   -1.172352    0.136076
 C   -4.320512    0.148926   -0.162115
 O   -5.227719    1.153323   -0.254213
 C   -6.593952    0.847637   -0.061178
 C   -2.983014    0.547644   -0.398886
 C   -1.979355   -0.411228   -0.362661
 N   -2.783039    1.899120   -0.689084
 C   -1.663738    2.651551   -0.471294
 N   -1.618792    3.949392   -0.457126
 C   -0.282430    4.216827   -0.208582
 C    0.417789    3.064179   -0.077511
 O   -0.493302    2.035203   -0.258517
 C    1.803533    2.698290    0.176355
 C    2.699806    3.636195    0.704469
 C    4.021273    3.278564    0.933007
 C    4.465895    1.990985    0.646438
 C    3.584598    1.045375    0.116631
 C    2.256530    1.410258   -0.111387
 C    4.010501   -0.339482   -0.224988
 C    5.338856   -0.667729   -0.511940
 C    5.649329   -1.980920   -0.842779
 C    4.630395   -2.925002   -0.896106
 C    3.334104   -2.504899   -0.612164
 N    3.032283   -1.252603   -0.277702
 H    0.407863   -3.482028    1.860012
 H   -1.128153   -2.821449    2.447468
 H    1.162185   -1.162757    1.181589
 H   -0.344671   -0.481854    1.848618
 H    0.824430   -1.260575    2.921993
 H   -3.826044   -3.156493    0.453010
 H   -5.650092   -1.474865    0.314203
 H   -6.944435    0.119415   -0.801941
 H   -6.773465    0.461129    0.949033
 H   -7.131781    1.786603   -0.191132
 H   -0.955901   -0.151123   -0.595589
 H   -3.625571    2.454456   -0.746503
 H    0.083540    5.231675   -0.150971
 H    2.356556    4.636500    0.951923
 H    4.709280    4.004699    1.355220
 H    5.495420    1.722457    0.863010
 H    1.583001    0.670342   -0.528638
 H    6.112390    0.092652   -0.503174
 H    6.674225   -2.258426   -1.071143
 H    4.828317   -3.958024   -1.161378
 H    2.489699   -3.188200   -0.662642
