58 
1y6b_ligand_xtb.xyz
 O    2.007497    2.175555   -1.362704
 S    3.297811    2.201872   -0.728869
 O    4.352708    2.959718   -1.332823
 N    3.185976    2.729529    0.853398
 C    1.939809    2.516146    1.566022
 C    1.045536    3.733517    1.613026
 C   -0.444751    3.556646    1.603454
 C    0.248840    4.115711    0.400968
 C    3.812225    0.518392   -0.451517
 C    5.130650    0.201091   -0.221733
 C    5.470262   -1.120110    0.044677
 C    2.820793   -0.441975   -0.411520
 C    3.136053   -1.759636   -0.117202
 C    4.492064   -2.100808    0.104374
 O    4.720009   -3.420701    0.367739
 C    6.048086   -3.852479    0.557589
 N    2.196434   -2.770855   -0.028861
 C    0.844678   -2.667830   -0.033266
 O    0.225334   -1.489925   -0.187914
 C   -1.117666   -1.784449   -0.127158
 C   -1.212475   -3.134755    0.063400
 N    0.036991   -3.680073    0.120789
 C   -2.078797   -0.714760   -0.264969
 C   -3.440241   -0.967868   -0.103721
 C   -4.373433    0.052069   -0.236988
 C   -3.933255    1.343136   -0.528406
 C   -2.583713    1.600078   -0.687479
 C   -1.656178    0.583365   -0.561248
 C   -5.805793   -0.229452   -0.078307
 C   -6.755143    0.347848   -0.923986
 N   -8.052774    0.135121   -0.827367
 C   -8.487450   -0.675484    0.122386
 C   -7.641318   -1.315842    1.015470
 C   -6.280680   -1.086664    0.912832
 H    3.583010    3.648315    0.967149
 H    2.183235    2.187558    2.584754
 H    1.431751    1.699923    1.051408
 H    1.446142    4.538126    2.220019
 H   -1.041707    4.221119    2.210044
 H   -0.836346    2.552265    1.549010
 H    0.354607    3.494378   -0.474474
 H    0.128306    5.165975    0.181480
 H    5.879099    0.974064   -0.266739
 H    6.505109   -1.370902    0.211882
 H    1.813992   -0.142326   -0.636099
 H    6.661172   -3.660517   -0.327566
 H    6.503400   -3.375239    1.430190
 H    5.983751   -4.926118    0.726600
 H    2.552544   -3.700306    0.144364
 H   -2.079070   -3.754381    0.158524
 H   -3.770108   -1.973654    0.106385
 H   -4.650807    2.145444   -0.612615
 H   -2.248843    2.601405   -0.912155
 H   -0.606428    0.790445   -0.704636
 H   -6.448783    1.001799   -1.730383
 H   -9.559671   -0.814147    0.164862
 H   -8.037815   -1.971520    1.775537
 H   -5.590906   -1.550212    1.604089
