28 
1yci_ligand_dft.xyz
 C    2.781697   -0.150271   -0.296067
 C    3.474933   -1.154245    0.373705
 C    2.913681   -2.420928    0.510409
 C    1.658320   -2.680263   -0.032382
 C    0.968416   -1.675323   -0.702809
 C    1.518260   -0.398359   -0.839963
 C    0.734294    0.700352   -1.512264
 C   -0.148699    1.492334   -0.515261
 C    0.731989    2.281387    0.437205
 O    1.562319    3.074485    0.068215
 O    0.514169    1.995084    1.730865
 N   -1.086742    0.650688    0.191037
 C   -2.200851    0.194257   -0.415049
 O   -2.556914    0.464024   -1.546291
 C   -2.996877   -0.738355    0.514118
 O   -4.121720   -1.164426   -0.049852
 O   -2.623791   -1.045096    1.622269
 H    3.224729    0.836766   -0.402976
 H    4.457925   -0.947573    0.786833
 H    3.455217   -3.204722    1.031638
 H    1.215395   -3.667056    0.064473
 H   -0.006614   -1.884077   -1.136223
 H    1.399221    1.416255   -2.003930
 H    0.061223    0.290519   -2.270685
 H   -0.724421    2.222896   -1.094142
 H    1.144249    2.526086    2.244193
 H   -0.866701    0.303933    1.115253
 H   -4.556497   -1.743943    0.596814
