28 
1yci_ligand_ani.xyz
 C   -2.297837   -0.740681    0.088829
 C   -3.225446   -0.538303   -0.927689
 C   -2.841516   -0.664725   -2.259979
 C   -1.527467   -0.996957   -2.570918
 C   -0.602521   -1.203861   -1.550489
 C   -0.974173   -1.075653   -0.210718
 C    0.037374   -1.280962    0.894638
 C    0.683716    0.028288    1.403446
 C   -0.355166    0.877669    2.111845
 O   -1.040167    0.470986    3.020248
 O   -0.463569    2.126144    1.626751
 N    1.388475    0.753824    0.374910
 C    2.664815    0.428915    0.066030
 O    3.326154   -0.432087    0.615048
 C    3.186737    1.307623   -1.085791
 O    4.449956    1.047205   -1.395913
 O    2.501165    2.140544   -1.633429
 H   -2.596497   -0.633517    1.130471
 H   -4.251978   -0.281681   -0.679426
 H   -3.567143   -0.504856   -3.054086
 H   -1.220104   -1.098998   -3.609122
 H    0.424045   -1.467706   -1.798666
 H   -0.432350   -1.770740    1.754880
 H    0.853724   -1.925691    0.553156
 H    1.424220   -0.254556    2.160583
 H   -1.158397    2.557851    2.151158
 H    0.928807    1.486258   -0.149321
 H    4.685244    1.645665   -2.126046
