19 
1yda_ligand_ani.xyz
 C   34.783201   16.995456  -17.758264
 C   34.176055   16.205563  -19.877052
 C   32.784426   14.584225  -21.096164
 C   32.451369   14.136094  -22.500725
 N   36.566473   18.041978  -16.094350
 N   35.044301   17.173036  -19.941444
 N   35.388853   17.626231  -18.706375
 N   33.704719   15.615835  -21.034645
 O   35.015789   16.277545  -15.256679
 O   34.084405   18.569886  -15.804241
 O   32.306602   14.104618  -20.089031
 S   35.009624   17.483262  -16.058447
 S   33.692214   15.750038  -18.270909
 H   31.723109   13.328018  -22.444765
 H   32.031183   14.962947  -23.082095
 H   33.348629   13.779971  -23.016803
 H   37.077099   17.746463  -15.268820
 H   36.620233   19.041281  -16.267936
 H   34.092716   16.003554  -21.884253
