19 
1ydb_ligand_ani.xyz
 C   34.773543   17.009088  -17.759793
 C   34.164804   16.217077  -19.877396
 C   32.774537   14.593099  -21.094777
 C   32.456342   14.129017  -22.497737
 N   36.583103   18.004490  -16.093731
 N   35.043641   17.174893  -19.942723
 N   35.389692   17.628741  -18.708449
 N   33.694880   15.624731  -21.034272
 O   34.973052   16.294846  -15.254251
 O   34.118763   18.614010  -15.815073
 O   32.282063   14.127330  -20.088206
 S   35.008852   17.496636  -16.061118
 S   33.668114   15.775999  -18.271135
 H   31.792914   13.267177  -22.436873
 H   31.960566   14.925257  -23.062121
 H   33.368018   13.849169  -23.035019
 H   37.083279   17.692368  -15.267950
 H   36.669986   19.001149  -16.268802
 H   34.094851   16.000922  -21.883576
