17 
1ykp_ligand_ani.xyz
 C   56.035877   43.563634   50.891968
 C   55.067598   44.549805   50.683703
 C   54.631009   44.830662   49.401364
 O   53.691338   45.783941   49.193725
 C   55.173582   44.117139   48.318643
 O   54.676100   44.473206   47.094773
 C   56.134088   43.139269   48.525733
 C   56.569955   42.857174   49.816724
 C   56.460395   43.313104   52.291149
 O   56.050714   43.915209   53.257414
 O   57.371320   42.324437   52.401861
 H   54.661384   45.092579   51.531440
 H   53.523665   45.831431   48.241110
 H   55.101353   43.948841   46.405304
 H   56.545569   42.593877   47.678460
 H   57.320263   42.093846   49.990582
 H   57.564791   42.257845   53.351046
