44 
1ykr_ligand_ani.xyz
 C   -1.464664   31.114086    9.510207
 C   -0.536160   30.136080    9.293418
 N    0.537559   30.406419    8.496543
 C    0.736936   31.636469    7.875166
 C   -0.228667   32.655730    8.095672
 C   -1.301958   32.392961    8.891473
 C    1.597401   29.605322    8.128078
 C    2.377089   30.396464    7.307158
 N    1.844110   31.636192    7.144578
 S    6.835156   25.157245    7.024395
 C    5.867180   26.635542    6.918539
 C    5.785039   27.320294    5.709255
 C    5.013175   28.469793    5.633122
 C    4.311808   28.929823    6.753252
 C    4.423749   28.246848    7.968749
 C    5.204967   27.102098    8.049393
 C   -2.682791   30.889397   10.348190
 C   -2.724460   29.655556   11.216295
 C   -1.975663   29.551511   12.395323
 C   -2.015684   28.416743   13.195387
 C   -2.817790   27.349377   12.815517
 C   -3.577241   27.415188   11.655487
 C   -3.529550   28.564557   10.875938
 O   -3.603890   31.675373   10.325278
 O    7.826729   25.199835    5.961352
 N    3.545944   30.090829    6.635531
Cl   -0.958871   30.869848   12.894332
Cl   -4.485729   28.612808    9.427119
 N    5.751307   23.945521    6.632212
 O    7.198311   24.965329    8.419533
 H   -0.582110   29.132924    9.699791
 H   -0.079880   33.615125    7.615618
 H   -2.056961   33.154095    9.068388
 H    1.645719   28.570024    8.417547
 H    6.333324   26.960234    4.843794
 H    4.939677   29.018716    4.698026
 H    3.926466   28.630421    8.854066
 H    5.309926   26.574102    8.992010
 H   -1.421383   28.376579   14.102238
 H   -2.852611   26.456600   13.432237
 H   -4.207705   26.586441   11.350054
 H    3.789858   30.764449    5.925113
 H    5.641075   23.309602    7.415125
 H    6.051250   23.468459    5.788485
