48 
1you_ligand_dft.xyz
 F    6.966862    2.572285   -0.557290
 C    6.141550    1.558966   -0.249280
 C    6.582644    0.255411   -0.414589
 C    5.720781   -0.790967   -0.101903
 C    4.870409    1.847166    0.226402
 C    4.016842    0.798810    0.548717
 C    4.444824   -0.516977    0.378184
 O    3.658118   -1.586020    0.742243
 C    2.354625   -1.631949    0.315819
 C    1.950426   -1.145330   -0.926561
 C    0.619846   -1.265156   -1.310247
 C    1.441895   -2.256939    1.161346
 C    0.113981   -2.382714    0.773094
 C   -0.296731   -1.869404   -0.454520
 O   -1.618461   -2.013166   -0.850837
 C   -2.501496   -0.960314   -0.493884
 C   -3.870009   -1.366268   -1.055645
 C   -5.008163   -0.527012   -0.492781
 O   -4.587055    0.818371   -0.479223
 C   -5.502977    1.700011    0.135478
 C   -4.909493    3.095061    0.123171
 C   -2.028258    0.335189   -1.186738
 O   -1.966340    0.427400   -2.389922
 N   -1.599580    1.365362   -0.371556
 C   -1.720152    1.458762    1.000273
 O   -1.439872    2.461434    1.617340
 N   -2.178230    0.309129    1.625812
 C   -2.588061   -0.869811    1.040613
 O   -2.994376   -1.792820    1.711069
 H    7.583270    0.069369   -0.788322
 H    6.028682   -1.823946   -0.221534
 H    4.564034    2.880025    0.348959
 H    3.020952    0.998895    0.930249
 H    2.671119   -0.679918   -1.590373
 H    0.285352   -0.899537   -2.274778
 H    1.786812   -2.643152    2.114393
 H   -0.610331   -2.873472    1.413895
 H   -4.021804   -2.417044   -0.797272
 H   -3.804595   -1.275712   -2.142405
 H   -5.253511   -0.853759    0.529568
 H   -5.912263   -0.648662   -1.107735
 H   -5.702657    1.368842    1.167440
 H   -6.459982    1.678915   -0.408789
 H   -3.986309    3.135128    0.709109
 H   -4.685867    3.401411   -0.902871
 H   -5.617725    3.810190    0.552530
 H   -1.304150    2.213888   -0.837505
 H   -2.249118    0.365740    2.634201
