58 
1yp9_ligand_ani.xyz
 N   -6.088194    2.830084   -1.613607
 C   -4.814719    2.912456   -1.570558
 N   -4.193741    4.117432   -1.861030
 C   -3.884392    1.811116   -1.169816
 C   -4.149317    0.492386   -1.536798
 C   -3.284158   -0.526280   -1.161372
 C   -2.148021   -0.269661   -0.390793
 C   -1.261638   -1.450268   -0.028014
 C   -0.391494   -2.034613   -1.165456
 C    0.286220   -1.006912   -2.082940
 O   -0.246988   -0.060307   -2.627058
 N    1.620044   -1.323245   -2.182373
 C    2.592984   -0.259097   -2.390777
 C    2.912724    0.485674   -1.100086
 C    4.191612    0.456275   -0.543903
 C    4.477937    1.051700    0.697034
 C    3.433827    1.657073    1.353718
 O    3.408408    2.221024    2.606900
 C    2.118762    2.807948    2.720380
 O    1.286548    2.228144    1.716707
 C    2.157405    1.695654    0.804452
 C    1.875983    1.151827   -0.424031
 C    1.965459   -2.541078   -1.463520
 C    0.788798   -2.753787   -0.494197
 C    0.989966   -2.035639    0.846412
 C    1.140842   -2.889739    2.101950
 C    0.518116   -2.013351    3.190656
 C   -0.727641   -1.444886    2.505983
 N   -0.285265   -1.198350    1.096366
 C   -1.888129    1.056743   -0.025728
 C   -2.741567    2.080587   -0.411717
 H   -6.396911    1.900176   -1.332947
 H   -3.297594    4.047464   -2.323159
 H   -4.822379    4.781481   -2.294360
 H   -5.027237    0.265444   -2.140157
 H   -3.504119   -1.547288   -1.471852
 H   -1.920511   -2.261343    0.304257
 H   -0.987996   -2.693172   -1.803807
 H    3.503179   -0.688924   -2.820343
 H    2.150528    0.415496   -3.130505
 H    4.993949   -0.049371   -1.078692
 H    5.473774    1.020408    1.128502
 H    2.194305    3.894312    2.556979
 H    1.700714    2.588524    3.705916
 H    0.875278    1.204203   -0.846406
 H    2.926781   -2.416053   -0.952847
 H    2.064537   -3.385598   -2.159080
 H    0.582088   -3.814413   -0.325199
 H    1.812738   -1.318916    0.782451
 H    2.185775   -3.148749    2.292246
 H    0.567060   -3.819147    1.998098
 H    1.196278   -1.194591    3.462282
 H    0.272187   -2.566711    4.100470
 H   -1.538328   -2.181114    2.509122
 H   -1.096775   -0.523291    2.965417
 H   -0.022725   -0.187343    1.032442
 H   -1.005246    1.322149    0.558381
 H   -2.539823    3.106955   -0.114193
