65 
1ypg_ligand_dft.xyz
 N   -7.102666   -0.893905    0.196242
 C   -6.214844   -0.362968   -0.552293
 C   -4.783501   -0.503420   -0.141338
 C   -4.412562   -1.593426    0.649153
 C   -3.100238   -1.738358    1.068240
 C   -2.128117   -0.804343    0.702158
 C   -0.723882   -1.035342    1.199235
 N    0.113453    0.213608    1.234593
 C   -0.271251    1.253352    2.259839
 C    0.987308    1.436829    3.115583
 C    1.713014    0.092570    2.994245
 C    1.536834   -0.248321    1.520046
 C    1.608998   -1.721642    1.060661
 C    3.149884   -3.283360   -0.256979
 C    2.575975   -1.894525   -0.127462
 C    4.396970   -3.632537    0.511123
 C    4.453299   -3.479494   -0.983438
 N    1.735762   -1.528538   -1.266624
 C    0.398789   -1.617904   -1.015380
 O   -0.493568   -1.337042   -1.792823
 C    0.214350   -2.002768    0.463315
 C    2.225134   -0.678536   -2.352374
 C    2.275917    0.742424   -1.824293
 C    1.053118    1.437072   -1.661787
 C    1.087320    2.603689   -0.934373
 O    0.040215    3.396171   -0.551841
 C    0.655328    4.578161   -0.029607
 O    1.985138    4.227013    0.337614
 C    2.267965    3.107984   -0.388989
 C    3.475943    2.479847   -0.581939
 C    3.455000    1.276331   -1.312255
 C   -2.499432    0.290084   -0.074924
 C   -3.817691    0.439207   -0.491484
 N   -6.421677    0.398898   -1.691828
 H   -8.044095   -0.760149   -0.176598
 H   -5.174869   -2.307623    0.939520
 H   -2.828483   -2.588973    1.689405
 H   -0.774747   -1.367910    2.242966
 H    0.105171    0.633174    0.298042
 H   -0.591457    2.152135    1.733048
 H   -1.117679    0.858505    2.824277
 H    0.736198    1.696270    4.145623
 H    1.606461    2.240975    2.704421
 H    1.246292   -0.669168    3.630071
 H    2.769316    0.151921    3.264036
 H    2.184002    0.393526    0.916109
 H    1.870789   -2.377215    1.894353
 H    2.404492   -4.067677   -0.374319
 H    3.402677   -1.176930   -0.047605
 H    4.477915   -4.628811    0.932196
 H    4.858551   -2.855659    1.115778
 H    4.569434   -4.370689   -1.590251
 H    4.954038   -2.600808   -1.381854
 H   -0.131313   -3.033711    0.567630
 H    3.207089   -1.035378   -2.670451
 H    1.531349   -0.780841   -3.188883
 H    0.132328    1.050159   -2.088062
 H    0.109665    4.910927    0.852478
 H    0.677578    5.348626   -0.809138
 H    4.396012    2.887399   -0.179317
 H    4.390413    0.746036   -1.467663
 H   -1.784653    1.053688   -0.371240
 H   -4.097194    1.314495   -1.069082
 H   -7.366092    0.399893   -2.053296
 H   -5.725348    0.320594   -2.420579
