66 
1ypj_ligand_xtb.xyz
 N   -4.671204   -3.533630   -0.256515
 C   -4.062587   -2.425121   -0.368796
 N   -4.783651   -1.271939   -0.412418
 C   -2.579366   -2.263108   -0.354847
 C   -1.979651   -1.221262    0.344635
 C   -0.603646   -1.114971    0.406318
 C    0.204077   -2.066060   -0.209125
 C    1.708869   -2.006758   -0.129710
 C    2.384489   -0.990987   -1.077476
 C    3.350821   -0.164343   -0.218998
 C    3.520131   -0.957341    1.092212
 C    4.596633   -2.023386    0.905621
 C    3.836843   -0.124399    2.327438
 N    2.157477   -1.594831    1.236873
 C    2.011616   -2.669729    2.224407
 C    2.715077    1.245106   -0.128288
 N    1.664593    1.225809   -1.126390
 C    0.836739    2.380299   -1.433880
 C   -0.356828    2.466031   -0.516116
 C   -0.234963    3.014997    0.751744
 C   -1.314664    3.091199    1.629962
 C   -2.519800    2.609866    1.179453
 C   -2.648545    2.057444   -0.098540
 C   -1.583741    1.959677   -0.957279
 O   -3.941858    1.652804   -0.285157
 C   -4.640558    2.025659    0.889728
 O   -3.721135    2.560438    1.819547
 C    1.397129    0.025133   -1.668980
 O    0.540480   -0.223323   -2.479653
 C    3.740869    2.364649   -0.368833
 C    4.314249    2.385051   -1.781467
 C   -0.394112   -3.101222   -0.917527
 C   -1.769270   -3.194907   -0.995654
 H   -4.078930   -4.348394   -0.147121
 H   -5.775016   -1.403982   -0.535443
 H   -4.382677   -0.446357   -0.827253
 H   -2.593633   -0.499055    0.857334
 H   -0.184334   -0.262188    0.930501
 H    2.107428   -3.007835   -0.318295
 H    2.866755   -1.514061   -1.903213
 H    4.321060   -0.071118   -0.704630
 H    5.552103   -1.530914    0.745522
 H    4.401048   -2.653993    0.043314
 H    4.701904   -2.647198    1.788695
 H    4.693443    0.511760    2.124203
 H    4.098615   -0.762377    3.167941
 H    3.009394    0.514211    2.627431
 H    1.520009   -0.838710    1.517946
 H    2.607527   -3.531800    1.934586
 H    0.965656   -2.970516    2.270296
 H    2.323794   -2.326925    3.208330
 H    2.255685    1.418919    0.856453
 H    0.496131    2.251388   -2.463461
 H    1.442517    3.283501   -1.364662
 H    0.714976    3.420505    1.068083
 H   -1.219094    3.524514    2.610884
 H   -1.684729    1.517146   -1.933722
 H   -5.131259    1.140870    1.320537
 H   -5.399837    2.783604    0.642203
 H    3.265041    3.324598   -0.164107
 H    4.547756    2.248745    0.356950
 H    3.521380    2.417225   -2.523515
 H    4.932933    1.514284   -1.982829
 H    4.935708    3.266774   -1.907902
 H    0.221075   -3.833066   -1.418867
 H   -2.221708   -3.995861   -1.560954
