63 
1yqj_ligand_xtb.xyz
 C    1.362842   -2.004710   -0.689324
 N    1.298532   -0.723490   -1.031742
 N    0.203108   -0.030095   -0.974889
 C   -0.918684   -0.581587   -0.536916
 C   -0.929042   -1.919879   -0.047605
 C   -2.096855   -2.508287    0.616274
 C   -2.781892   -1.810695    1.610810
 C   -3.856196   -2.432669    2.226713
 N   -4.269857   -3.647159    1.914634
 C   -3.619895   -4.310942    0.976899
 C   -2.522849   -3.797414    0.302075
 C    0.246804   -2.645991   -0.156353
 C    3.488772   -0.122147    1.324619
 C    5.138901    1.745755    1.662966
 C    5.541954    3.058744    1.492867
 C    4.725164    3.955013    0.823454
 C    3.503119    3.535136    0.325899
 C    3.100297    2.221000    0.492914
 C    3.914003    1.316549    1.167359
 C   -2.103725    0.270672   -0.583431
 C   -1.984763    1.613898   -0.300370
 C   -3.102958    2.464362   -0.333690
 C   -4.368607    1.923613   -0.688891
 C   -4.457161    0.550920   -1.008148
 C   -3.361296   -0.258301   -0.954988
 C   -3.005573    3.839405   -0.029009
 C   -4.111892    4.640237   -0.074564
 C   -5.362676    4.104743   -0.422357
 C   -5.489514    2.776368   -0.723392
 C    4.105963   -0.999368    0.228172
 C    3.545056   -2.449856    0.220202
 N    2.600094   -2.666712   -0.855729
 C    3.224699   -2.493151   -2.159146
 C    4.197391   -1.292515   -2.192881
 N    3.812928   -0.393856   -1.095653
 H   -2.475854   -0.818545    1.903951
 H   -4.414102   -1.931209    3.005260
 H   -3.993299   -5.301582    0.757318
 H   -2.030783   -4.370335   -0.469271
 H    0.317728   -3.665031    0.189402
 H    3.815898   -0.502727    2.292896
 H    2.400289   -0.189983    1.285378
 H    5.772631    1.052332    2.196676
 H    6.491195    3.383472    1.889404
 H    5.036967    4.979818    0.697233
 H    2.859573    4.231232   -0.189584
 H    2.138524    1.903185    0.113610
 H   -1.021627    2.018608   -0.026002
 H   -5.414447    0.147602   -1.302805
 H   -3.441895   -1.299241   -1.230188
 H   -2.040898    4.245556    0.238531
 H   -4.033197    5.691465    0.157880
 H   -6.225108    4.753153   -0.450576
 H   -6.449728    2.362000   -0.992554
 H    5.193588   -1.024503    0.360803
 H    3.055131   -2.666689    1.170510
 H    4.354672   -3.170525    0.087118
 H    2.435929   -2.371822   -2.902078
 H    3.764297   -3.415446   -2.390403
 H    5.230845   -1.620028   -2.055608
 H    4.123982   -0.764101   -3.143164
 H    4.252747    0.525836   -1.154338
 H    2.654970   -0.286714   -1.156698
