60 
1ysi_ligand_ani.xyz
 C    4.559766  -10.874395   -2.461506
 C    4.270111  -11.221850   -3.771962
 C    4.976895  -10.698293   -4.843576
 C    6.009923   -9.806876   -4.585178
 C    6.328084   -9.422490   -3.278469
 C    5.584058   -9.966634   -2.226555
 F    3.274786  -12.091732   -4.010582
 C    7.424315   -8.459418   -3.013535
 C    8.654951   -8.575693   -3.668654
 C    9.679954   -7.678657   -3.416059
 C    9.502124   -6.638271   -2.502093
 C    8.267363   -6.499384   -1.860903
 C    7.248920   -7.406908   -2.108200
 C   10.646335   -5.698534   -2.299333
 O   11.550691   -5.580828   -3.101278
 N   10.582521   -4.957377   -1.127695
 S   11.843219   -4.010404   -0.557708
 C   11.854300   -2.641003   -1.680331
 C   10.904302   -1.644215   -1.541794
 C   10.941346   -0.545944   -2.387583
 C   11.920450   -0.420352   -3.409257
 C   12.883001   -1.444029   -3.489805
 C   12.848889   -2.544720   -2.647637
 O   13.106754   -4.704041   -0.715409
 O   11.366001   -3.564914    0.740756
 N    9.915779    0.478051   -2.141084
 O    9.197424    0.335441   -1.168538
 O    9.806513    1.426832   -2.914237
 N   11.950229    0.639026   -4.267223
 C   12.837279    0.777521   -5.393386
 C   12.566100   -0.143950   -6.591716
 S   10.863204   -0.113976   -7.225413
 C   10.057808   -1.178860   -6.049034
 C    8.952547   -0.708468   -5.339798
 C    8.334205   -1.520244   -4.394309
 C    8.819670   -2.798047   -4.135125
 C    9.909050   -3.275569   -4.857323
 C   10.516859   -2.474291   -5.817165
 H    3.982652  -11.305436   -1.650035
 H    4.720164  -10.995829   -5.854972
 H    6.569053   -9.382049   -5.415499
 H    5.827633   -9.687610   -1.204113
 H    8.810578   -9.390458   -4.372092
 H   10.631966   -7.760789   -3.931449
 H    8.071527   -5.672478   -1.181938
 H    6.293641   -7.289593   -1.602030
 H    9.927790   -5.204806   -0.396134
 H   10.142006   -1.689092   -0.774397
 H   13.674748   -1.377978   -4.228571
 H   13.592093   -3.332802   -2.726631
 H   11.115227    1.201947   -4.277099
 H   13.874980    0.628610   -5.063915
 H   12.750314    1.818716   -5.718760
 H   12.828853   -1.177266   -6.345888
 H   13.200811    0.162682   -7.428997
 H    8.593473    0.305197   -5.512437
 H    7.474118   -1.138792   -3.845813
 H    8.344370   -3.417626   -3.375605
 H   10.300051   -4.272772   -4.669777
 H   11.351233   -2.860266   -6.400140
