48 
1yvx_ligand_ani.xyz
 N   27.802018   61.935945    6.283164
 C   28.295940   63.334067    6.289290
 C   27.179319   64.314506    5.941870
 C   29.526973   63.499805    5.410447
 C   27.207344   61.519436    7.468178
 O   27.178295   62.268522    8.434717
 C   26.605827   60.147206    7.588795
 C   26.703227   59.534094    8.838879
 C   26.179223   58.268318    9.052848
 C   25.505775   57.593924    8.030729
 C   25.366220   58.234012    6.798723
 C   25.908540   59.493782    6.573470
 C   24.933303   56.218865    8.261317
 C   28.138765   61.046817    5.230759
 C   28.966980   59.949985    5.371694
 S   29.098749   59.052108    3.892500
 C   28.066420   60.162516    3.060948
 C   27.651675   61.166685    3.899198
 C   29.735372   59.591934    6.579172
 O   30.332546   58.386475    6.483360
 O   29.841833   60.289926    7.565738
 C   27.694027   60.009642    1.642378
 C   28.597914   59.542783    0.680039
 C   28.208469   59.421198   -0.648757
 C   26.913780   59.757906   -1.036055
 C   26.007825   60.221885   -0.087341
 C   26.398800   60.351987    1.240812
 H   28.581514   63.516043    7.328719
 H   26.348205   64.213837    6.645399
 H   27.557130   65.341142    6.004244
 H   26.800429   64.153963    4.925679
 H   29.282826   63.368665    4.349989
 H   29.948885   64.501266    5.543929
 H   30.288155   62.761924    5.683702
 H   27.195430   60.072332    9.645098
 H   26.283080   57.797670   10.028624
 H   24.830888   57.734397    5.994521
 H   25.777180   59.967664    5.603920
 H   24.197708   56.227503    9.073931
 H   24.436285   55.838375    7.364684
 H   25.716768   55.504428    8.539083
 H   27.023335   61.989826    3.572497
 H   30.789825   58.255230    7.331383
 H   29.612639   59.287869    0.973854
 H   28.921305   59.060639   -1.385487
 H   26.612615   59.658790   -2.075694
 H   24.995879   60.487923   -0.381473
 H   25.688772   60.710194    1.983519
