49 
1yw2_ligand_dft.xyz
 C   -0.667002    0.484390    0.429076
 N    0.166624    1.482550    0.865004
 O   -0.603692    2.609578    1.135164
 C   -1.944362    2.264953    1.001746
 C   -1.969421    0.874491    0.572342
 C    1.516895    1.808881    0.471983
 O    1.735484    1.974490   -0.902662
 C    1.144466    3.119390   -1.525663
 C   -0.125101    2.755851   -2.275816
 C   -0.111927   -0.761875   -0.146371
 C   -0.845443   -1.522199   -1.051997
 C   -0.228684   -2.681615   -1.510034
 N    1.011475   -3.027389   -1.181695
 C    1.640672   -2.176555   -0.376196
 N    1.131209   -1.095434    0.205783
 O    2.917326   -2.504894   -0.120976
 C    3.780185   -1.507270    0.294137
 C    4.514552   -1.698922    1.452492
 C    5.423408   -0.725716    1.861198
 C    5.583132    0.431967    1.106512
 C    4.853402    0.611845   -0.066310
 C    3.951333   -0.360803   -0.491918
 O    3.224688   -0.243901   -1.635361
 C   -3.223596    0.120627    0.429500
 C   -4.329161    0.712958   -0.191625
 C   -5.527352    0.021286   -0.322259
 C   -5.612057   -1.268468    0.178480
 C   -4.541807   -1.880353    0.814987
 C   -3.353438   -1.174610    0.945538
 F   -6.763650   -1.942916    0.051625
 O   -2.808869    3.072001    1.225862
 H    2.150949    0.983996    0.785743
 H    1.765585    2.718704    1.027330
 H    1.899585    3.505408   -2.216801
 H    0.950381    3.886805   -0.767369
 H    0.075123    1.959298   -2.998739
 H   -0.911166    2.416794   -1.595882
 H   -0.500801    3.629425   -2.817950
 H   -1.841761   -1.244851   -1.367762
 H   -0.751951   -3.358316   -2.181426
 H    4.355674   -2.605448    2.026812
 H    5.997261   -0.872335    2.770288
 H    6.285938    1.196603    1.422494
 H    4.980389    1.503516   -0.673263
 H    2.770435    0.619968   -1.622462
 H   -4.252300    1.728961   -0.562997
 H   -6.390170    0.469792   -0.801724
 H   -4.652503   -2.883671    1.210825
 H   -2.514647   -1.634204    1.459591
