49 
1yw2_ligand_ani.xyz
 C   18.887163   39.490255   17.870801
 N   18.182552   40.340378   18.713189
 O   17.941281   39.666417   19.895771
 C   18.539810   38.428420   19.839146
 C   19.250665   38.360199   18.563295
 C   18.631322   41.693354   19.032387
 O   17.775023   42.178825   20.025201
 C   17.606150   43.586203   19.992413
 C   18.872585   44.366934   20.314712
 C   18.939361   39.812094   16.431145
 C   19.091821   38.821428   15.457505
 C   19.163617   39.241566   14.133482
 N   19.084352   40.525327   13.784891
 C   18.897774   41.372650   14.786144
 N   18.805538   41.101823   16.081053
 O   18.847977   42.667157   14.415160
 C   18.278888   43.604921   15.263595
 C   19.025747   44.727516   15.586031
 C   18.454599   45.765542   16.319160
 C   17.120643   45.681675   16.702406
 C   16.366926   44.555693   16.376801
 C   16.944943   43.502876   15.667168
 O   16.265967   42.382654   15.316451
 C   20.216461   37.310890   18.233794
 C   20.047892   36.004553   18.708100
 C   20.947154   35.002387   18.379648
 C   22.035803   35.319590   17.583173
 C   22.251097   36.604263   17.110126
 C   21.337555   37.594975   17.440290
 F   22.913025   34.353306   17.264580
 O   18.417434   37.653276   20.751378
 H   18.563256   42.277940   18.109874
 H   19.675860   41.677904   19.385289
 H   16.830286   43.794986   20.735594
 H   17.210889   43.876717   19.008043
 H   19.642093   44.228229   19.546895
 H   18.649820   45.438858   20.364954
 H   19.282007   44.052268   21.279877
 H   19.160467   37.769939   15.711723
 H   19.297366   38.527441   13.323939
 H   20.054598   44.778813   15.244271
 H   19.046365   46.639872   16.575416
 H   16.662838   46.489169   17.269516
 H   15.322899   44.493516   16.681604
 H   15.392799   42.407070   15.728464
 H   19.199607   35.789737   19.350332
 H   20.821978   33.984727   18.735546
 H   23.119799   36.811798   16.495045
 H   21.487950   38.604871   17.071619
