30 
1yy4_ligand_ani.xyz
 C   33.296493   36.167529   36.615737
 C   32.114243   36.848773   36.409292
 C   30.994152   36.678001   37.265324
 C   31.110913   35.779745   38.356024
 C   32.337657   35.086780   38.551432
 C   33.394400   35.272583   37.711570
 C   29.766358   37.363751   37.077794
 C   28.717168   37.159986   37.931157
 C   28.823064   36.271841   39.036433
 C   30.008499   35.601529   39.227133
 C   27.675362   36.086099   39.963449
 C   26.371165   35.930164   39.481588
 C   25.301575   35.734343   40.339781
 C   25.517726   35.705795   41.718198
 C   26.807338   35.870513   42.221742
 C   27.869814   36.050474   41.345623
 O   24.434751   35.514571   42.517893
Cl   32.021568   37.943539   35.050788
 O   34.389375   36.294819   35.832924
 H   32.421578   34.398356   39.389182
 H   34.335148   34.749269   37.850929
 H   29.663009   38.049357   36.244144
 H   27.787817   37.702627   37.779733
 H   30.105183   34.903736   40.055888
 H   26.197803   35.943006   38.407535
 H   24.291643   35.608738   39.961987
 H   26.985273   35.848155   43.295572
 H   28.871462   36.186601   41.746401
 H   24.720469   35.508490   43.440104
 H   34.200985   36.927830   35.123644
