31 
1yye_ligand_ani.xyz
 C   21.505231   30.133218    7.446388
 C   21.723833   30.107744    8.823183
 C   22.921904   29.716064    9.378965
 C   23.976844   29.345651    8.535722
 C   23.772566   29.385195    7.155564
 C   22.551873   29.762959    6.609466
 O   20.307685   30.507299    6.935470
 F   20.678145   30.479778    9.605179
 C   25.287130   28.906726    9.087485
 C   26.476640   29.383049    8.582449
 C   27.727113   28.946998    9.084936
 C   27.768231   27.987443   10.133406
 C   26.523256   27.513555   10.646879
 C   25.326506   27.962591   10.140791
 C   28.959308   29.424371    8.567188
 C   30.155495   28.976080    9.055248
 C   30.186114   28.017861   10.096594
 C   29.013115   27.532160   10.629227
 C   26.515597   26.556563   11.711978
 N   26.507206   25.780707   12.572334
 O   31.358713   27.550049   10.599820
 H   23.037186   29.720788   10.459303
 H   24.582502   29.092133    6.492215
 H   22.398333   29.781886    5.535433
 H   19.723606   30.717550    7.678171
 H   26.461804   30.120194    7.782459
 H   24.399512   27.565258   10.541226
 H   28.943248   30.160016    7.765241
 H   31.092404   29.352236    8.645390
 H   29.047675   26.798190   11.428329
 H   32.093227   27.968688   10.134957
