41 
1yys_ligand_ani.xyz
 C    1.291203   -1.172854    1.296128
 C    2.405620   -1.268954    0.254940
 C    1.270949    0.258708    1.847188
 C    2.189132   -0.295396   -0.909844
 C    1.322453    1.313627    0.769680
 C   -2.168148    0.566430    1.079987
 C   -2.430586   -0.902330    1.271071
 C   -1.173201   -1.634769    1.753339
 C   -1.939222    1.211180   -0.069529
 C   -1.885699    0.544361   -1.419304
 C   -1.771783    2.710332   -0.092113
 C    1.769374    1.088216   -0.466757
 C    1.865998    2.161056   -1.513512
 N   -0.075406   -1.533169    0.722146
 C   -0.070343   -2.753492   -0.126149
 H    1.494207   -1.878816    2.111757
 H    3.342339   -1.016812    0.765982
 H    2.521495   -2.296897   -0.106437
 H    2.139279    0.375937    2.510866
 H    0.396701    0.425541    2.483523
 H    3.104776   -0.222436   -1.510641
 H    1.421479   -0.681396   -1.596202
 H    0.986436    2.312479    1.049987
 H   -2.139239    1.157797    1.998917
 H   -2.780574   -1.358353    0.337258
 H   -3.226748   -1.047973    2.010185
 H   -0.823782   -1.208566    2.695144
 H   -1.375175   -2.693626    1.938346
 H   -1.104226    0.995363   -2.041648
 H   -2.832083    0.670931   -1.962255
 H   -1.678212   -0.529349   -1.350033
 H   -2.624525    3.197315   -0.583829
 H   -0.879394    2.994370   -0.661252
 H   -1.683311    3.117042    0.921883
 H    1.642940    3.149478   -1.097029
 H    1.182305    1.972930   -2.351853
 H    2.874582    2.206320   -1.943258
 H   -0.333886   -0.723761    0.138826
 H   -1.095837   -3.053255   -0.357099
 H    0.417906   -3.582823    0.402382
 H    0.452405   -2.574486   -1.066489
