41 
1z3j_ligand_dft.xyz
 C   -1.537711   -1.768899   -0.830410
 C   -2.887780   -1.460733   -0.765537
 C   -3.376362   -0.647364    0.266281
 C   -2.504869   -0.175631    1.256283
 C   -1.154658   -0.487572    1.186168
 C   -0.671279   -1.265760    0.138954
 O   -4.692267   -0.370783    0.217812
 C   -5.203099    0.606792    1.104916
 S    1.083416   -1.487315   -0.041941
 O    1.660570   -2.003270    1.188175
 O    1.277607   -2.185523   -1.306229
 N    1.605241    0.080522   -0.186312
 C    2.598973    0.662360    0.717541
 C    1.048481    0.882548   -1.259414
 C   -0.057419    1.804857   -0.757255
 N   -1.266064    1.687981   -1.370645
 O   -2.291726    2.426694   -0.788923
 O    0.112740    2.654965    0.111251
 C    4.007732    0.745823    0.115975
 C    4.533437   -0.631108   -0.288165
 C    4.936428    1.430372    1.121629
 H   -1.142093   -2.377107   -1.636860
 H   -3.585735   -1.827781   -1.510254
 H   -2.862714    0.449821    2.064615
 H   -0.470175   -0.092749    1.930682
 H   -5.145428    0.271357    2.147437
 H   -4.666924    1.555234    0.986535
 H   -6.248934    0.740432    0.828905
 H    2.621966    0.045635    1.619778
 H    2.238466    1.656900    0.999870
 H    0.698843    0.233308   -2.067744
 H    1.837688    1.513897   -1.681068
 H   -1.606102    0.773159   -1.646147
 H   -1.806250    2.896609   -0.077542
 H    3.961495    1.377688   -0.783526
 H    4.573148   -1.300087    0.579429
 H    3.892456   -1.101472   -1.040477
 H    5.542985   -0.552841   -0.705768
 H    4.566873    2.423654    1.400687
 H    5.022841    0.832181    2.037102
 H    5.942067    1.548906    0.705631
