45 
1z3v_ligand_ani.xyz
 C    1.032679   -0.237207    0.712567
 C    1.907026   -1.285790    1.383336
 C    3.366626   -1.077225    1.004091
 C    3.529265   -1.082800   -0.515989
 C    2.555970   -0.083322   -1.137210
 C    2.483755   -0.151605   -2.655965
 O   -0.312642   -0.509382    0.984180
 O    1.836070   -1.226148    2.795914
 O    4.158280   -2.136551    1.509253
 O    3.238392   -2.367361   -1.016447
 O    1.230313   -0.335613   -0.680472
 O    1.594982    0.820074   -3.161681
 C   -4.021309    0.996015   -0.065400
 C   -3.103829    0.636931   -1.232488
 C   -1.968190   -0.258726   -0.774563
 C   -1.236638    0.403678    0.403873
 C   -2.241322    0.795151    1.493758
 C   -1.593888    1.647701    2.578433
 O   -4.998776    1.917391   -0.422183
 O   -3.903865    0.000165   -2.201482
 O   -1.139016   -0.480643   -1.899944
 O   -3.280372    1.605242    0.953865
 O   -1.058769    2.828872    2.027643
 H    1.289124    0.780187    1.058959
 H    1.595701   -2.269127    1.005990
 H    3.710766   -0.110911    1.408570
 H    4.561237   -0.785567   -0.769896
 H    2.840722    0.938823   -0.838753
 H    2.201733   -1.169847   -2.959338
 H    3.468611    0.069765   -3.082298
 H    0.933316   -1.469341    3.037032
 H    3.858298   -2.291545    2.417509
 H    3.694865   -2.984840   -0.424774
 H    0.707248    0.620392   -2.823808
 H   -4.485175    0.061839    0.318646
 H   -2.678455    1.576591   -1.623408
 H   -2.386923   -1.217133   -0.420132
 H   -0.728124    1.311808    0.046921
 H   -2.667357   -0.122446    1.932624
 H   -2.345026    1.867016    3.352537
 H   -0.765552    1.109682    3.049168
 H   -5.463771    1.547618   -1.187765
 H   -3.304834   -0.279041   -2.907292
 H   -0.315488   -0.869691   -1.560783
 H   -1.795660    3.266222    1.578600
