88 
1z6j_ligand_ani.xyz
 C   -3.711686   -0.795165    0.957126
 C   -4.581664    0.282602    0.796821
 C   -5.055112    0.908927    1.944364
 C   -3.932263   -0.484943    3.325963
 C   -3.415100   -1.207510    2.261002
 N   -4.749209    0.562596    3.194181
 N   -3.092350   -1.460553   -0.110068
 C   -3.134928   -1.119996   -1.440493
 C   -2.096227   -1.816320   -2.276114
 O   -3.914655   -0.293748   -1.897636
 C   -1.335733   -1.114740   -3.224060
 C   -0.412393   -1.835297   -3.988133
 C   -0.258252   -3.206593   -3.841892
 C   -1.013930   -3.904464   -2.899173
 C   -1.911028   -3.193431   -2.111197
 C   -0.856226   -5.384739   -2.732165
 N   -0.937236   -5.812101   -1.425029
 N   -0.690845   -6.213561   -3.691068
 C   -1.476936    0.383385   -3.477539
 N   -1.623173    1.212927   -2.297784
 C   -0.578583    1.462030   -1.461651
 C   -1.037682    2.057971   -0.125863
 N    0.033059    2.675208    0.653990
 O    0.580224    1.217281   -1.749681
 C    0.394548    3.958086    0.269906
 C    1.333958    4.649173    1.187066
 N    1.761804    4.149021    2.320371
 C    1.364355    2.886255    2.619739
 C    0.572081    2.112389    1.820585
 C    0.326584    0.686221    2.120908
 N    1.725305    5.867307    0.744655
 C    2.438407    6.839785    1.562934
 C    1.526133    7.512454    2.589707
 C    3.090629    7.860199    0.638317
 C   -0.135293    0.313745    3.383323
 C   -0.366949   -1.030886    3.686186
 C   -0.076131   -2.004834    2.724203
 C    0.427294   -1.642077    1.480463
 C    0.620980   -0.297492    1.172242
 N   -0.973391   -1.393749    4.896808
 C    0.727784   -2.739781    0.500246
 N    1.750014   -2.481395   -0.352047
 C    2.325024   -3.503211   -1.219141
 C    2.977817   -2.856092   -2.443624
 C    4.213181   -2.004596   -2.152654
 O    0.115597   -3.807078    0.512945
 C    3.269776   -4.437340   -0.457147
 O   -0.056681    4.483090   -0.737836
 H   -4.885060    0.618534   -0.186066
 H   -5.729475    1.758729    1.841163
 H   -3.671962   -0.767051    4.344685
 H   -2.794651   -2.079523    2.439013
 H   -2.348913   -2.091270    0.163511
 H    0.195496   -1.301605   -4.715451
 H    0.471060   -3.737070   -4.451706
 H   -2.516002   -3.734214   -1.387071
 H   -0.615331   -5.170679   -0.703476
 H   -0.668921   -6.779868   -1.304618
 H   -0.692251   -5.712510   -4.580470
 H   -2.355325    0.570435   -4.103284
 H   -0.595391    0.722344   -4.028144
 H   -2.562506    1.283155   -1.935751
 H   -1.806165    2.810513   -0.308654
 H   -1.499780    1.274795    0.478341
 H    1.744638    2.472996    3.547532
 H    1.214581    6.193308   -0.066752
 H    3.212788    6.286909    2.103616
 H    0.705935    8.046860    2.093620
 H    1.097348    6.770038    3.268962
 H    2.095652    8.234241    3.186580
 H    3.688102    8.582457    1.205394
 H    2.322554    8.418188    0.087620
 H    3.745638    7.362387   -0.083103
 H   -0.356402    1.071440    4.133408
 H   -0.264409   -3.054559    2.936298
 H    0.950201    0.026453    0.185590
 H   -0.759792   -0.768255    5.662849
 H   -0.800275   -2.354772    5.161349
 H    2.250658   -1.611214   -0.244030
 H    1.476371   -4.099959   -1.563767
 H    3.255708   -3.658656   -3.139488
 H    2.221039   -2.248444   -2.955281
 H    4.610975   -1.579556   -3.079638
 H    5.012288   -2.594640   -1.691016
 H    3.988241   -1.164917   -1.483607
 H    3.682800   -5.194941   -1.132975
 H    4.102519   -3.888445   -0.002537
 H    2.727023   -4.950500    0.341698
