88 
1z6j_ligand_dft.xyz
 C   -0.948308    2.772728   -1.518820
 C    0.019000    3.006265   -2.499965
 C    0.752100    4.185755   -2.421976
 C   -0.339574    4.883548   -0.561720
 C   -1.137577    3.749624   -0.539324
 N    0.603421    5.117558   -1.479081
 N   -1.709856    1.598399   -1.423995
 C   -1.852994    0.621907   -2.371625
 C   -2.715895   -0.523899   -1.922203
 O   -1.333948    0.659877   -3.480421
 C   -2.326532   -1.863402   -2.078644
 C   -3.221871   -2.854727   -1.673910
 C   -4.449995   -2.545422   -1.104495
 C   -4.815993   -1.214946   -0.908266
 C   -3.945873   -0.219025   -1.341593
 C   -6.051661   -0.865491   -0.139869
 N   -5.904018    0.239288    0.662356
 N   -7.166807   -1.497036   -0.180929
 C   -0.996861   -2.322093   -2.665657
 N    0.132383   -1.441274   -2.476097
 C    0.773527   -1.314064   -1.292045
 C    1.707517   -0.097704   -1.252110
 N    2.788053   -0.227747   -0.290854
 O    0.586967   -2.051061   -0.334293
 C    3.823455   -1.027521   -0.701345
 C    5.019969   -1.001846    0.176831
 N    5.121914   -0.267988    1.250902
 C    4.018796    0.459810    1.607823
 C    2.862019    0.508457    0.901055
 C    1.666169    1.217379    1.402991
 N    6.015930   -1.802518   -0.248691
 C    7.328759   -1.856437    0.373684
 C    8.178975   -0.642307   -0.009958
 C    8.000345   -3.173644   -0.001352
 C    1.742958    2.542492    1.824442
 C    0.618073    3.198690    2.347364
 C   -0.602520    2.517662    2.393609
 C   -0.675164    1.196846    1.965218
 C    0.452274    0.532266    1.498180
 N    0.689887    4.533654    2.721930
 C   -1.990169    0.489695    1.876830
 N   -1.993231   -0.763201    2.355581
 C   -3.037947   -1.749216    2.094120
 C   -2.387405   -3.099371    1.763460
 C   -1.655901   -3.780616    2.921384
 O   -2.968116    1.026317    1.331785
 C   -4.059265   -1.797794    3.228227
 O    3.790254   -1.668133   -1.749622
 H    0.183353    2.301211   -3.301405
 H    1.513274    4.386636   -3.173238
 H   -0.455619    5.638293    0.211588
 H   -1.884968    3.610620    0.234464
 H   -2.192306    1.462906   -0.534793
 H   -2.931381   -3.897645   -1.772252
 H   -5.101410   -3.340640   -0.752464
 H   -4.237616    0.818388   -1.214355
 H   -4.980839    0.486393    1.007303
 H   -6.683201    0.420024    1.278827
 H   -7.135317   -2.216815   -0.901457
 H   -1.115023   -2.468393   -3.743555
 H   -0.743677   -3.290154   -2.226270
 H    0.241050   -0.710119   -3.164250
 H    2.154805    0.050805   -2.238517
 H    1.114455    0.785500   -1.004151
 H    4.087351    0.997823    2.547469
 H    5.853712   -2.249402   -1.141427
 H    7.159160   -1.830241    1.455522
 H    8.359046   -0.624257   -1.090975
 H    7.668954    0.281090    0.277285
 H    9.147559   -0.675469    0.500509
 H    8.976365   -3.254287    0.486039
 H    8.163335   -3.234666   -1.084691
 H    7.388159   -4.027594    0.304409
 H    2.681313    3.081123    1.722133
 H   -1.501604    3.024466    2.733843
 H    0.391768   -0.499173    1.163955
 H    1.614720    4.889194    2.915287
 H    0.009408    4.836706    3.403201
 H   -1.145952   -1.081665    2.803385
 H   -3.543327   -1.402954    1.192756
 H   -3.179999   -3.763883    1.399530
 H   -1.693409   -2.945100    0.928532
 H   -1.204434   -4.716532    2.580092
 H   -2.331219   -4.017813    3.749617
 H   -0.837997   -3.167264    3.319205
 H   -4.837632   -2.534634    3.004190
 H   -3.592216   -2.062974    4.182256
 H   -4.538208   -0.821044    3.342922
