30 
1zd2_ligand_dft.xyz
 C    1.707880    0.362397   -0.140353
 N    0.390394    0.784696    0.308224
 C   -0.712994    0.622551   -0.478977
 N   -1.912743    0.963446    0.136614
 C   -3.132447    0.570134   -0.513100
 C   -3.948541   -0.355183    0.379773
 O   -5.067686   -0.855589   -0.173562
 O   -0.656713    0.259526   -1.646935
 O   -3.656571   -0.607488    1.518933
 C    2.786787    1.157272    0.597727
 C    4.189410    0.737615    0.147285
 C    4.403926   -0.770234    0.309387
 C    3.322316   -1.563655   -0.429314
 C    1.920872   -1.147680    0.025969
 H    1.757163    0.601568   -1.208233
 H    0.272652    0.986814    1.289916
 H   -1.958253    0.870238    1.144236
 H   -2.869133    0.074285   -1.454999
 H   -3.757867    1.440302   -0.762030
 H   -5.137810   -0.583490   -1.099085
 H    2.688918    0.976948    1.679912
 H    2.630563    2.229426    0.433757
 H    4.943962    1.295075    0.713473
 H    4.322161    1.009915   -0.908895
 H    4.373758   -1.026408    1.378052
 H    5.398751   -1.050749   -0.054970
 H    3.463640   -2.639085   -0.274430
 H    3.417299   -1.385948   -1.509664
 H    1.151746   -1.678330   -0.544478
 H    1.783398   -1.408450    1.085710
