45 
1zd5_ligand_xtb.xyz
 C   -4.235309    0.258876   -0.000313
 N   -3.102914   -0.318747    0.697071
 C   -1.990909   -0.727511    0.009849
 N   -1.130844   -1.495320    0.758435
 C    0.201546   -1.768391    0.266809
 C    1.201563   -0.663152    0.615402
 C    2.601667   -0.991362    0.105993
 C    3.589216    0.138801    0.384822
 C    4.994438   -0.205412   -0.100461
 O   -1.784883   -0.444609   -1.151434
 C    5.973446    0.941624    0.134756
 C    7.383211    0.578947   -0.291256
 O    8.282137    1.576624   -0.151638
 O    7.717321   -0.486819   -0.713919
 C   -5.272111   -0.803748   -0.376590
 C   -6.438347   -0.164158   -1.123158
 C   -7.082240    0.928447   -0.275075
 C   -6.049259    1.984270    0.107000
 C   -4.882291    1.346698    0.855287
 H   -3.823651    0.697847   -0.914731
 H   -3.309334   -0.764342    1.578020
 H   -1.233718   -1.469744    1.761405
 H    0.118263   -1.856694   -0.818124
 H    0.532118   -2.725534    0.680295
 H    1.228599   -0.524700    1.700280
 H    0.854413    0.268762    0.164763
 H    2.557692   -1.172911   -0.969229
 H    2.956172   -1.907998    0.582826
 H    3.614548    0.341019    1.458846
 H    3.242687    1.046485   -0.115086
 H    4.971146   -0.438555   -1.165880
 H    5.359816   -1.093390    0.417481
 H    5.995114    1.203792    1.197683
 H    5.655812    1.828021   -0.423281
 H    7.888915    2.387045    0.196981
 H   -5.639095   -1.288193    0.533183
 H   -4.796203   -1.563949   -0.998853
 H   -7.178555   -0.926213   -1.375282
 H   -6.071538    0.269250   -2.055664
 H   -7.500692    0.485117    0.631810
 H   -7.900792    1.393565   -0.827729
 H   -6.512706    2.751527    0.730693
 H   -5.674567    2.467606   -0.797502
 H   -4.137524    2.102882    1.109513
 H   -5.244952    0.902630    1.786564
