42 
1ze8_ligand_xtb.xyz
 S   -5.184631    0.001040    0.047539
 O   -5.722669    1.207987   -0.498172
 O   -5.708951   -1.272518   -0.336161
 N   -5.219603    0.109607    1.724940
 C   -1.376458   -1.215100   -0.483290
 C   -1.385861    1.184559   -0.608488
 C   -2.753681    1.191556   -0.394592
 C   -2.743756   -1.210893   -0.267878
 C   -0.690544   -0.018277   -0.659255
 C   -3.415567   -0.006598   -0.223822
 C    0.800852   -0.025943   -0.877805
 C    1.512707   -0.035070    0.487350
 N    2.962328   -0.015642    0.340564
 C    4.978734    1.199429    0.081170
 C    5.009933   -1.170142    0.045151
 C    3.640998   -1.184392    0.232006
 C    3.611647    1.174105    0.267065
 C    5.719296    0.024385   -0.037209
 C    7.185421    0.058061   -0.247688
 C    2.862694    2.453824    0.410973
 C    2.925801   -2.486595    0.337785
 H   -5.657687    0.962791    2.033860
 H   -5.662083   -0.694602    2.140496
 H   -0.846159   -2.154959   -0.534290
 H   -0.863297    2.118320   -0.756740
 H   -3.321250    2.107550   -0.377758
 H   -3.304187   -2.124348   -0.153602
 H    1.096684    0.854838   -1.448970
 H    1.086051   -0.905833   -1.455749
 H    1.215388   -0.923171    1.043287
 H    1.194891    0.832279    1.064224
 H    5.481398    2.152034    0.028454
 H    5.533683   -2.109155   -0.036110
 H    7.404038    0.438133   -1.246005
 H    7.657837    0.735474    0.461182
 H    7.626153   -0.929441   -0.150607
 H    2.038602    2.528825   -0.294281
 H    2.458301    2.556246    1.418501
 H    3.532107    3.291374    0.238569
 H    2.517425   -2.625542    1.339347
 H    2.108857   -2.564621   -0.375603
 H    3.617928   -3.301787    0.148470
