39 
1zfk_ligand_ani.xyz
 S   14.470513   10.778585    8.604904
 N   14.757183    9.696515    7.377915
 O   14.165938    9.975870    9.773647
 O   15.570332   11.722699    8.559123
 C   12.991826   11.666644    8.175967
 C   11.755526   11.196089    8.609940
 C   10.607389   11.882944    8.248267
 C   10.689004   13.040061    7.464159
 N    9.481158   13.679115    7.125990
 C    9.334729   14.865479    6.453482
 O   10.237708   15.557178    6.035121
 N    7.991473   15.226010    6.290792
 S    7.539065   16.611996    5.482431
 O    6.100526   16.475274    5.329157
 O    8.135602   17.759842    6.135540
 C    8.308310   16.447618    3.897520
 C    9.368160   17.283028    3.559643
 C    9.958084   17.147937    2.310445
 C    9.504063   16.190550    1.395438
 C   10.157285   16.054726    0.043083
 C    8.436423   15.368800    1.762932
 C    7.831679   15.493800    3.008909
 C   11.935759   13.514210    7.043498
 C   13.082672   12.823431    7.407310
 H   14.991316   10.133048    6.494092
 H   14.061511    8.963516    7.305609
 H   11.703553   10.308432    9.233232
 H    9.638245   11.520480    8.580237
 H    8.651567   13.236901    7.491500
 H    7.236909   14.563291    6.421612
 H    9.723398   18.011860    4.282549
 H   10.788409   17.794340    2.035962
 H   11.221190   15.809928    0.140278
 H   10.087624   16.989041   -0.525646
 H    9.686118   15.266529   -0.550461
 H    8.071151   14.622796    1.060791
 H    6.985441   14.867745    3.282355
 H   11.990401   14.414105    6.447321
 H   14.058761   13.192587    7.105356
