20 
1zfq_ligand_ani.xyz
 O   18.331515    8.747146   12.918090
 C   18.029175    7.606955   13.593726
 C   16.725145    7.254892   13.921709
 C   16.528318    6.061849   14.617173
 S   15.041211    5.338306   15.165968
 C   15.985231    4.041679   15.837539
 S   15.192280    2.696887   16.729635
 N   15.904962    1.332600   16.143533
 O   13.819832    2.712557   16.269449
 O   15.549838    2.806601   18.126430
 N   17.255296    4.079249   15.669066
 C   17.602281    5.234159   14.980836
 C   18.907927    5.610248   14.637524
 C   19.115084    6.787236   13.950360
 H   17.516054    9.227015   12.726891
 H   15.887594    7.891263   13.643190
 H   16.909335    1.318141   16.300240
 H   15.638367    1.128493   15.185643
 H   19.738066    4.968310   14.918622
 H   20.114489    7.106413   13.670376
