19 
1zge_ligand_xtb.xyz
 S    2.620614   -0.005088   -0.139389
 N    2.960508    0.022231    1.509145
 O    3.085970   -1.251919   -0.670116
 O    3.086392    1.226327   -0.703276
 C    0.843066   -0.004735   -0.105683
 C    0.165199   -1.207728   -0.077795
 C   -1.213353   -1.196772   -0.018214
Cl   -2.083679   -2.691776    0.005998
 C   -1.948649    0.002442    0.017976
 N   -3.297256    0.006772    0.120746
 C   -1.207307    1.198003   -0.019080
Cl   -2.069225    2.697802    0.005219
 C    0.170946    1.201668   -0.079454
 H    3.414140   -0.823554    1.813608
 H    3.488920    0.838665    1.769943
 H    0.723195   -2.128570   -0.120777
 H   -3.789152   -0.859942   -0.013294
 H   -3.782169    0.877384   -0.014412
 H    0.733535    2.119464   -0.124140
