45 
1zgv_ligand_dft.xyz
 C   -3.909469    0.889042    1.733886
 C   -3.051821   -0.184814    1.492619
 C   -2.985306   -0.683266    0.181323
 C   -3.777734   -0.139048   -0.830119
 C   -4.635884    0.911831   -0.541328
 C   -4.704630    1.445235    0.738258
 N   -2.155502   -1.787579   -0.128372
 C   -0.783895   -1.726368   -0.141588
 N   -0.066547   -2.758067   -0.641091
 C    1.191155   -2.355167   -0.477554
 N    1.174740   -1.105658    0.115937
 N   -0.103841   -0.680510    0.329084
 N    2.334959   -2.968690   -0.798230
 C    3.450535   -2.302968   -0.516418
 C    3.489330   -1.025117    0.074984
 C    2.293686   -0.399416    0.410338
 N    2.105345    0.797337    1.002282
 C    3.167202    1.766208    1.195069
 C    3.593298    2.483223   -0.087886
 C    4.736716    3.469239    0.150255
 C    5.163095    4.192498   -1.125807
 C    4.739945   -3.005527   -0.846788
Cl   -5.629891    1.581780   -1.816690
 C   -2.254046   -0.799754    2.608600
 H   -3.976123    1.288461    2.742410
 H   -3.711149   -0.530142   -1.840174
 H   -5.374956    2.269515    0.954524
 H   -2.518006   -2.462726   -0.786227
 H    4.435069   -0.534556    0.264004
 H    1.141284    1.104431    1.029385
 H    4.024655    1.256907    1.651272
 H    2.811874    2.490798    1.934320
 H    2.725915    3.009598   -0.506759
 H    3.894944    1.736937   -0.834186
 H    5.596884    2.932793    0.573044
 H    4.432111    4.205781    0.905836
 H    5.501249    3.480003   -1.886509
 H    4.329642    4.762567   -1.551133
 H    5.983037    4.890829   -0.931426
 H    4.995316   -3.706137   -0.043665
 H    4.620803   -3.585221   -1.764604
 H    5.569892   -2.302984   -0.962621
 H   -1.208275   -0.479423    2.562200
 H   -2.666485   -0.518966    3.581777
 H   -2.256646   -1.891544    2.527937
