84 
1zm6_ligand_dft.xyz
 N   -0.568872    1.234714   -0.707272
 C   -0.003174    1.559890   -2.063713
 C    1.204450    0.633456   -2.350834
 O    2.351798    1.047287   -2.253612
 C    0.335370    3.055011   -2.218250
 C    0.715989    3.866849   -0.965168
 C    0.964632    5.318757   -1.388527
 C    1.921950    3.316583   -0.202116
 N    0.867074   -0.615417   -2.746949
 C    1.809941   -1.727206   -2.961228
 C    2.241275   -2.271795   -1.591292
 O    1.834679   -3.345028   -1.173569
 C    2.955738   -1.390984   -3.912761
 N    3.028052   -1.434960   -0.850136
 C    3.003785   -1.596299    0.594153
 C    1.602298   -1.150967    1.024256
 O    1.254777    0.027063    0.911532
 C    4.146881   -0.853142    1.307498
 C    4.076724   -1.074436    2.828329
 C    4.243379    0.644607    0.998305
 C    4.080246   -2.536314    3.277206
 N    0.781451   -2.124612    1.470766
 C   -0.650071   -1.999942    1.690945
 C   -1.403046   -1.873874    0.351207
 O   -0.838051   -1.667878   -0.715117
 C   -1.086209   -0.980745    2.788653
 C   -1.320265    0.475868    2.440319
 C   -2.529887    0.908357    1.888523
 C   -0.358450    1.447091    2.732273
 C   -2.758588    2.248220    1.589412
 C   -0.568945    2.789065    2.446851
 C   -1.775526    3.197636    1.869594
 O   -2.037313    4.487650    1.541976
 N   -2.736136   -2.075146    0.429447
 C   -3.601312   -2.142883   -0.723384
 C   -3.806085   -0.784645   -1.397042
 O   -4.783828   -0.840188   -2.296416
 C   -4.924421   -2.761800   -0.276849
 O   -5.365248   -1.969676    0.808696
 O   -3.151787    0.217681   -1.205999
 H   -0.888417    2.078071   -0.220550
 H   -1.395076    0.622434   -0.779720
 H    0.114130    0.764024   -0.070832
 H   -0.795815    1.306614   -2.772640
 H   -0.532501    3.541275   -2.677809
 H    1.155561    3.121604   -2.939488
 H   -0.150108    3.892306   -0.284909
 H    1.816560    5.380392   -2.075085
 H    0.091683    5.749866   -1.889920
 H    1.195198    5.940916   -0.517834
 H    2.804932    3.290026   -0.846999
 H    2.144967    3.958468    0.657673
 H    1.768276    2.301880    0.173909
 H   -0.074128   -0.919242   -2.529421
 H    1.212435   -2.527424   -3.401514
 H    2.551906   -1.015857   -4.857182
 H    3.633971   -0.640409   -3.507522
 H    3.521715   -2.303913   -4.117685
 H    3.144436   -0.490069   -1.205517
 H    3.123881   -2.663937    0.786925
 H    5.060841   -1.335478    0.935499
 H    4.936092   -0.561425    3.274757
 H    3.185998   -0.565856    3.225433
 H    3.410014    1.195209    1.441014
 H    4.255254    0.862501   -0.074287
 H    5.174227    1.039249    1.417627
 H    4.900418   -3.091632    2.808511
 H    3.142661   -3.047086    3.031407
 H    4.208872   -2.606854    4.361103
 H    1.099141   -3.061909    1.257055
 H   -0.937181   -2.978157    2.091887
 H   -0.332163   -1.056458    3.578110
 H   -2.010211   -1.376261    3.228210
 H   -3.324312    0.197953    1.682022
 H    0.586709    1.149405    3.173595
 H   -3.700554    2.573166    1.161333
 H    0.202974    3.519173    2.677096
 H   -1.333349    5.060561    1.871544
 H   -3.200711   -2.131335    1.326175
 H   -3.142982   -2.787297   -1.484348
 H   -4.858252    0.031314   -2.719817
 H   -5.634660   -2.759874   -1.108974
 H   -4.739180   -3.800369    0.028724
 H   -6.214539   -2.301046    1.123375
