65 
1zpc_ligand_ani.xyz
 C    3.959087    0.552874   -0.683752
 C    2.566880    0.169306   -0.134919
 C    4.994524   -0.515394   -0.441835
 O    3.839648    0.827566   -2.063399
 N    1.665177    1.251251   -0.492593
 C    2.085554   -1.175357   -0.699970
 C    0.702073   -1.622463   -0.220450
 C    0.636355   -1.936335    1.278316
 N   -0.635555   -2.511031    1.691717
 C   -1.729263   -1.736311    2.044102
 N   -2.891360   -2.472707    2.154888
 N   -1.769601   -0.466261    2.241841
 N    5.574063   -1.164214   -1.405349
 C    6.440444   -2.109282   -0.902195
 C    6.522355   -2.170255    0.452308
 S    5.476420   -0.997490    1.150328
 N   -1.574304    2.492788    0.235895
 C   -0.254368    2.749336   -0.295674
 C    0.711581    1.739329    0.331593
 O    0.612677    1.395590    1.507880
 C    0.210001    4.206002   -0.058992
 C    1.486133    4.503913   -0.846002
 C    0.389124    4.548921    1.420510
 C   -2.604852    2.120719   -0.566982
 C   -3.832103    1.582798    0.188068
 O   -2.594533    2.201527   -1.783448
 O   -3.603420    1.502499    1.570629
 C   -4.275623    0.258210   -0.417750
 C   -5.625161   -0.015818   -0.630681
 C   -6.023062   -1.277837   -1.065861
 C   -5.086099   -2.280960   -1.282662
 C   -3.742354   -1.993690   -1.073541
 C   -3.326982   -0.731257   -0.671970
Cl   -2.551827   -3.256836   -1.281966
 H    4.264402    1.469227   -0.154232
 H    2.606069    0.130693    0.957321
 H    4.453320    0.224462   -2.518225
 H    1.746063    1.598249   -1.439472
 H    2.819864   -1.949440   -0.434569
 H    2.089399   -1.106941   -1.796106
 H   -0.057806   -0.868167   -0.466316
 H    0.429349   -2.526627   -0.781027
 H    0.829598   -1.037427    1.869635
 H    1.420762   -2.661012    1.536585
 H   -0.903652   -3.322873    1.146191
 H   -2.792603   -3.427021    2.464635
 H   -3.642752   -1.970241    2.605297
 H   -0.872887    0.002235    2.147212
 H    6.996158   -2.733693   -1.590318
 H    7.131485   -2.826901    1.057711
 H   -1.642336    2.232780    1.212032
 H   -0.317144    2.585422   -1.377631
 H   -0.604182    4.823950   -0.462921
 H    1.369211    4.253737   -1.906856
 H    2.339519    3.938607   -0.452257
 H    1.736444    5.568394   -0.781979
 H    0.668250    5.602635    1.529963
 H   -0.530648    4.386096    1.993513
 H    1.178735    3.939512    1.872806
 H   -4.636870    2.315024    0.040943
 H   -3.059014    0.693241    1.774023
 H   -6.372113    0.755019   -0.449056
 H   -7.077390   -1.485201   -1.228131
 H   -5.386397   -3.273357   -1.607238
 H   -2.263884   -0.529260   -0.541416
