101 
1zsf_ligand_ani.xyz
 O   -2.625928    3.103595    0.245038
 C   -3.773530    2.767818    0.557914
 O   -4.888022    3.264229    0.030142
 C   -4.847195    4.312848   -0.987631
 C   -4.133946    5.551629   -0.455791
 C   -6.322703    4.611935   -1.230999
 C   -4.200793    3.782956   -2.266327
 N   -4.054678    1.823151    1.481032
 C   -3.042748    1.213081    2.333350
 C   -2.105885    0.237907    1.575569
 O   -1.039144    0.960399    0.967787
 C   -3.690604    0.597164    3.588462
 C   -4.418134   -0.713424    3.373519
 C   -3.748173   -1.930687    3.547167
 C   -5.745571   -0.747610    2.940226
 C   -4.366300   -3.140042    3.241641
 C   -6.374114   -1.956218    2.650911
 C   -5.683066   -3.156263    2.789570
 C   -2.805262   -0.640095    0.520516
 N   -1.841828   -1.144013   -0.479841
 C   -0.832610   -2.137163    0.003797
 C    0.491527   -1.892251   -0.744239
 O    1.125176   -2.759166   -1.324397
 C   -1.332155   -3.589980   -0.058949
 C   -2.083709   -3.944877   -1.321462
 C   -1.399736   -4.220234   -2.508901
 C   -3.480181   -3.991648   -1.323863
 C   -2.103010   -4.533252   -3.668669
 C   -4.185801   -4.303776   -2.482753
 C   -3.494679   -4.577015   -3.658815
 N    0.885864   -0.583032   -0.701890
 C    2.123939   -0.157112   -1.293970
 C    3.260374   -0.276603   -0.272695
 O    3.071248   -0.226391    0.926758
 C    2.047605    1.300339   -1.780748
 C    0.916349    1.563846   -2.794687
 C   -0.402590    1.846875   -2.110570
 O   -1.323912    1.055894   -2.019634
 O   -0.437855    3.061859   -1.561918
 N    4.516845   -0.411297   -0.826784
 C    5.655257    0.008080   -0.034438
 C    5.835066    1.527295   -0.213027
 O    5.423715    2.098508   -1.210845
 C    6.916966   -0.776830   -0.443330
 C    8.109540   -0.487457    0.442350
 C    9.204748    0.237103   -0.034106
 C    8.114736   -0.900856    1.777394
 C   10.279873    0.538497    0.799558
 C    9.185565   -0.601252    2.613641
 C   10.273037    0.120446    2.126102
 N    6.460833    2.173762    0.806250
 H   -4.238357    6.366012   -1.180339
 H   -3.071700    5.356483   -0.298825
 H   -4.580324    5.870322    0.491834
 H   -6.433383    5.399733   -1.982718
 H   -6.803787    4.946070   -0.306325
 H   -6.840701    3.716956   -1.590305
 H   -3.121195    3.660444   -2.157945
 H   -4.637153    2.819304   -2.546480
 H   -4.372327    4.496375   -3.078834
 H   -5.035572    1.663417    1.661552
 H   -2.377775    2.019929    2.668206
 H   -1.636909   -0.410697    2.324904
 H   -1.390143    1.833251    0.714527
 H   -4.364451    1.351402    4.012361
 H   -2.898378    0.446240    4.333261
 H   -2.719680   -1.932902    3.907074
 H   -6.303772    0.181733    2.830610
 H   -3.812778   -4.070159    3.350588
 H   -7.406389   -1.956400    2.310944
 H   -6.168272   -4.099345    2.554248
 H   -3.551123   -0.060745   -0.024601
 H   -3.330713   -1.469038    1.001394
 H   -2.338755   -1.584847   -1.271648
 H   -1.365051   -0.308833   -0.867010
 H   -0.635590   -1.896412    1.054775
 H   -0.461864   -4.239780    0.062296
 H   -1.992994   -3.751364    0.801166
 H   -0.313753   -4.175649   -2.511892
 H   -4.015843   -3.760537   -0.404418
 H   -1.560151   -4.747064   -4.586474
 H   -5.272275   -4.330506   -2.468620
 H   -4.039288   -4.822155   -4.567354
 H    0.506303    0.012462    0.032727
 H    2.324482   -0.815667   -2.147580
 H    1.932588    1.970948   -0.918963
 H    3.012316    1.553294   -2.233884
 H    0.786240    0.709365   -3.464192
 H    1.165973    2.444799   -3.392805
 H   -1.282370    3.151197   -1.071255
 H    4.575053   -0.102824   -1.790583
 H    5.416957   -0.216417    1.010730
 H    6.654375   -1.839707   -0.397177
 H    7.158284   -0.549028   -1.488831
 H    9.207329    0.575472   -1.069392
 H    7.270184   -1.469458    2.167778
 H   11.124378    1.101710    0.408497
 H    9.170094   -0.933755    3.648313
 H   11.110308    0.353975    2.779258
 H    7.001449    1.656833    1.483879
 H    6.692527    3.145127    0.658425
