59 
1ztq_ligand_xtb.xyz
 C  -11.037258    0.181977    0.253588
 C  -10.169834    1.129585   -0.241512
 C   -8.802628    0.858109   -0.192876
 C   -8.352430   -0.361939    0.354464
 C   -9.226326   -1.314668    0.854333
 C  -10.573477   -1.020632    0.793273
 C    5.958744    2.172732    1.229678
 C    7.066201    2.123137    2.278614
 C    4.584593    2.098887    1.890139
 C   -7.623454    1.550055   -0.590021
 C   -6.576344    0.736621   -0.271514
 O   -7.001627   -0.430851    0.304758
 C   -5.136287    0.967852   -0.482035
 N   -4.372057   -0.079221   -0.051642
 C   -2.990027   -0.235607   -0.106300
 O   -4.718424    1.989221   -0.988762
 C   -2.445274   -1.419128    0.392998
 C   -1.083484   -1.630631    0.363492
 C   -0.225780   -0.673084   -0.175807
 C   -0.778932    0.505168   -0.673575
 C   -2.139736    0.731431   -0.637672
 C    1.224680   -0.900095   -0.219155
 C    1.885315   -1.482023    0.864571
 C    3.252246   -1.680574    0.828601
 C    3.961446   -1.306242   -0.296343
 C    3.329935   -0.738712   -1.385488
 C    1.962554   -0.534940   -1.345607
 S    5.735440   -1.482164   -0.273307
 N    6.093153   -0.273958    0.846947
 O    6.105012   -2.732634    0.314701
 O    6.264560   -1.132300   -1.563809
 C    6.087561    1.023957    0.206836
 C    7.338986    1.171763   -0.646071
 O    7.124745    1.887914   -1.746115
 O    8.412157    0.725128   -0.342149
 H  -12.100725    0.365639    0.227049
 H  -10.528114    2.057976   -0.657913
 H   -8.862938   -2.241058    1.269472
 H  -11.287428   -1.736629    1.170868
 H    6.038440    3.109531    0.667276
 H    6.929865    1.262903    2.928615
 H    8.044387    2.053927    1.809701
 H    7.038762    3.022729    2.888981
 H    4.485314    2.880400    2.639138
 H    3.793525    2.220908    1.153918
 H    4.460693    1.131732    2.370223
 H   -7.548444    2.513944   -1.049080
 H   -4.878762   -0.856270    0.353439
 H   -3.099493   -2.176295    0.802785
 H   -0.680298   -2.559946    0.737091
 H   -0.129874    1.268917   -1.074663
 H   -2.552822    1.650231   -1.018462
 H    1.323639   -1.755646    1.745072
 H    3.786346   -2.123642    1.653446
 H    3.919361   -0.473649   -2.249693
 H    1.456916   -0.106243   -2.197707
 H    6.989397   -0.464687    1.279501
 H    5.221932    1.051791   -0.461088
 H    7.928305    1.920496   -2.290844
