36 
1zuc_ligand_xtb.xyz
 C    2.528573    1.432192    1.912888
 C    2.398710    1.314312    0.388367
 C    1.288448    0.344624    0.056894
 C   -0.037445    0.718000   -0.032361
 C   -1.040581   -0.225634   -0.265834
 C   -0.679025   -1.563895   -0.426269
 C    0.642625   -1.950406   -0.342935
 C    1.628427   -1.002579   -0.096077
 N    2.967222   -1.353134   -0.015378
 C    3.967482   -0.439162   -0.144176
 S    5.515302   -0.929597   -0.353418
 O    3.668872    0.846054   -0.126876
 C   -2.417665    0.232181   -0.373864
 C   -2.865141    1.392546   -0.991975
 C   -4.252470    1.432654   -0.876090
 C   -4.626468    0.296901   -0.173035
 N   -3.500079   -0.425655    0.122334
 C   -3.515650   -1.628117    0.909110
 C   -5.903383   -0.109580    0.217379
 N   -6.955148   -0.440534    0.541854
 C    2.208081    2.687021   -0.253888
 H    2.747824    0.459335    2.349277
 H    3.337412    2.115088    2.160321
 H    1.599608    1.804134    2.336257
 H   -0.316518    1.750649    0.099798
 H   -1.427799   -2.305509   -0.654529
 H    0.920884   -2.985003   -0.476727
 H    3.235071   -2.322504   -0.113897
 H   -2.247911    2.109385   -1.495981
 H   -4.917087    2.185828   -1.249890
 H   -3.659006   -2.510898    0.279614
 H   -2.578162   -1.727233    1.455530
 H   -4.342752   -1.582665    1.618954
 H    3.140271    3.239812   -0.175067
 H    1.955795    2.580087   -1.305850
 H    1.425481    3.243531    0.251423
