48 
1zxc_ligand_dft.xyz
 C   -8.957059   -1.234795   -0.738181
 C   -7.570075   -0.783978   -0.811781
 C   -6.423469   -0.417703   -0.861164
 C   -5.038378    0.025793   -0.958489
 O   -4.469152    0.049337    0.346204
 C   -3.175054    0.409928    0.466694
 C   -2.669450    0.397265    1.774760
 C   -1.353818    0.743040    2.013786
 C   -0.532098    1.109426    0.943562
 C   -1.025831    1.133249   -0.356899
 C   -2.349394    0.781863   -0.599041
 S    1.168591    1.503087    1.252225
 O    1.330283    1.744057    2.674684
 O    1.595040    2.495537    0.280365
 N    2.056703    0.074403    0.927419
 C    1.674783   -0.963117    1.916492
 C    2.580529   -2.179735    1.904039
 S    2.539588   -3.017231    0.301113
 C    3.060192   -1.572362   -0.713927
 C    2.040190   -0.406522   -0.476540
 C    2.279043    0.690496   -1.524887
 O    1.506751    0.842069   -2.465345
 N    3.443844    1.391959   -1.467920
 O    3.525158    2.457335   -2.356213
 C    2.954251   -2.043722   -2.169648
 C    4.511640   -1.199924   -0.383862
 H   -9.652134   -0.398321   -0.861374
 H   -9.169206   -1.973404   -1.517774
 H   -9.155651   -1.701644    0.231826
 H   -4.990186    1.028861   -1.404041
 H   -4.465815   -0.657130   -1.601080
 H   -3.334665    0.115740    2.583499
 H   -0.958185    0.751094    3.023759
 H   -0.385742    1.418028   -1.185792
 H   -2.716695    0.808326   -1.617627
 H    1.726268   -0.491478    2.898381
 H    0.640765   -1.294688    1.735313
 H    2.210707   -2.893663    2.644952
 H    3.605823   -1.916562    2.177076
 H    1.045777   -0.801870   -0.726631
 H    3.746588    1.686353   -0.546452
 H    2.634760    2.465438   -2.760629
 H    3.319937   -1.273615   -2.855123
 H    3.566658   -2.939377   -2.312286
 H    1.920792   -2.280655   -2.440246
 H    4.601900   -0.728347    0.598552
 H    5.129164   -2.101837   -0.394868
 H    4.903793   -0.501378   -1.126384
