48 
1zxc_ligand_ani.xyz
 C   -9.111780   -1.003692   -0.622446
 C   -7.695780   -0.658448   -0.745836
 C   -6.528513   -0.375704   -0.838696
 C   -5.113535   -0.015020   -0.944975
 O   -4.494017   -0.221299    0.314511
 C   -3.189951    0.152855    0.446081
 C   -2.648856    0.019454    1.729911
 C   -1.334512    0.382619    1.962223
 C   -0.552743    0.872076    0.919183
 C   -1.080730    1.006627   -0.357352
 C   -2.403857    0.640743   -0.596649
 S    1.110240    1.368695    1.260096
 O    1.247309    1.570059    2.687878
 O    1.407400    2.472060    0.352312
 N    2.091838    0.013137    0.872806
 C    1.823270   -1.091511    1.821098
 C    2.866381   -2.188770    1.727419
 S    2.874210   -2.945833    0.093009
 C    3.197632   -1.445442   -0.894105
 C    2.107196   -0.388946   -0.551074
 C    2.245103    0.830403   -1.473351
 O    1.474519    1.015508   -2.397241
 N    3.312373    1.652419   -1.212562
 O    3.150233    2.954648   -1.631410
 C    3.034485   -1.863831   -2.358279
 C    4.629735   -0.964058   -0.649938
 H   -9.704277   -0.124964   -0.347695
 H   -9.502603   -1.394308   -1.567588
 H   -9.260392   -1.767215    0.147994
 H   -5.019924    1.038372   -1.246162
 H   -4.621841   -0.629773   -1.712584
 H   -3.277707   -0.363560    2.526994
 H   -0.900325    0.301345    2.955739
 H   -0.470889    1.383383   -1.176709
 H   -2.806092    0.745687   -1.598397
 H    1.846123   -0.665718    2.826681
 H    0.824207   -1.517801    1.648442
 H    2.625162   -2.978952    2.445028
 H    3.859683   -1.805421    1.981280
 H    1.136216   -0.830834   -0.810876
 H    3.644050    1.613931   -0.251664
 H    2.337780    3.250385   -1.177729
 H    3.227481   -1.015920   -3.025099
 H    3.740211   -2.662494   -2.602475
 H    2.021040   -2.227499   -2.555216
 H    4.772100   -0.609610    0.375433
 H    5.323481   -1.793843   -0.817219
 H    4.881016   -0.153802   -1.337280
