87 
1zyr_ligand_ani.xyz
 C   -1.983296    0.704339   -0.684850
 C   -2.698167   -0.507610   -0.264659
 N   -4.046979   -0.198958   -0.219804
 C   -2.958770    1.743950   -0.902782
 C   -5.041487   -1.245621   -0.111610
 O   -2.734714    2.904654   -1.226299
 O   -2.252352   -1.610604    0.009509
 C   -0.619035    0.880724   -0.882118
 C    0.337470   -0.184024   -0.691126
 C    1.657036   -0.027775   -0.906453
 C    2.689539   -1.061326   -0.769733
 C    3.966248   -0.707894   -0.992035
 C    5.195299   -1.568839   -0.951381
 C    2.257091   -2.449354   -0.381041
 O   -0.147879    2.062126   -1.271605
 O   -6.009680   -0.840870    0.844455
 C   -5.712589   -1.577517   -1.448184
 C    6.264848   -0.916273   -0.057603
 C    5.718587   -1.787819   -2.373566
 C   -6.849260   -2.582438   -1.242126
 C    5.769269   -0.641891    1.365515
 O    6.642553    0.316432   -0.680978
 C    6.807067    0.227859    2.097706
 C    5.421835   -1.910012    2.138856
 C    7.529600    1.132806    0.056041
 C   -4.355045    1.162139   -0.647590
 C   -5.176797    2.027102    0.328653
 C   -6.675160    1.771099    0.102755
 C   -4.723788    1.917655    1.788035
 N   -7.518469    2.076199    1.110214
 O   -7.107436    1.352442   -0.975304
 C   -8.959487    1.945349    0.950696
 C   -6.968443   -1.859792    1.136113
 C   -7.795967   -2.144610   -0.118988
 O   -8.587726   -1.034176   -0.484466
 C   -7.800293   -1.412437    2.325160
 O    7.006240    1.413484    1.334643
 C    8.910796    0.457030    0.206910
 C    7.608302    2.458320   -0.673828
 C    8.127392   -0.447942    2.340428
 C    9.639203    0.072174   -1.010669
 C    9.121916   -0.281758    1.471884
 O   10.045463    1.194010   -0.254244
 H   -4.509585   -2.122648    0.271178
 H   -0.117664   -1.116016   -0.360039
 H    2.020106    0.951135   -1.217164
 H    4.178647    0.326223   -1.262232
 H    4.957855   -2.550392   -0.524900
 H    1.919568   -2.476148    0.661655
 H    3.058688   -3.180556   -0.502739
 H    1.416866   -2.779468   -0.999379
 H   -0.912168    2.678885   -1.361200
 H   -4.965359   -1.985966   -2.137286
 H   -6.113411   -0.660805   -1.892760
 H    7.140343   -1.585587   -0.026410
 H    5.931805   -0.827145   -2.849567
 H    4.964580   -2.309463   -2.970926
 H    6.635817   -2.386401   -2.375688
 H   -7.425101   -2.706502   -2.165700
 H   -6.438956   -3.567819   -0.979159
 H    4.874482   -0.014723    1.266501
 H    6.385782    0.561143    3.050922
 H    6.252736   -2.625070    2.143167
 H    5.172201   -1.671823    3.179269
 H    4.550207   -2.411755    1.706691
 H   -4.901044    1.149075   -1.595901
 H   -5.017964    3.059413   -0.015529
 H   -5.023563    0.958405    2.219235
 H   -3.634916    1.997097    1.859993
 H   -5.132410    2.736309    2.390912
 H   -7.157347    2.375314    2.001148
 H   -9.217691    0.935311    0.610992
 H   -9.441517    2.135676    1.912735
 H   -9.342946    2.660873    0.215776
 H   -6.420799   -2.780072    1.405375
 H   -8.493537   -2.965528    0.098530
 H   -7.992510   -0.316986   -0.775678
 H   -8.441067   -2.231797    2.670222
 H   -8.442398   -0.568452    2.061765
 H   -7.146854   -1.109808    3.148208
 H    8.035049    2.337643   -1.673785
 H    8.228102    3.156100   -0.104289
 H    6.596471    2.860630   -0.759980
 H    8.220656   -1.077943    3.223129
 H   10.318623   -0.780602   -0.981430
 H    9.206447    0.291970   -1.986438
 H   10.122678   -0.676096    1.631750
