87 
1zyr_ligand_xtb.xyz
 C   -2.002634    0.743953   -0.734478
 C   -2.717730   -0.488985   -0.386375
 N   -4.051196   -0.189701   -0.400512
 C   -2.961502    1.779671   -0.967601
 C   -5.040426   -1.220777   -0.257294
 O   -2.725006    2.949206   -1.262619
 O   -2.258886   -1.589709   -0.143854
 C   -0.640724    0.952834   -0.872461
 C    0.303703   -0.110230   -0.682228
 C    1.630025    0.054877   -0.867537
 C    2.629430   -0.977359   -0.736744
 C    3.911892   -0.645844   -0.966989
 C    5.121689   -1.519987   -0.925091
 C    2.155110   -2.350653   -0.364500
 O   -0.189152    2.154258   -1.206268
 O   -5.911886   -0.876007    0.799779
 C   -5.811125   -1.477441   -1.557967
 C    6.202804   -0.874384   -0.035699
 C    5.659240   -1.702723   -2.348923
 C   -6.855639   -2.566396   -1.322213
 C    5.743181   -0.689770    1.420069
 O    6.528421    0.381889   -0.615445
 C    6.808307    0.171301    2.138257
 C    5.514426   -2.009300    2.145237
 C    7.460024    1.150754    0.117951
 C   -4.339818    1.183103   -0.751199
 C   -5.097678    1.990428    0.321414
 C   -6.600436    1.734481    0.199611
 C   -4.521965    1.735067    1.713281
 N   -7.331261    2.101873    1.262284
 O   -7.103933    1.294195   -0.821001
 C   -8.773408    2.043042    1.295025
 C   -6.826535   -1.919030    1.094788
 C   -7.739600   -2.195526   -0.120866
 O   -8.592692   -1.119261   -0.392005
 C   -7.630767   -1.506035    2.319042
 O    6.989876    1.381990    1.421071
 C    8.822613    0.423501    0.158893
 C    7.558805    2.509052   -0.567682
 C    8.123319   -0.535821    2.291082
 C    9.419849   -0.014255   -1.115545
 C    9.069118   -0.381391    1.375463
 O    9.931903    1.070747   -0.406713
 H   -4.479071   -2.132124    0.020110
 H   -0.133481   -1.055391   -0.401839
 H    1.987366    1.037441   -1.148388
 H    4.144385    0.375381   -1.238126
 H    4.898096   -2.502909   -0.507409
 H    1.680085   -2.328306    0.614936
 H    2.967352   -3.069523   -0.342719
 H    1.414102   -2.693552   -1.083851
 H   -0.963087    2.764146   -1.317932
 H   -5.107084   -1.779396   -2.334806
 H   -6.306292   -0.556376   -1.866784
 H    7.095216   -1.523687   -0.047061
 H    5.934629   -0.737415   -2.763072
 H    4.897832   -2.155146   -2.979478
 H    6.537457   -2.344318   -2.341031
 H   -7.482005   -2.682589   -2.207837
 H   -6.363178   -3.519839   -1.117589
 H    4.815853   -0.106693    1.405630
 H    6.432753    0.478592    3.119897
 H    6.369337   -2.670396    2.020675
 H    5.369896   -1.827496    3.207762
 H    4.627279   -2.507580    1.765670
 H   -4.924440    1.236780   -1.679146
 H   -4.946752    3.045391    0.050826
 H   -4.821203    0.750806    2.062770
 H   -3.434979    1.770804    1.670013
 H   -4.843117    2.490240    2.427895
 H   -6.869466    2.465913    2.078287
 H   -9.116272    1.481710    0.427919
 H   -9.111451    1.547486    2.205376
 H   -9.199171    3.049067    1.259860
 H   -6.253564   -2.837681    1.312097
 H   -8.399597   -3.036149    0.124370
 H   -8.051639   -0.334183   -0.596677
 H   -8.196136   -2.355974    2.689798
 H   -8.321458   -0.715139    2.043700
 H   -6.962304   -1.149157    3.097668
 H    7.834145    2.381315   -1.609049
 H    8.304754    3.110461   -0.059105
 H    6.589257    2.992605   -0.503196
 H    8.275519   -1.131920    3.176279
 H   10.039423   -0.904731   -1.133124
 H    8.904486    0.215568   -2.040608
 H   10.053248   -0.816640    1.468985
