39 
1zz1_ligand_ani.xyz
 O   24.762011   34.268876   53.180822
 O   25.434281   33.539522   50.801684
 N   23.825282   34.309837   52.153458
 C   24.245553   33.788833   50.962131
 C   23.164203   33.619433   49.915867
 C   23.745394   33.218385   48.563440
 C   22.679650   32.855235   47.530342
 C   21.692298   33.984109   47.239331
 C   20.743371   33.650906   46.089188
 C   19.722154   34.746106   45.796182
 C   20.352249   36.016176   45.230672
 O   21.486915   36.040148   44.787228
 N   19.516639   37.107429   45.249820
 C   19.766431   38.416697   44.789335
 C   18.783203   39.382887   45.031796
 C   18.961318   40.691024   44.601633
 C   20.120393   41.052412   43.921247
 C   21.093668   40.088216   43.680188
 C   20.931665   38.773662   44.105665
 H   25.561339   33.967866   52.698944
 H   22.909036   34.076019   52.511015
 H   22.453504   32.856929   50.268730
 H   22.600166   34.559511   49.849015
 H   24.363791   34.043275   48.189258
 H   24.426773   32.375853   48.718044
 H   23.178338   32.566064   46.595109
 H   22.126648   31.966766   47.871641
 H   21.101599   34.205181   48.139158
 H   22.244826   34.898845   46.990966
 H   21.327173   33.473580   45.178131
 H   20.207011   32.720354   46.317270
 H   18.989732   34.384288   45.060302
 H   19.150711   34.998761   46.700319
 H   18.607625   36.974673   45.667225
 H   17.873481   39.110151   45.563456
 H   18.188854   41.430076   44.799272
 H   20.264911   42.074235   43.581860
 H   22.004362   40.358141   43.150114
 H   21.692440   38.027542   43.917141
