53 
2a0c_ligand_dft.xyz
 O    3.242550   -0.778089    1.941013
 C    4.172472   -0.813370    0.954512
 C    5.476072   -1.170411    1.297819
 C    6.465941   -1.208507    0.324016
 C    6.165213   -0.904450   -1.001520
 C    4.863453   -0.548234   -1.337445
 C    3.857405   -0.484038   -0.374976
 C    2.469393   -0.013935   -0.727080
 N    1.457981   -0.966093   -0.263427
 C    0.132099   -0.617476   -0.215029
 C   -0.875173   -1.593254   -0.166350
 N   -0.855152   -2.974290   -0.209448
 C   -2.116692   -3.299439   -0.134361
 C   -2.176533   -1.107161   -0.069158
 N   -2.974382   -2.221667   -0.043287
 C   -4.434546   -2.227831    0.038658
 C   -5.045110   -2.740444   -1.264930
 C   -4.903658   -3.017463    1.259475
 N   -2.555362    0.170962   -0.016687
 C   -1.504984    0.998698   -0.082028
 N   -0.198038    0.671079   -0.181767
 N   -1.793139    2.336936   -0.070205
 C   -0.796847    3.376889    0.178919
 C   -1.468278    4.575896    0.851981
 C   -2.033448    4.276306    2.239801
 C   -0.133134    3.765630   -1.148142
 O   -1.079527    4.217377   -2.092223
 H    2.361884   -0.811704    1.526741
 H    5.688549   -1.414234    2.333530
 H    7.478572   -1.485900    0.602236
 H    6.935251   -0.942916   -1.765011
 H    4.619368   -0.302732   -2.368580
 H    2.246293    0.939449   -0.238701
 H    2.383413    0.153977   -1.808661
 H    1.615593   -1.934300   -0.518888
 H   -2.493720   -4.313743   -0.140082
 H   -4.700624   -1.174740    0.168623
 H   -4.686165   -2.155057   -2.115997
 H   -6.136081   -2.662616   -1.224777
 H   -4.787433   -3.791954   -1.434278
 H   -4.662210   -4.081735    1.161434
 H   -5.989183   -2.929899    1.366166
 H   -4.433647   -2.637849    2.170902
 H   -2.753389    2.535280    0.168821
 H   -0.022761    2.970981    0.843033
 H   -2.249390    4.960577    0.184833
 H   -0.719270    5.372207    0.929981
 H   -1.246710    3.920281    2.914173
 H   -2.813120    3.507082    2.213609
 H   -2.474519    5.175143    2.681553
 H    0.429639    2.900987   -1.526689
 H    0.570155    4.588867   -0.987058
 H   -1.719906    3.497320   -2.178455
