47 
2a14_ligand_xtb.xyz
 N    2.883863    0.214666   -1.134624
 C    3.030266   -0.700018    0.022926
 C    2.433661   -2.082660   -0.268860
 C    0.921882   -2.154537   -0.102801
 S    0.010741   -1.080493   -1.289533
 C    4.544869   -0.830654    0.239340
 O    4.857845   -1.463532    1.341604
 O    5.313682   -0.389122   -0.574075
 C   -1.531285   -2.013584   -1.498029
 C   -2.593020   -1.689700   -0.447111
 O   -2.029225   -1.585840    0.853880
 C   -3.362218   -0.384528   -0.716340
 O   -4.557272   -0.701384   -1.369562
 C   -3.604028    0.180055    0.705148
 O   -4.794595   -0.292835    1.251531
 C   -2.403241   -0.381287    1.480516
 N   -1.252917    0.505458    1.465305
 C   -0.097011    0.214641    2.135933
 N    0.939858    0.890480    1.744031
 C    0.462183    1.711469    0.753088
 C    1.059136    2.597727   -0.140740
 N    2.452037    2.724282   -0.229763
 N    0.316476    3.221232   -1.037566
 C   -0.986073    2.975933   -1.072787
 N   -1.658605    2.113553   -0.337217
 C   -0.920193    1.481448    0.568116
 H    3.775406    0.144509   -1.662890
 H    2.769265    1.248951   -0.821029
 H    2.079421   -0.054859   -1.714287
 H    2.553184   -0.266221    0.912205
 H    2.713784   -2.390932   -1.278655
 H    2.868760   -2.796007    0.433922
 H    0.588989   -3.172816   -0.295964
 H    0.623977   -1.870632    0.904532
 H    5.819125   -1.555415    1.462334
 H   -1.262774   -3.068736   -1.467868
 H   -1.911038   -1.766572   -2.488912
 H   -3.321811   -2.513902   -0.446999
 H   -2.750376    0.319115   -1.295468
 H   -4.996723    0.108037   -1.657524
 H   -3.599558    1.275719    0.718334
 H   -5.262382   -0.807352    0.573238
 H   -2.663854   -0.599114    2.521958
 H   -0.073260   -0.522091    2.915653
 H    2.902709    2.767327    0.678210
 H    2.711078    3.509171   -0.819939
 H   -1.553816    3.527873   -1.806881
