135 
2a25_ligand_xtb.xyz
 N   -0.940945    0.117416    1.136951
 C    0.118693   -0.911561    1.150326
 C   -0.062554   -1.928416    0.004750
 O   -0.783606   -2.904931    0.127347
 C    0.030304   -1.668413    2.483806
 C    1.083027   -2.773056    2.631573
 C    2.364711   -2.267404    3.294330
 C    3.528485   -3.237866    3.134726
 N    4.026667   -3.182814    1.743699
 N    0.673905   -1.730286   -1.093927
 C    0.952092   -2.790144   -2.054753
 C    2.363806   -3.250099   -1.650905
 O    2.564527   -3.642720   -0.510422
 C    0.807050   -2.062712   -3.385972
 C    1.343714   -0.651315   -3.087293
 C    1.374046   -0.546483   -1.547268
 N    3.359709   -3.062527   -2.526606
 C    4.747842   -3.328950   -2.177735
 C    5.247034   -2.280879   -1.169960
 O    5.800371   -2.593297   -0.135680
 C    5.621945   -3.339556   -3.424113
 N    5.014268   -0.999999   -1.514048
 C    5.397249    0.122125   -0.671886
 C    4.295183    0.353179    0.374580
 O    3.691445   -0.608949    0.842738
 C    5.749787    1.327316   -1.531733
 N    4.013873    1.606845    0.739674
 C    3.122186    1.883520    1.851917
 C    1.759446    2.472903    1.452193
 O    0.758007    2.144082    2.061089
 C    3.792340    2.765486    2.931627
 C    4.173251    4.154818    2.427611
 C    5.011932    2.047480    3.507330
 N    1.770972    3.376710    0.464297
 C    0.594204    4.110265    0.042872
 C   -0.410972    3.157456   -0.633020
 O   -0.151285    1.969601   -0.767425
 C    0.987188    5.286887   -0.872781
 C    1.891416    6.283657   -0.149725
 C    1.631763    4.798223   -2.170441
 N   -1.522345    3.756393   -1.068363
 C   -2.706551    3.089843   -1.595280
 C   -3.435256    2.398301   -0.424589
 O   -2.805364    2.033168    0.557045
 C   -2.353093    2.072423   -2.680093
 N   -4.758194    2.269639   -0.538438
 C   -5.495015    1.536823    0.479896
 C   -5.046685    0.068517    0.450960
 O   -4.193776   -0.335419   -0.315738
 C   -6.962467    1.732946    0.095348
 C   -6.889804    1.852132   -1.424602
 C   -5.620372    2.673721   -1.637440
 N   -5.649267   -0.705350    1.364904
 C   -5.298697   -2.104373    1.532199
 C   -3.806405   -2.222953    1.230654
 O   -3.014421   -1.479553    1.786706
 C   -6.242201   -3.089764    0.804472
 C   -6.677457   -2.651020   -0.599394
 C   -7.480743   -3.311699    1.676585
 C   -5.604297   -2.795057   -1.671160
 O   -3.450027   -3.219005    0.475280
 H   -1.866590   -0.338866    1.332477
 H   -0.750372    0.828648    1.859881
 H   -0.995767    0.668133    0.259847
 H    1.091716   -0.426655    1.042519
 H    0.127761   -0.953848    3.301490
 H   -0.963924   -2.109603    2.539392
 H    0.668554   -3.576664    3.239604
 H    1.301365   -3.191186    1.649599
 H    2.179206   -2.106247    4.356027
 H    2.653550   -1.312286    2.856466
 H    4.343248   -2.957639    3.804279
 H    3.218183   -4.256290    3.371769
 H    4.950650   -3.606429    1.614709
 H    3.376524   -3.612707    1.056244
 H    4.092773   -2.188380    1.427964
 H    0.252983   -3.616722   -1.911975
 H    1.305525   -2.553809   -4.218646
 H   -0.253920   -2.014310   -3.630169
 H    2.336212   -0.497410   -3.510002
 H    0.688531    0.106553   -3.511247
 H    0.886447    0.358827   -1.199459
 H    2.402062   -0.564493   -1.174228
 H    3.158006   -2.861230   -3.493049
 H    4.808795   -4.299209   -1.669805
 H    5.303533   -4.130188   -4.099123
 H    6.654992   -3.529491   -3.146185
 H    5.576858   -2.387306   -3.949368
 H    4.550109   -0.787764   -2.383113
 H    6.277352   -0.214146   -0.103160
 H    4.864487    1.741134   -2.012603
 H    6.240625    2.100086   -0.945978
 H    6.451583    1.023513   -2.305088
 H    4.594400    2.363641    0.412447
 H    2.896808    0.915997    2.314613
 H    3.050395    2.882240    3.727378
 H    4.623939    4.716921    3.240880
 H    3.299109    4.705458    2.092394
 H    4.905560    4.112237    1.622195
 H    4.740682    1.068954    3.896141
 H    5.786938    1.919295    2.754117
 H    5.430285    2.629582    4.322910
 H    2.613898    3.540489   -0.059999
 H    0.100687    4.486716    0.949610
 H    0.066636    5.814881   -1.137069
 H    1.441716    6.606395    0.785955
 H    2.870155    5.861190    0.063894
 H    2.039587    7.161286   -0.772753
 H    1.013524    4.043099   -2.650610
 H    1.748756    5.631721   -2.857261
 H    2.620729    4.377154   -1.998344
 H   -1.669330    4.711635   -0.780908
 H   -3.338984    3.874630   -2.017525
 H   -3.254852    1.624164   -3.084650
 H   -1.736960    1.279821   -2.268339
 H   -1.813656    2.564918   -3.486241
 H   -5.248237    1.935289    1.470316
 H   -7.597497    0.910913    0.417235
 H   -7.342055    2.657763    0.530638
 H   -7.766689    2.329223   -1.854041
 H   -6.770712    0.864252   -1.871027
 H   -5.169050    2.472961   -2.607873
 H   -5.836833    3.745837   -1.558937
 H   -6.343204   -0.316853    1.982465
 H   -5.365754   -2.319926    2.607971
 H   -5.703066   -4.037008    0.717996
 H   -7.032816   -1.618029   -0.569790
 H   -7.527751   -3.274230   -0.881839
 H   -7.204735   -3.650218    2.672651
 H   -8.119715   -4.069840    1.233045
 H   -8.060920   -2.395740    1.768774
 H   -6.031118   -2.581659   -2.648663
 H   -4.781740   -2.108308   -1.498336
 H   -5.213876   -3.808991   -1.681581
 H   -2.469519   -3.245679    0.342877
