27 
2a2g_ligand_dft.xyz
 C    0.232558   -1.237270   -0.281760
 C   -2.009737    0.100663   -0.051202
 C    0.223642    1.167937    0.493785
 C   -1.225428    1.393428    0.062207
 C    0.905671    0.142722   -0.423753
 C   -1.280021   -1.168058   -0.211498
 C   -3.429399    0.232615   -0.547414
 O   -1.838048   -0.792720    1.050369
 C    2.402177    0.047285   -0.202433
 C    3.253010    0.110124   -1.227142
 C    2.886348   -0.123552    1.215229
 H    0.531139   -1.869412   -1.125245
 H    0.580651   -1.741539    0.628067
 H    0.240948    0.813711    1.530706
 H    0.768234    2.118419    0.461690
 H   -1.738985    2.055057    0.771287
 H   -1.248203    1.896623   -0.913971
 H    0.745191    0.477210   -1.458422
 H   -1.809998   -1.997301   -0.684213
 H   -4.005746    0.885146    0.117953
 H   -3.921193   -0.743525   -0.578405
 H   -3.450005    0.669393   -1.551782
 H    2.905890    0.250432   -2.248155
 H    4.327219    0.023590   -1.084910
 H    2.387984   -0.961510    1.716901
 H    2.673697    0.771762    1.811912
 H    3.964642   -0.301663    1.247520
