52 
2a4l_ligand_ani.xyz
 O    4.367131    0.949715   -1.233168
 C    3.925612    2.281445   -1.211028
 C    2.983141    2.597965   -0.038675
 C    3.040602    4.068276    0.365326
 C    2.302044    4.360435    1.669472
 N    1.600895    2.254508   -0.352758
 C    1.083658    1.012087   -0.231033
 N    1.958098   -0.002367   -0.074256
 C    1.350275   -1.180263    0.053209
 N    1.937236   -2.408491    0.244366
 C    3.376779   -2.672700    0.346779
 C    3.880100   -3.439880   -0.872391
 C    3.712609   -3.390710    1.650062
 C    0.894596   -3.307053    0.296204
 C   -0.015840   -1.420159    0.013803
 N   -0.288891   -2.765558    0.166411
 N   -0.263710    0.931060   -0.296605
 C   -0.823312   -0.274120   -0.170322
 N   -2.165544   -0.367746   -0.220289
 C   -2.991221    0.820910   -0.348808
 C   -4.452071    0.488438   -0.174142
 C   -5.189126   -0.025646   -1.240241
 C   -6.529189   -0.364860   -1.075703
 C   -7.142988   -0.200305    0.163316
 C   -6.411371    0.302745    1.235130
 C   -5.072449    0.643401    1.064921
 H    3.602722    0.388677   -1.002654
 H    4.824684    2.903754   -1.122629
 H    3.414018    2.566357   -2.146380
 H    3.309312    1.969873    0.800965
 H    2.631987    4.672175   -0.457237
 H    4.092772    4.361850    0.473150
 H    1.236212    4.117641    1.596488
 H    2.719620    3.765238    2.489730
 H    2.386971    5.416730    1.942326
 H    0.909940    2.988295   -0.410855
 H    3.847985   -1.683693    0.363643
 H    4.969223   -3.543784   -0.824320
 H    3.443317   -4.444451   -0.912749
 H    3.622582   -2.913815   -1.795178
 H    3.334716   -2.831624    2.510081
 H    4.798821   -3.488321    1.750590
 H    3.281077   -4.398236    1.672727
 H    1.073496   -4.367645    0.427786
 H   -2.574301   -1.280600   -0.079390
 H   -2.803433    1.271648   -1.331221
 H   -2.665060    1.556593    0.395760
 H   -4.703485   -0.159936   -2.205202
 H   -7.095151   -0.759552   -1.916244
 H   -8.189739   -0.464856    0.293353
 H   -6.883277    0.432811    2.206416
 H   -4.499733    1.037286    1.903039
