52 
2a4l_ligand_xtb.xyz
 O    3.924123    1.579856   -0.647380
 C    3.199701    2.743721   -0.932180
 C    2.006803    2.944475    0.028512
 C    1.671034    4.422562    0.228352
 C    0.613824    4.632575    1.307008
 N    0.823778    2.256890   -0.442060
 C    0.655693    0.917507   -0.462687
 N    1.659958    0.152624   -0.027632
 C    1.370097   -1.149843   -0.057321
 N    2.153539   -2.198200    0.315454
 C    3.507669   -2.108847    0.817172
 C    4.491684   -2.640461   -0.223508
 C    3.636555   -2.849960    2.146301
 C    1.399326   -3.317254    0.079748
 C    0.162003   -1.701455   -0.501685
 N    0.218585   -3.069771   -0.398414
 N   -0.538657    0.508364   -0.913469
 C   -0.814661   -0.792999   -0.952042
 N   -1.988843   -1.217836   -1.456130
 C   -3.088372   -0.325010   -1.746105
 C   -4.018841   -0.191614   -0.566204
 C   -5.277738   -0.775006   -0.570686
 C   -6.102042   -0.672704    0.537167
 C   -5.670280    0.006880    1.662627
 C   -4.412265    0.587037    1.676427
 C   -3.591736    0.489595    0.567932
 H    3.263471    0.883773   -0.446792
 H    3.905596    3.574279   -0.839180
 H    2.822698    2.725306   -1.967780
 H    2.289088    2.497946    0.991393
 H    1.324041    4.838600   -0.720841
 H    2.581512    4.952606    0.510743
 H   -0.300905    4.097067    1.065991
 H    0.977062    4.270600    2.265894
 H    0.378756    5.689618    1.405417
 H    0.110893    2.790790   -0.910620
 H    3.693573   -1.040385    0.974155
 H    5.509526   -2.526322    0.138514
 H    4.306206   -3.693920   -0.422981
 H    4.391708   -2.085058   -1.152893
 H    2.888595   -2.495978    2.852352
 H    4.622475   -2.676088    2.568659
 H    3.504242   -3.920491    2.007319
 H    1.762106   -4.305978    0.278557
 H   -2.190576   -2.196652   -1.319884
 H   -3.627052   -0.706409   -2.618250
 H   -2.641353    0.642807   -1.983984
 H   -5.618253   -1.308615   -1.447145
 H   -7.082025   -1.126896    0.521977
 H   -6.312330    0.084676    2.527658
 H   -4.072040    1.118207    2.553475
 H   -2.609247    0.937974    0.570073
