24 
2a4z_ligand_ani.xyz
 C   40.187064   14.139838   32.538863
 C   40.828043   15.823060   34.112524
 C   45.704634   14.161901   30.262423
 C   45.840407   13.263492   29.224111
 C   44.535382   14.345446   30.950319
 C   44.804668   12.470382   28.789160
 C   47.803274   14.278043   29.514851
 C   43.444261   13.548320   30.534319
 C   43.597623   12.637120   29.474655
 N   39.861647   14.980681   33.594046
 S   42.349558   15.564254   33.195073
 C   41.622152   14.343634   32.163459
 O   40.682028   16.595527   35.018306
 O   39.417651   13.366632   32.014036
 O   46.920085   14.788761   30.440768
 O   47.135406   13.335771   28.763271
 F   48.865724   13.732175   30.123366
 C   42.124292   13.608917   31.150888
 F   48.286186   15.252938   28.731747
 H   44.442145   15.055747   31.765209
 H   44.902736   11.760600   27.972575
 H   42.742999   12.035609   29.173590
 H   38.930353   14.984926   33.987165
 H   41.396686   12.930226   30.712274
