33 
2a5b_ligand_ani.xyz
 O   -4.424724   -0.735513    0.324758
 C   -3.217062   -0.728834    0.207337
 N   -2.468304   -1.942073    0.262160
 C   -1.104527   -2.051986    0.130706
 N   -0.556209   -3.297321    0.202629
 N   -0.332783   -1.005765   -0.017529
 C   -0.973762    0.175256   -0.065705
 C   -2.327127    0.378578    0.008976
 N   -2.537185    1.742334   -0.125802
 C   -1.331942    2.400815   -0.271799
 O   -1.135101    3.590442   -0.403518
 N   -0.357469    1.392862   -0.237355
 C    1.069508    1.669214   -0.182415
 O    1.739725    0.840300   -1.115262
 C    1.707393    1.391360    1.191584
 C    2.489328    0.098207    0.967113
 O    3.668712   -0.039463    1.733868
 C    2.868049    0.202558   -0.502016
 C    3.121793   -1.122424   -1.205130
 O    2.028588   -2.001849   -1.078471
 H   -3.033266   -2.764619    0.444662
 H   -1.118790   -4.076701   -0.101614
 H    0.413376   -3.342849   -0.092584
 H   -3.422657    2.223755   -0.103221
 H    1.166273    2.714388   -0.485016
 H    0.968223    1.306245    1.991956
 H    2.405082    2.196531    1.445387
 H    1.811324   -0.754261    1.097585
 H    3.410877   -0.314221    2.621844
 H    3.759783    0.844151   -0.599165
 H    4.000745   -1.602334   -0.754937
 H    3.350010   -0.914352   -2.261992
 H    1.225156   -1.453794   -1.154520
