32 
2a5c_ligand_ani.xyz
 O   -1.966704   -2.461324    0.210898
 C   -2.723453   -1.942817   -0.850927
 C   -2.855531   -0.428887   -0.776451
 C   -3.224847    0.084150    0.620994
 O   -4.156595    1.138660    0.437534
 O   -1.585503    0.144718   -1.110399
 C   -1.167736    1.040668   -0.098390
 C   -1.880857    0.569108    1.166930
 N    0.272700    1.016986   -0.006737
 C    1.090365   -0.088157    0.089494
 N    0.709642   -1.354955    0.232315
 C    2.404756    0.339676    0.003149
 N    2.364775    1.727075   -0.166570
 C    1.054410    2.166526   -0.158684
 O    0.650516    3.305572   -0.264475
 C    3.403090   -0.628294    0.066299
 N    4.740502   -0.341589    0.032792
 N    3.040872   -1.915924    0.225680
 C    1.747189   -2.199256    0.293440
 H   -1.063989   -2.095619    0.138485
 H   -2.297885   -2.211276   -1.830413
 H   -3.723783   -2.390392   -0.781660
 H   -3.594399   -0.077571   -1.506172
 H   -3.661792   -0.715921    1.237899
 H   -4.419196    1.458433    1.309511
 H   -1.438206    2.064065   -0.371564
 H   -1.983651    1.363054    1.913625
 H   -1.334547   -0.274508    1.597341
 H    3.122176    2.387494   -0.106455
 H    5.038943    0.478800   -0.474769
 H    5.333876   -1.151701   -0.084931
 H    1.504985   -3.253317    0.413145
