32 
2a8g_ligand_xtb.xyz
 O    1.619805    2.265839   -0.063812
 C    2.478357    1.794479    0.933417
 C    2.817522    0.301334    0.782060
 O    1.701675   -0.490158    1.172349
 C    1.320387   -1.368328    0.140114
 N   -0.112379   -1.478860    0.115812
 C   -0.869975   -2.617855    0.247829
 N   -2.143592   -2.399591    0.208925
 C   -2.277397   -1.045090    0.057101
 C   -1.010741   -0.462832    0.000093
 N   -0.733022    0.851906   -0.144208
 C   -1.785365    1.624655   -0.206993
 N   -3.057037    1.146622   -0.166788
 C   -3.444622   -0.217423   -0.033697
 O   -4.620864   -0.484771   -0.016880
 N   -1.595889    2.958569   -0.284710
 C    1.905463   -0.795379   -1.157280
 C    3.168486   -0.087945   -0.671653
 O    4.239811   -0.998064   -0.749719
 H    0.818653    1.691354   -0.058648
 H    2.040281    1.937335    1.930999
 H    3.397348    2.383751    0.863374
 H    3.653438    0.059292    1.454396
 H    1.718752   -2.376290    0.340241
 H   -0.422877   -3.585052    0.361312
 H   -3.833729    1.795578   -0.212692
 H   -2.354042    3.577765   -0.504866
 H   -0.648266    3.284214   -0.383777
 H    2.148160   -1.572037   -1.877407
 H    1.210184   -0.078931   -1.591211
 H    3.381676    0.810355   -1.264772
 H    5.047751   -0.574327   -0.441597
