51 
2a8h_ligand_ani.xyz
 C   -4.141878    0.485974    1.294023
 C   -2.899759    1.238736    0.802053
 C   -1.734763    0.225499    0.660703
 N   -1.999195   -0.743002   -0.407854
 C   -2.087935   -0.218400   -1.773913
 C   -3.317028    0.665128   -1.898423
 S   -3.257025    2.081570   -0.777802
 S   -1.491220   -2.322885   -0.178952
 O   -1.852087   -3.047978   -1.385202
 O   -1.972875   -2.746211    1.123925
 C    0.273448   -2.224189   -0.091922
 C    0.980003   -1.689888   -1.162113
 C    2.325488   -1.377619   -1.018567
 C    2.970177   -1.645951    0.190140
 C    2.273166   -2.282227    1.226359
 C    0.931162   -2.586575    1.080793
 O    4.277138   -1.343467    0.457676
 C    4.968719   -0.490097   -0.441602
 C    4.425996    0.875633   -0.509632
 C    3.956178    1.982620   -0.619952
 C    3.360260    3.327473   -0.749857
 N    2.028066    3.391033   -0.067631
 C   -0.365084    0.909575    0.459868
 O   -0.088176    1.642585   -0.488960
 N    0.495385    0.621867    1.457510
 O    1.729458    1.218749    1.558740
 C   -2.518515    2.333980    1.798745
 H   -5.011068    1.149160    1.308379
 H   -4.364117   -0.377106    0.658604
 H   -3.968511    0.118770    2.312671
 H   -1.707823   -0.336585    1.598128
 H   -2.168204   -1.065204   -2.459659
 H   -1.180974    0.353525   -1.994145
 H   -4.224649    0.079031   -1.714761
 H   -3.383612    1.074561   -2.911194
 H    0.480667   -1.496472   -2.109498
 H    2.850556   -0.922269   -1.851510
 H    2.804515   -2.502820    2.147465
 H    0.372763   -3.060691    1.883957
 H    5.994548   -0.480346   -0.070428
 H    4.984966   -0.931004   -1.446543
 H    3.230679    3.575052   -1.802722
 H    4.020820    4.071950   -0.305963
 H    1.345970    2.735062   -0.514115
 H    1.630126    4.343354   -0.075776
 H    2.143741    3.079324    0.913542
 H    0.280032   -0.029321    2.200632
 H    2.307789    0.808097    0.889184
 H   -3.362757    3.010971    1.954525
 H   -1.665647    2.922159    1.449440
 H   -2.253157    1.885097    2.764040
