22 
2aa9_ligand_dft.xyz
 O   -3.044613   -0.331824   -0.350802
 C   -1.671631   -0.102612   -0.585418
 C   -1.137521    0.997719    0.317406
 O   -1.988959    2.117204    0.117535
 C    0.317128    1.286330   -0.033523
 C    1.113993    0.006195   -0.090646
 C    2.589791    0.166447   -0.005279
 O    3.274416   -0.988496   -0.114213
 O    3.145028    1.232575    0.143223
 C    0.549509   -1.202217   -0.194787
 C   -0.937559   -1.415166   -0.297219
 O   -1.386470   -1.970148    0.922825
 H   -3.431987    0.542685   -0.198303
 H   -1.501616    0.189170   -1.633943
 H   -1.209569    0.640013    1.354660
 H   -1.816789    2.761616    0.813253
 H    0.355553    1.803753   -1.000968
 H    0.772778    1.965219    0.694865
 H    4.211216   -0.749696   -0.036669
 H    1.169088   -2.093332   -0.189838
 H   -1.138270   -2.114470   -1.124883
 H   -2.347895   -1.839627    0.910071
