65 
2aei_ligand_dft.xyz
 C   -0.619973    1.438248    0.117673
 N   -1.282397    0.609381    0.900706
 C    0.698814    1.225349   -0.246048
 O   -1.213716    2.559148   -0.353455
 C   -0.664629   -0.488653    1.301414
 C    1.394494    0.090818    0.190017
 F    1.344532    2.094369   -1.047167
 C   -2.521148    2.819733   -0.001356
 C    0.651058   -0.789255    0.995233
 O   -1.356893   -1.375041    2.075566
 N    2.709675   -0.055693   -0.162802
 C   -3.616951    2.171062   -0.588825
 C   -2.711646    3.847063    0.913954
 F    1.190902   -1.935964    1.448529
 C   -2.637431   -1.662190    1.654633
 C    3.419357   -1.335193   -0.251075
 C   -4.902136    2.583572   -0.218867
 C   -3.453911    1.058002   -1.564525
 C   -3.996155    4.241060    1.265996
 C   -2.896676   -1.975622    0.325698
 C   -3.647209   -1.681053    2.606414
 C    4.895908   -1.040464   -0.518498
 C    2.822379   -2.252092   -1.320604
 C   -5.096666    3.605518    0.699428
 O   -2.399279    0.528293   -1.852477
 O   -4.621099    0.675615   -2.097863
 C   -4.195959   -2.280832   -0.074449
 C   -4.941855   -1.996308    2.207969
 C    5.583073   -0.247629    0.601367
 C   -5.222500   -2.283667    0.877075
 C   -4.483879   -2.554282   -1.518690
 C    7.032741    0.030405    0.285337
 N   -3.809552   -2.112898   -2.519880
 N   -5.627919   -3.284620   -1.759110
 C    8.026806   -0.893323    0.615649
 C    7.404936    1.195405   -0.388973
 C    9.358047   -0.659283    0.285078
 C    8.734644    1.434612   -0.722834
 C    9.716160    0.506597   -0.386509
 H    2.988760    0.611802   -0.870650
 H   -1.835738    4.325524    1.338149
 H    3.336680   -1.822386    0.722901
 H   -5.752601    2.083100   -0.665801
 H   -4.134332    5.042158    1.985692
 H   -2.082528   -1.970091   -0.391360
 H   -3.411167   -1.433995    3.635527
 H    4.995079   -0.497506   -1.470345
 H    5.417862   -1.993997   -0.661174
 H    1.765596   -2.449752   -1.118924
 H    3.347781   -3.212491   -1.341915
 H    2.904487   -1.792534   -2.312269
 H   -6.104182    3.904708    0.969550
 H   -4.462699   -0.141930   -2.615140
 H   -5.742934   -1.994125    2.940417
 H    5.504644   -0.813922    1.537781
 H    5.046473    0.693656    0.762114
 H   -6.245730   -2.472977    0.570113
 H   -3.021381   -1.540728   -2.215494
 H   -5.721961   -3.569506   -2.724846
 H   -5.864122   -4.000830   -1.088309
 H    7.753588   -1.804716    1.143195
 H    6.643325    1.926763   -0.650628
 H   10.117426   -1.387083    0.555965
 H    9.004564    2.349467   -1.242526
 H   10.755287    0.692855   -0.640933
