41 
2ael_ligand_ani.xyz
 C    1.177937   -1.490563   -0.685169
 C    2.427931   -1.157514    0.128536
 C    0.993418   -0.400803   -1.749350
 C    2.308448    0.200585    0.830051
 C    1.127671    0.998643   -1.201511
 N   -0.070098   -1.593395    0.185218
 C   -2.312473    0.199354   -0.614976
 C   -2.513592   -1.228843   -0.187866
 C   -1.295988   -2.090514   -0.541704
 C   -1.969547    1.239464    0.153153
 C   -1.725282    1.148605    1.637894
 C   -1.863392    2.626653   -0.429841
 C    0.127908   -2.381743    1.429418
 C    1.758721    1.289996   -0.062850
 C    1.951257    2.693715    0.435567
 H    1.311041   -2.464263   -1.174374
 H    2.657027   -1.953490    0.845888
 H    3.268998   -1.127470   -0.574222
 H    1.754106   -0.559645   -2.526900
 H    0.032157   -0.505122   -2.261386
 H    1.656224    0.121750    1.712135
 H    3.287418    0.508608    1.218986
 H    0.696343    1.800617   -1.801217
 H   -0.291427   -0.619476    0.440352
 H   -2.440134    0.387850   -1.684088
 H   -2.700418   -1.288420    0.890951
 H   -3.396487   -1.647952   -0.684027
 H   -1.113038   -2.064046   -1.616984
 H   -1.456133   -3.138128   -0.271342
 H   -1.437996    0.139147    1.954033
 H   -2.619259    1.438196    2.206609
 H   -0.923372    1.832539    1.939449
 H   -1.926645    2.605321   -1.523855
 H   -2.662444    3.278397   -0.052138
 H   -0.915632    3.096578   -0.144279
 H   -0.834737   -2.566436    1.913056
 H    0.766726   -1.847738    2.133945
 H    0.585345   -3.352214    1.195949
 H    1.603351    3.430953   -0.296374
 H    1.421261    2.863598    1.382182
 H    3.010307    2.902405    0.633025
