66 
2aez_ligand_ani.xyz
 C    1.574160   -0.300587    0.939705
 C   -0.636903    0.306209   -0.962015
 C   -1.748055   -2.433450   -1.235178
 C    2.825714   -0.170883    1.797667
 C    0.325894    1.329826   -0.343366
 C   -2.308219   -1.326548   -0.341639
 C    4.054043   -0.341496    0.924437
 C   -0.319472    2.183356    0.781602
 C   -2.976577   -1.915382    0.926779
 C    3.992575   -1.675054    0.193181
 C   -1.081676    3.237359   -0.026944
 C   -4.462799   -1.859045    0.603372
 C    2.681474   -1.762270   -0.604521
 C   -0.146828    3.456364   -1.221337
 C   -4.571722   -0.662642   -0.354007
 C    2.441501   -3.126136   -1.229749
 C    0.805517    4.634537   -1.078141
 C   -4.858065    0.686226    0.313981
 O    1.566365    0.758593    0.012051
 O   -1.289057   -0.440654    0.066831
 O   -0.667786   -3.100620   -0.626295
 O    2.782184    1.105998    2.410643
 O    0.651821    2.267729   -1.338926
 O   -3.318575   -0.630245   -1.051249
 O    5.184567   -0.266551    1.767533
 O    0.645843    2.877568    1.527936
 O   -2.708852   -1.123534    2.076163
 O    5.131664   -1.720476   -0.635336
 O   -2.304119    2.744869   -0.535877
 O   -4.768835   -3.079574   -0.051306
 O    1.559368   -1.547777    0.278159
 O    1.713255    4.671016   -2.153124
 O   -3.828292    1.166228    1.151258
 O    3.562590   -3.448143   -2.049935
 H    0.686150   -0.250082    1.578703
 H   -1.376670    0.825448   -1.580364
 H   -0.037346   -0.355474   -1.601232
 H   -2.539600   -3.166803   -1.413213
 H   -1.467787   -2.000916   -2.208688
 H    2.822501   -0.958046    2.564072
 H    4.076633    0.464091    0.173494
 H   -0.993307    1.594305    1.424213
 H   -2.658622   -2.953457    1.099463
 H    4.009698   -2.489447    0.940677
 H   -1.232827    4.152071    0.564123
 H   -5.050750   -1.726750    1.521078
 H    2.696256   -0.988117   -1.385525
 H   -0.742236    3.549423   -2.138260
 H   -5.350957   -0.843534   -1.104878
 H    2.312833   -3.859249   -0.421211
 H    1.517334   -3.106555   -1.824182
 H    1.318557    4.565215   -0.106537
 H    0.236045    5.570710   -1.101211
 H   -5.796417    0.605682    0.883130
 H   -5.014540    1.433160   -0.469632
 H   -0.072659   -2.435908   -0.236283
 H    3.667697    1.285356    2.757995
 H    5.953069   -0.442687    1.206128
 H    1.372774    2.278659    1.782392
 H   -1.788640   -0.831681    1.982034
 H    4.972822   -2.417283   -1.294616
 H   -2.804081    2.300977    0.175550
 H   -5.692094   -3.058428   -0.335190
 H    2.116586    3.792060   -2.190721
 H   -3.528688    0.420949    1.712047
 H    3.547764   -4.391391   -2.244527
