59 
2ajb_ligand_ani.xyz
 N   -2.566831   -1.697802   -2.142360
 C   -2.789376   -0.866919   -0.904095
 C   -2.927663   -1.769701    0.363678
 C   -3.117006   -0.885732    1.602528
 C   -4.167195   -2.664714    0.219154
 C   -1.692159   -2.659348    0.592341
 C   -1.543152    0.042959   -0.873506
 O   -0.486998   -0.463481   -1.280716
 N   -1.600632    1.318929   -0.442217
 C   -0.378739    2.138316   -0.345292
 C    0.526863    1.697713    0.830046
 O   -0.180762    1.460654    2.034015
 C   -0.922239    3.560619   -0.180513
 C   -2.297503    3.382738    0.471517
 C   -2.822533    2.071152   -0.115781
 N    1.214087    0.407211    0.558049
 C    2.705701    0.446410    0.488816
 C    3.160349    1.037749   -0.839115
 O    4.418444    1.493881   -0.756254
 C    3.342475   -0.946354    0.700780
 C    2.961649   -1.969031   -0.385009
 C    3.032506   -1.460831    2.106197
 C    3.818627   -3.234911   -0.351516
 O    2.517548    1.074992   -1.863397
 H   -1.525299   -1.714371   -2.236115
 H   -2.948819   -2.644246   -2.026059
 H   -2.994863   -1.248449   -2.975151
 H   -3.699910   -0.281508   -1.035349
 H   -4.042282   -0.297155    1.546161
 H   -3.198915   -1.516887    2.494990
 H   -2.274158   -0.204242    1.763319
 H   -4.045524   -3.460772   -0.524476
 H   -4.375616   -3.163179    1.172683
 H   -5.056280   -2.081563   -0.047773
 H   -1.504602   -3.350266   -0.237772
 H   -0.787839   -2.061297    0.737222
 H   -1.837577   -3.266179    1.493174
 H    0.210580    2.039036   -1.263047
 H    1.287401    2.467058    0.991040
 H   -0.565906    2.292437    2.348273
 H   -1.026105    4.022802   -1.168510
 H   -0.249432    4.195467    0.405338
 H   -2.967527    4.223832    0.277367
 H   -2.194676    3.284506    1.556437
 H   -3.422834    2.244124   -1.019222
 H   -3.442661    1.529856    0.605303
 H    0.867541    0.014072   -0.350592
 H    0.897649   -0.190048    1.339681
 H    3.071128    1.108537    1.279247
 H    4.659247    1.814303   -1.642025
 H    4.422918   -0.771619    0.626554
 H    3.051227   -1.497906   -1.373482
 H    1.902758   -2.252148   -0.278134
 H    1.977819   -1.750291    2.202850
 H    3.241277   -0.698993    2.865963
 H    3.633616   -2.342022    2.351342
 H    4.882818   -2.991220   -0.446532
 H    3.555291   -3.903557   -1.177326
 H    3.683695   -3.795542    0.579782
