51 
2ajl_ligand_xtb.xyz
 N   -3.279457   -0.094740   -0.012929
 C   -3.747237   -1.459427    0.318288
 C   -4.844840   -1.735696   -0.716926
 C   -5.361143   -0.345744   -1.068346
 C   -4.074235    0.470597   -1.100285
 C   -2.390146    0.538756    0.725155
 C   -2.049406    2.008464    0.437444
 O   -1.795436    0.007632    1.685187
 N   -1.156235    2.438137    1.547681
 C   -1.283072    2.199082   -0.892885
 C    2.619546    0.429272   -0.391390
 C    2.400030    1.776928   -0.104039
 C    1.152754    2.348753   -0.286490
 C    0.087032    1.586927   -0.773872
 C    0.301737    0.243807   -1.058225
 C    1.547025   -0.323622   -0.877634
 C    6.475747   -1.286438    0.105636
 C    5.696507   -1.632961   -0.986446
 C    4.437357   -1.085465   -1.143636
 C    3.944457   -0.169873   -0.213557
 C    4.739634    0.176844    0.879258
 C    5.992765   -0.383060    1.038900
 C   -2.645554   -2.523408    0.277760
 N   -1.914352   -2.584929    1.569868
 H   -4.179369   -1.425430    1.326409
 H   -5.622496   -2.381798   -0.319767
 H   -4.416209   -2.208315   -1.600667
 H   -6.031368    0.025012   -0.293448
 H   -5.885195   -0.322064   -2.019107
 H   -4.252036    1.534935   -0.962405
 H   -3.555572    0.311559   -2.050279
 H   -2.966027    2.604167    0.442609
 H   -0.180211    2.529770    1.151406
 H   -1.139643    1.636059    2.219694
 H   -1.439219    3.303405    2.013902
 H   -1.203163    3.268461   -1.094074
 H   -1.834652    1.751453   -1.715742
 H    3.222289    2.390114    0.228668
 H    1.046277    3.419761   -0.155207
 H   -0.509147   -0.350381   -1.458221
 H    1.701227   -1.364510   -1.117558
 H    7.457911   -1.715155    0.226758
 H    6.073286   -2.327735   -1.720878
 H    3.849413   -1.336110   -2.014442
 H    4.364573    0.868339    1.620220
 H    6.596234   -0.111175    1.891029
 H   -3.098420   -3.493410    0.065000
 H   -1.932654   -2.294305   -0.516706
 H   -1.726239   -1.556649    1.830289
 H   -1.036911   -3.107979    1.492740
 H   -2.482633   -3.020774    2.303676
