24 
2al5_ligand_ani.xyz
 N   -0.368207    0.122752    0.427067
 C   -0.849226   -1.170672    0.392013
 O   -0.135020   -2.150398    0.583007
 N   -2.194497   -1.286882    0.131119
 C   -3.122370   -0.277609   -0.141830
 O   -4.285675   -0.521658   -0.376923
 C   -2.498007    1.041119   -0.096479
 F   -3.283281    2.092517   -0.335657
 C   -1.199672    1.202425    0.181742
 C    1.036176    0.325780    0.777904
 C    1.993073    0.093940   -0.405434
 N    2.105142   -1.354737   -0.778704
 C    3.366809    0.661294   -0.087826
 O    3.589820    1.783021    0.288504
 O    4.338770   -0.257542   -0.285446
 H   -2.546137   -2.236478    0.119396
 H   -0.755688    2.191304    0.230371
 H    1.148479    1.347476    1.139741
 H    1.281131   -0.363768    1.588728
 H    1.623622    0.655700   -1.264494
 H    1.449250   -1.914703   -0.194844
 H    3.077545   -1.656316   -0.605393
 H    1.871921   -1.488384   -1.773380
 H    5.178491    0.179547   -0.069255
