82 
2alv_ligand_dft.xyz
 C    1.335533   -5.582230   -2.031748
 C    0.305088   -4.531039   -1.849918
 O   -0.811879   -4.889679   -1.192423
 N   -1.615609   -3.801701   -1.014127
 C   -0.982920   -2.801639   -1.582714
 C    0.246516   -3.205717   -2.149438
 C   -1.537673   -1.424176   -1.509511
 O   -0.904857   -0.462489   -1.944489
 N   -2.750516   -1.327761   -0.922193
 C   -3.284873   -0.040449   -0.541792
 C   -4.826261   -0.063435   -0.419709
 C   -5.334149   -1.114524    0.573049
 C   -5.466611   -0.248092   -1.797327
 C   -2.641648    0.442215    0.768294
 O   -2.331072   -0.352227    1.632576
 C   -2.394498    1.923919    0.885586
 C   -1.134565    2.316456    0.081863
 C   -1.016537    3.850528   -0.043067
 C   -2.121646    4.440826   -0.871738
 C   -3.210241    5.092125   -0.444941
 C   -4.237789    5.608576   -1.419606
 C   -3.526609    5.375153    1.000880
 C    0.103664    1.775687    0.795548
 O    0.440871    2.212137    1.889313
 N    0.777935    0.801905    0.132960
 C    1.997876    0.216962    0.667501
 C    3.178993    0.661461   -0.152153
 C    4.234628    1.306178    0.342479
 C    5.355369    1.705656   -0.539256
 O    5.421511    1.495428   -1.731309
 O    6.303863    2.350914    0.162883
 C    7.446946    2.805383   -0.575115
 C    8.465496    1.694954   -0.763128
 C    1.920919   -1.314910    0.727252
 C    0.707498   -1.822392    1.493225
 C    0.507052   -1.278584    2.913157
 C   -0.320085   -2.381234    3.590665
 N    0.155434   -3.575530    2.908452
 C    0.733611   -3.336931    1.700708
 O    1.186994   -4.179309    0.943467
 H    1.809303   -5.776451   -1.064669
 H    2.095875   -5.244163   -2.738397
 H    0.890856   -6.510386   -2.401262
 H    0.969121   -2.596294   -2.667644
 H   -3.080746   -2.155744   -0.442011
 H   -3.020662    0.663683   -1.335677
 H   -5.112152    0.926995   -0.039525
 H   -5.196821   -2.130449    0.183245
 H   -4.827359   -1.048554    1.539785
 H   -6.407626   -0.981182    0.738641
 H   -6.558483   -0.240882   -1.716821
 H   -5.165161   -1.203981   -2.238764
 H   -5.170130    0.550332   -2.485686
 H   -3.247825    2.478847    0.477014
 H   -2.251251    2.188857    1.936352
 H   -1.195895    1.883951   -0.923590
 H   -0.968780    4.273958    0.963580
 H   -0.053899    4.076015   -0.518184
 H   -2.016308    4.287166   -1.946783
 H   -3.966307    5.390399   -2.456555
 H   -5.222349    5.164161   -1.222843
 H   -4.358968    6.694723   -1.319197
 H   -2.763389    5.009541    1.690578
 H   -4.481161    4.909681    1.279438
 H   -3.645012    6.453565    1.164502
 H    0.393807    0.437168   -0.734163
 H    2.092859    0.618387    1.680115
 H    3.158556    0.434382   -1.218237
 H    4.309085    1.569031    1.393637
 H    7.853322    3.619689    0.028481
 H    7.114290    3.200487   -1.538344
 H    8.052931    0.901347   -1.390866
 H    9.361382    2.092349   -1.251249
 H    8.756753    1.271109    0.202517
 H    2.840025   -1.680019    1.201220
 H    1.906137   -1.739900   -0.283934
 H   -0.205928   -1.609791    0.921930
 H    1.478521   -1.183969    3.414789
 H    0.007940   -0.308823    2.933791
 H   -0.138326   -2.447629    4.667130
 H   -1.391983   -2.222075    3.420958
 H   -0.076908   -4.516492    3.186634
