82 
2alv_ligand_ani.xyz
 C   -4.464520   -3.934275   -2.300137
 C   -4.115053   -2.532108   -1.935702
 O   -5.017037   -1.836317   -1.218797
 N   -4.520012   -0.587929   -0.918741
 C   -3.326233   -0.547834   -1.469949
 C   -3.015165   -1.755254   -2.139557
 C   -2.432695    0.631804   -1.291874
 O   -1.284501    0.634279   -1.726179
 N   -2.986862    1.662826   -0.611040
 C   -2.142791    2.752810   -0.168985
 C   -2.959700    3.951438    0.354270
 C   -3.926259    3.575049    1.478237
 C   -3.700986    4.638797   -0.793689
 C   -1.121343    2.242288    0.870164
 O   -1.419244    1.372259    1.662983
 C    0.272584    2.823036    0.822766
 C    1.230874    1.914955    0.020513
 C    2.646359    2.523745   -0.100630
 C    2.665292    3.801518   -0.894022
 C    2.880530    5.041994   -0.449379
 C    2.742980    6.221670   -1.379069
 C    3.241307    5.393698    0.969807
 C    1.361047    0.585001    0.754506
 O    1.936572    0.535395    1.835996
 N    0.831911   -0.515966    0.155328
 C    1.188043   -1.853278    0.616457
 C    2.459270   -2.350188   -0.035063
 C    3.658131   -1.795413    0.160377
 C    4.844878   -2.361607   -0.525829
 O    4.821615   -3.304495   -1.289142
 O    5.963736   -1.694798   -0.198089
 C    7.173428   -2.162906   -0.822509
 C    7.712561   -3.413483   -0.151273
 C    0.046333   -2.849762    0.399329
 C   -1.282551   -2.447514    1.025701
 C   -1.261818   -2.048905    2.505958
 C   -2.679894   -2.403729    2.982392
 N   -3.019234   -3.527907    2.124916
 C   -2.281121   -3.602691    0.981938
 O   -2.385591   -4.433270    0.096315
 H   -4.079392   -4.610831   -1.530022
 H   -3.990349   -4.204820   -3.246305
 H   -5.545279   -4.056931   -2.386181
 H   -2.105424   -1.995486   -2.671174
 H   -3.810977    1.442022   -0.067532
 H   -1.570296    3.078806   -1.045782
 H   -2.229642    4.664874    0.763677
 H   -4.803598    3.039496    1.093907
 H   -3.446025    2.947726    2.235666
 H   -4.301761    4.479900    1.969487
 H   -4.270706    5.498661   -0.424764
 H   -4.403584    3.945453   -1.269944
 H   -3.008518    4.999645   -1.562984
 H    0.238926    3.820181    0.368714
 H    0.642627    2.912997    1.847399
 H    0.813941    1.746094   -0.980549
 H    3.044178    2.659592    0.909725
 H    3.295541    1.784936   -0.591952
 H    2.439404    3.687340   -1.958858
 H    2.489884    5.905696   -2.396366
 H    1.960175    6.905477   -1.027221
 H    3.673868    6.800680   -1.418410
 H    3.441782    4.513619    1.584684
 H    2.428649    5.960865    1.440768
 H    4.131190    6.033421    0.996771
 H    0.350341   -0.409149   -0.729309
 H    1.386302   -1.719402    1.690266
 H    2.415619   -3.201693   -0.719738
 H    3.818383   -0.944613    0.820021
 H    7.866763   -1.325699   -0.722208
 H    6.972169   -2.342251   -1.882155
 H    7.008972   -4.241588   -0.268657
 H    8.661410   -3.696456   -0.618551
 H    7.885103   -3.240416    0.915335
 H    0.346957   -3.817411    0.815504
 H   -0.107749   -3.014308   -0.673994
 H   -1.728492   -1.622363    0.450362
 H   -0.529174   -2.662004    3.046484
 H   -1.009429   -0.994303    2.649193
 H   -2.716931   -2.692523    4.036630
 H   -3.369435   -1.560367    2.830726
 H   -3.831362   -4.109597    2.260930
