48 
2am2_ligand_ani.xyz
 C   11.914103   46.078253   55.784462
 C   11.550637   45.429457   53.411947
 C   15.202516   44.550239   54.614398
 C   15.007390   45.406412   56.910646
 C   18.709179   43.289772   54.134882
 C   19.686126   43.707433   53.229895
 C   21.023599   43.462561   53.483851
 C   21.427241   42.777066   54.622453
 C   21.386456   42.643082   50.147491
 C   21.851782   43.362766   48.884118
 C   13.144408   45.447442   55.176014
 C   12.926965   45.096366   53.887298
 C   14.458694   45.144765   55.620679
 S   14.305370   44.374915   53.123973
 C   10.817121   45.722714   54.748456
 N   16.509526   44.143480   54.791663
 N   15.528348   45.584401   57.931191
 C   17.294706   43.635768   53.777688
 O   16.882878   43.530456   52.637379
 C   19.116041   42.551700   55.251498
 C   20.462967   42.307375   55.503995
Cl   17.960112   41.848071   56.349567
 S   22.235680   43.988702   52.300253
 N   22.326987   42.676389   51.269441
 O   23.510505   44.092214   52.991318
 O   21.674910   45.122003   51.577981
 C   23.657157   42.086046   51.070267
 C   23.577375   40.656263   50.547263
 H   11.679569   45.694449   56.781969
 H   12.043505   47.164275   55.877139
 H   11.077059   44.632590   52.831168
 H   11.577394   46.322016   52.772347
 H   19.377871   44.237670   52.336497
 H   22.484065   42.615940   54.808178
 H   20.439026   43.061688   50.498549
 H   21.193757   41.585342   49.935289
 H   21.062745   43.322672   48.126323
 H   22.749060   42.899382   48.458962
 H   22.068415   44.411283   49.103848
 H   10.066259   46.511042   54.646585
 H   10.296340   44.817170   55.075511
 H   16.900360   44.273046   55.719389
 H   20.744091   41.749493   56.390474
 H   24.153119   42.105118   52.043405
 H   24.255500   42.718130   50.396220
 H   22.904974   40.062773   51.175015
 H   24.568281   40.193405   50.575532
 H   23.223829   40.611404   49.511537
