51 
2am9_ligand_ani.xyz
 C    2.581873   -1.508509   -0.112688
 C    4.087885   -1.322521    0.075113
 C    4.571001    0.007550   -0.511794
 O    4.749899   -0.062405   -1.924967
 C    3.634048    1.126310   -0.148072
 C    2.400022    0.959879    0.332233
 C    1.566445    2.159282    0.732433
 C    0.188450    2.129804    0.073130
 C   -0.551427    0.822453    0.371814
 C    0.311892   -0.387519   -0.071282
 C    1.738802   -0.399265    0.569000
 C   -0.437352   -1.729998    0.081017
 C   -1.838651   -1.729354   -0.555429
 C   -2.671920   -0.546161   -0.059110
 C   -1.896599    0.749991   -0.350680
 C   -2.941638    1.860062   -0.149914
 C   -4.284657    1.205977   -0.583499
 C   -3.954970   -0.280956   -0.856137
 O   -4.970427   -1.190747   -0.482018
 C   -3.027029   -0.720033    1.424870
 C    1.680014   -0.659929    2.085811
 H    2.355131   -1.519165   -1.189703
 H    2.282490   -2.487285    0.279150
 H    4.640878   -2.134784   -0.408033
 H    4.334881   -1.350018    1.144790
 H    5.571997    0.234786   -0.131020
 H    3.867888   -0.118422   -2.316985
 H    3.990817    2.135741   -0.356931
 H    2.099438    3.084575    0.478253
 H    1.443889    2.162208    1.825299
 H   -0.402219    2.993277    0.405215
 H    0.312112    2.230238   -1.014900
 H   -0.729432    0.773837    1.457374
 H    0.485375   -0.233996   -1.150991
 H   -0.534928   -1.982480    1.145257
 H    0.147628   -2.539215   -0.368745
 H   -2.364633   -2.667003   -0.336799
 H   -1.745996   -1.670412   -1.649877
 H   -1.663939    0.729625   -1.431491
 H   -2.708567    2.756941   -0.735090
 H   -2.986996    2.168832    0.902309
 H   -4.712073    1.676930   -1.474303
 H   -5.038917    1.275927    0.209545
 H   -3.714568   -0.407239   -1.926125
 H   -5.743122   -1.008304   -1.030805
 H   -2.133646   -0.774870    2.052919
 H   -3.595906   -1.643948    1.558959
 H   -3.646301    0.097359    1.808167
 H    2.683919   -0.619942    2.522492
 H    1.261692   -1.648113    2.304937
 H    1.070205    0.087768    2.602112
