51 
2ama_ligand_ani.xyz
 C    2.516469   -1.516455   -0.463334
 C    4.016101   -1.494729   -0.140591
 C    4.648928   -0.129282   -0.336804
 O    5.744304    0.006439   -0.838793
 C    3.845040    1.050462    0.173095
 C    2.355935    0.956650   -0.182401
 C    1.574655    2.159659    0.348865
 C    0.122732    2.133403   -0.126640
 C   -0.579106    0.816991    0.226538
 C    0.240412   -0.400281   -0.285566
 C    1.712050   -0.395529    0.233456
 C   -0.499140   -1.737792   -0.050007
 C   -1.952311   -1.736577   -0.558549
 C   -2.734411   -0.546750    0.000165
 C   -1.985357    0.744484   -0.369601
 C   -3.004546    1.858486   -0.081377
 C   -4.381738    1.208311   -0.397404
 C   -4.082917   -0.283372   -0.681190
 O   -5.064519   -1.184015   -0.207449
 C   -2.955409   -0.708713    1.511257
 C    1.766516   -0.602760    1.755848
 H    2.379756   -1.418638   -1.549581
 H    2.117521   -2.496362   -0.180061
 H    4.178099   -1.780817    0.908484
 H    4.568806   -2.213731   -0.752562
 H    4.288892    1.960307   -0.243881
 H    3.975208    1.107364    1.263382
 H    2.291838    0.984961   -1.283268
 H    1.614758    2.172106    1.446722
 H    2.063068    3.084736    0.016021
 H    0.106610    2.263597   -1.219526
 H   -0.425100    2.985025    0.296496
 H   -0.659705    0.766012    1.323141
 H    0.315609   -0.270938   -1.380425
 H    0.035108   -2.555507   -0.544124
 H   -0.501064   -1.979156    1.021054
 H   -1.957750   -1.687143   -1.657445
 H   -2.459268   -2.670729   -0.286101
 H   -1.852938    0.717280   -1.467014
 H   -2.958075    2.167319    0.970819
 H   -2.819052    2.754349   -0.684619
 H   -5.069231    1.291206    0.452966
 H   -4.876778    1.672437   -1.256355
 H   -3.940117   -0.422743   -1.766829
 H   -5.885374   -0.995390   -0.678631
 H   -3.509423   -1.631577    1.702906
 H   -3.538480    0.111779    1.941740
 H   -2.009346   -0.758867    2.057231
 H    1.164946    0.134680    2.296234
 H    2.787368   -0.531347    2.142033
 H    1.392413   -1.596837    2.026583
