50 
2amv_ligand_ani.xyz
 C    0.689207   -1.335324    0.450007
 C    1.616938   -2.325590    0.104633
 C    2.382344   -2.981552    1.068203
 C    2.222147   -2.653626    2.407558
 C    1.299198   -1.681785    2.778597
 C    0.546690   -1.039505    1.803666
 C   -0.147876   -0.543259   -0.579839
 C    0.262026    0.904526   -0.654794
 C   -2.423902    0.448385   -0.239079
 C   -0.578130    1.953591   -0.436291
 C   -1.632397   -0.649466   -0.367267
 C   -2.252621   -1.989081   -0.219419
 C   -3.916253    0.371398   -0.424899
 C   -0.207865    3.397037   -0.659475
 C   -2.670963    2.261238    2.296467
 C   -2.602021    2.676122    0.830419
 C    1.692629    1.087848   -1.007834
 C    3.738989    2.138920   -0.426516
 C    4.419755    0.960037    0.249917
 C    4.125421    3.468579    0.192907
 N   -1.882839    1.706196   -0.008775
 O   -1.498857   -2.963927   -0.754577
 O   -3.317827   -2.202734    0.314426
 O   -4.234304   -0.226388   -1.585142
 O   -4.753343    0.797440    0.337232
 O    2.264064    0.427390   -1.847345
 O    2.304397    2.036892   -0.270173
Cl    1.855476   -2.814058   -1.554251
 H    3.094084   -3.741468    0.757397
 H    2.817032   -3.161598    3.161886
 H    1.165894   -1.425843    3.825914
 H   -0.179252   -0.279360    2.087907
 H    0.089139   -1.006559   -1.547375
 H    0.630837    3.492840   -1.351589
 H   -1.048427    3.964267   -1.075233
 H    0.095921    3.875929    0.279999
 H   -3.226870    1.327716    2.416286
 H   -1.666922    2.130513    2.714150
 H   -3.180565    3.042774    2.868945
 H   -3.602651    2.819683    0.421494
 H   -2.077775    3.629720    0.754051
 H    3.957658    2.132287   -1.498983
 H    4.154328    0.023688   -0.246335
 H    5.506966    1.081361    0.204810
 H    4.115019    0.903258    1.299931
 H    3.882168    3.471993    1.260439
 H    5.200766    3.642703    0.082987
 H    3.590633    4.289455   -0.292700
 H   -1.969661   -3.797831   -0.593784
 H   -5.204484   -0.280267   -1.603653
