50 
2amv_ligand_dft.xyz
 C    0.555843   -1.235211    0.522877
 C    1.560581   -2.201339    0.436174
 C    2.168260   -2.724854    1.576280
 C    1.774462   -2.286776    2.833163
 C    0.773123   -1.326407    2.947912
 C    0.181582   -0.814232    1.802758
 C   -0.113867   -0.580294   -0.687984
 C    0.297022    0.877753   -0.752854
 C   -2.382666    0.382858   -0.297380
 C   -0.524183    1.898431   -0.451516
 C   -1.617729   -0.681892   -0.625813
 C   -2.273531   -1.970476   -0.877748
 C   -3.868437    0.237281   -0.048688
 C   -0.114452    3.345847   -0.512380
 C   -2.423231    2.557036    2.104331
 C   -2.654127    2.655817    0.599619
 C    1.721416    1.043842   -1.161343
 C    3.859909    1.856255   -0.518446
 C    4.490895    0.586553    0.035057
 C    4.332902    3.118526    0.179769
 N   -1.881944    1.658004   -0.149020
 O   -1.388316   -2.942302   -1.166922
 O   -3.470321   -2.183192   -0.840385
 O   -4.585415    0.506434   -1.145329
 O   -4.342136    0.016136    1.037061
 O    2.201832    0.481117   -2.119215
 O    2.429112    1.800093   -0.306422
Cl    2.114388   -2.808268   -1.110467
 H    2.943829   -3.475284    1.468078
 H    2.248054   -2.699179    3.718669
 H    0.454422   -0.978000    3.925386
 H   -0.598828   -0.063025    1.891982
 H    0.248792   -1.075166   -1.591706
 H    0.910492    3.438437   -0.863288
 H   -0.765828    3.903570   -1.193617
 H   -0.162139    3.822512    0.472593
 H   -2.763127    1.585322    2.474124
 H   -1.360488    2.674580    2.342641
 H   -2.981755    3.339745    2.627506
 H   -3.711044    2.520211    0.364835
 H   -2.393992    3.646387    0.227713
 H    4.036703    1.920755   -1.595623
 H    4.119065   -0.291878   -0.498255
 H    5.578608    0.627621   -0.083469
 H    4.258295    0.479498    1.099730
 H    4.122112    3.066383    1.252834
 H    5.412315    3.237572    0.044558
 H    3.834820    4.001929   -0.230969
 H   -1.907513   -3.748285   -1.311951
 H   -5.514459    0.342223   -0.913714
