26 
2an5_ligand_ani.xyz
 O   -1.328139   -2.053470   -0.249121
 C   -0.944589   -0.802028    0.310441
 C    0.511447   -0.437760    0.118684
 C    1.483186   -1.440775    0.169495
 C    2.832975   -1.130169    0.079226
 C    3.222965    0.199137   -0.067588
 C    2.258424    1.198553   -0.123780
 C    0.896377    0.901216   -0.035134
 C   -0.131447    2.018968   -0.150836
 C   -1.533528    1.627348    0.331230
 C   -1.883533    0.271090   -0.257622
 N   -3.277536   -0.234358   -0.003568
 H   -0.918406   -2.119538   -1.124119
 H   -1.139777   -0.899166    1.388616
 H    1.159077   -2.471809    0.289095
 H    3.579070   -1.919836    0.121527
 H    4.276872    0.456995   -0.138852
 H    2.565252    2.236613   -0.241479
 H    0.227676    2.901854    0.391191
 H   -0.188925    2.320294   -1.206692
 H   -2.259556    2.392713    0.033515
 H   -1.540216    1.576764    1.429745
 H   -1.749985    0.303612   -1.342724
 H   -3.958577    0.123290   -0.693417
 H   -3.181530   -1.268950   -0.095777
 H   -3.576774    0.001953    0.962612
