78 
2anl_ligand_ani.xyz
 C   -4.338505    2.272271   -0.026415
 O   -5.427087    2.206013   -0.849552
 C   -4.557702    2.760908    1.257165
 C   -3.503949    2.787843    2.158741
 C   -2.250794    2.329028    1.772678
 C   -2.018123    1.884834    0.465353
 C   -3.068303    1.862360   -0.468007
 C   -2.916385    1.442663   -1.913028
 C   -0.649805    1.363478    0.102364
 O   -0.473721    0.413963   -0.661020
 N    0.401976    2.000696    0.688851
 C    1.707047    1.359031    0.757083
 C    2.818634    2.392289    0.980281
 C    2.992160    3.330766   -0.192840
 C    3.634192    2.893634   -1.353319
 C    3.786215    3.738041   -2.448425
 C    3.292773    5.038905   -2.398325
 C    2.652061    5.488342   -1.248122
 C    2.506798    4.638731   -0.154418
 C    1.686900    0.276127    1.873183
 O    1.716681    0.869468    3.148595
 C    2.851359   -0.712930    1.750943
 O    3.860662   -0.535993    2.427614
 N    2.734014   -1.785723    0.911001
 C    3.581418   -2.941993    1.147478
 S    3.813685   -3.730685   -0.473861
 C    2.535888   -2.707310   -1.311910
 C    3.228740   -1.642429   -2.168057
 C    1.640092   -3.591220   -2.175312
 C    1.763953   -2.011881   -0.145278
 C    0.600133   -2.869538    0.378124
 O    0.788593   -3.900408    1.011885
 N   -0.631962   -2.416926    0.041528
 C   -1.825798   -3.091136    0.525053
 C   -3.064929   -2.521942   -0.135492
 C   -3.848644   -1.536066    0.489452
 C   -4.994464   -1.077396   -0.166364
 C   -5.340331   -1.540790   -1.432302
 C   -4.535711   -2.480561   -2.064081
 C   -3.405327   -2.965094   -1.413555
 C   -3.481886   -0.985742    1.844422
 H   -5.179194    1.726213   -1.649778
 H   -5.556799    3.086835    1.531324
 H   -3.658309    3.158447    3.169735
 H   -1.454893    2.289531    2.510772
 H   -3.433213    0.492559   -2.097600
 H   -1.873308    1.300905   -2.190395
 H   -3.343922    2.192555   -2.591500
 H    0.204786    2.726707    1.359571
 H    1.853333    0.881543   -0.213696
 H    2.607234    2.953393    1.898753
 H    3.756281    1.850459    1.159054
 H    4.025836    1.877092   -1.398523
 H    4.289059    3.381157   -3.344123
 H    3.409725    5.699539   -3.253967
 H    2.267778    6.504412   -1.199105
 H    2.011974    5.003499    0.744541
 H    0.747274   -0.277459    1.772124
 H    2.645953    0.808441    3.428480
 H    4.532125   -2.598096    1.559573
 H    3.093034   -3.642057    1.833689
 H    3.850989   -2.113308   -2.934550
 H    2.474587   -1.023389   -2.667509
 H    3.868016   -1.000102   -1.553529
 H    0.847643   -2.983691   -2.629025
 H    1.173754   -4.389900   -1.593176
 H    2.229062   -4.046550   -2.976234
 H    1.367113   -1.058505   -0.496113
 H   -0.715752   -1.491776   -0.370628
 H   -1.881777   -3.027764    1.621585
 H   -1.725328   -4.157172    0.289093
 H   -5.617092   -0.331158    0.320025
 H   -6.227643   -1.154507   -1.931804
 H   -4.787896   -2.838661   -3.058231
 H   -2.775084   -3.705589   -1.901591
 H   -3.662572   -1.714754    2.645474
 H   -2.422632   -0.703736    1.893288
 H   -4.074584   -0.094138    2.063520
