78 
2anl_ligand_dft.xyz
 C   -4.506187    1.911879   -0.475405
 O   -5.513764    1.833548   -1.384880
 C   -4.851273    2.372863    0.792875
 C   -3.887572    2.433139    1.788383
 C   -2.581085    2.049892    1.512317
 C   -2.231529    1.616077    0.228440
 C   -3.191220    1.536785   -0.792121
 C   -2.900482    1.051194   -2.189736
 C   -0.825453    1.153384    0.003669
 O   -0.550711    0.162873   -0.684127
 N    0.143415    1.853215    0.632743
 C    1.490386    1.322972    0.771545
 C    2.464881    2.432999    1.172663
 C    2.548914    3.520398    0.129749
 C    3.182465    3.279800   -1.092335
 C    3.226935    4.259682   -2.077008
 C    2.635544    5.501426   -1.854183
 C    2.005172    5.754117   -0.640480
 C    1.964066    4.768653    0.342788
 C    1.461471    0.170529    1.808726
 O    1.282078    0.680057    3.099048
 C    2.746061   -0.667413    1.784801
 O    3.559230   -0.519224    2.693537
 N    2.931280   -1.530683    0.761140
 C    4.075693   -2.432030    0.792675
 S    4.240541   -3.100694   -0.899771
 C    2.755841   -2.201077   -1.533310
 C    3.184958   -0.902063   -2.227675
 C    1.975266   -3.093810   -2.497300
 C    1.946455   -1.839377   -0.264366
 C    0.972508   -2.930519    0.206107
 O    1.332964   -3.925189    0.817841
 N   -0.310801   -2.671607   -0.133269
 C   -1.399459   -3.572963    0.211870
 C   -2.721621   -2.876511   -0.008395
 C   -3.184430   -1.903408    0.895436
 C   -4.387707   -1.254612    0.621726
 C   -5.125738   -1.542808   -0.523010
 C   -4.664015   -2.503223   -1.416281
 C   -3.466079   -3.162293   -1.152258
 C   -2.405584   -1.549676    2.136618
 H   -5.205649    1.360208   -2.166880
 H   -5.883186    2.649720    0.981355
 H   -4.158362    2.763034    2.786392
 H   -1.843042    2.036438    2.308798
 H   -3.328641    0.050916   -2.342404
 H   -1.833141    0.964909   -2.379563
 H   -3.323022    1.733619   -2.938751
 H   -0.108952    2.670834    1.166762
 H    1.786370    0.937818   -0.208039
 H    2.154781    2.842757    2.139715
 H    3.448089    1.975014    1.331268
 H    3.649395    2.313488   -1.271774
 H    3.726388    4.056305   -3.019661
 H    2.670094    6.268288   -2.621927
 H    1.544876    6.720301   -0.456047
 H    1.477946    4.976399    1.293805
 H    0.611700   -0.476697    1.565310
 H    2.142065    0.541254    3.538876
 H    4.963939   -1.876243    1.094067
 H    3.891597   -3.252598    1.489694
 H    3.855296   -1.115452   -3.065139
 H    2.305968   -0.367625   -2.610757
 H    3.717791   -0.247551   -1.529909
 H    1.066420   -2.580300   -2.831387
 H    1.694390   -4.037878   -2.024193
 H    2.580465   -3.317785   -3.381415
 H    1.363502   -0.949726   -0.501756
 H   -0.552358   -1.766252   -0.525709
 H   -1.273287   -3.890636    1.252883
 H   -1.337194   -4.479198   -0.401900
 H   -4.744538   -0.496045    1.312911
 H   -6.054739   -1.012144   -0.711457
 H   -5.231232   -2.744170   -2.310780
 H   -3.098861   -3.912584   -1.848315
 H   -2.258029   -2.420566    2.785438
 H   -1.411365   -1.164526    1.888028
 H   -2.922857   -0.779262    2.713997
