34 
2ans_ligand_ani.xyz
 C  -33.679641   11.390420   79.073986
 C  -32.740995   11.540324   80.073707
 C  -32.194301   10.424234   80.736357
 C  -32.585335    9.161754   80.388089
 C  -33.566757    8.967309   79.375915
 C  -33.909554    7.644870   78.990093
 C  -34.861913    7.413619   78.041221
 C  -35.557000    8.492932   77.467357
 N  -34.058262   12.492125   78.325786
 S  -36.427575   10.977607   77.154210
 C  -35.279372    9.791557   77.833816
 C  -34.191030   10.082817   78.739996
 C  -34.386011   13.761731   78.775068
 C  -34.537354   14.770723   77.816509
 C  -34.888803   16.058656   78.203157
 C  -35.125667   16.351039   79.543355
 C  -35.016931   15.338241   80.490658
 C  -34.658549   14.046182   80.116905
 O  -35.775713   11.927896   76.253117
 O  -37.590688   10.272472   76.663760
 O  -36.821642   11.772227   78.499776
 H  -32.392755   12.536508   80.330638
 H  -31.452874   10.582035   81.515389
 H  -32.155213    8.288149   80.871049
 H  -33.387728    6.818767   79.467693
 H  -35.111992    6.401155   77.737779
 H  -36.343264    8.304609   76.743039
 H  -34.275194   12.324722   77.351731
 H  -34.380197   14.528025   76.766080
 H  -34.984264   16.836340   77.450072
 H  -35.402115   17.357393   79.846115
 H  -35.211619   15.549769   81.538875
 H  -34.611684   13.257498   80.863466
 H  -36.954008   12.709295   78.264233
