45 
2ao6_ligand_ani.xyz
 C    2.763470   -1.642899    0.246954
 C    4.008874   -1.541355   -0.620936
 C    4.838729   -0.310930   -0.304268
 C    4.070915    0.888420    0.041506
 C    2.717905    0.863468    0.221069
 C    1.961850    2.176501    0.365289
 C    0.596195    2.075501   -0.299760
 C   -0.206723    0.945332    0.353666
 C    0.572302   -0.347491    0.377203
 C    1.966959   -0.351219    0.277258
 C   -0.186739   -1.560946    0.493891
 C   -1.543551   -1.634271    0.425983
 C   -2.353921   -0.396533    0.420632
 C   -1.546548    0.681493   -0.331273
 C   -2.545718    1.820686   -0.542291
 C   -3.922251    1.110549   -0.653611
 C   -3.694289   -0.396129   -0.387146
 C   -2.639062    0.004804    1.884629
 C   -3.600528   -1.193071   -1.688505
 O    6.055339   -0.310818   -0.380229
 O   -4.819273   -0.860223    0.349274
 H    3.060829   -1.898594    1.275362
 H    2.155032   -2.476737   -0.119786
 H    3.724533   -1.487073   -1.683376
 H    4.653985   -2.417985   -0.513046
 H    4.629851    1.815668    0.101265
 H    1.845689    2.414951    1.432473
 H    2.550954    2.990358   -0.072938
 H    0.055191    3.027974   -0.221184
 H    0.729385    1.867306   -1.370419
 H   -0.392697    1.258720    1.397198
 H    0.361444   -2.476309    0.662780
 H   -2.026075   -2.605389    0.475480
 H   -1.291121    0.272226   -1.323687
 H   -2.308782    2.412867   -1.433827
 H   -2.542619    2.514956    0.307847
 H   -4.628482    1.478939    0.096704
 H   -4.391784    1.259433   -1.632086
 H   -3.038085    1.019767    1.973706
 H   -1.724480   -0.062200    2.480946
 H   -3.368916   -0.684954    2.316731
 H   -3.448084   -2.258684   -1.485313
 H   -2.785337   -0.850712   -2.331279
 H   -4.541340   -1.084136   -2.237962
 H   -4.714817   -1.813523    0.470323
