45 
2ao6_ligand_xtb.xyz
 C    2.753851   -1.630526    0.227371
 C    3.981544   -1.510082   -0.670264
 C    4.822460   -0.308916   -0.294140
 C    4.038169    0.873092    0.016957
 C    2.697635    0.864573    0.193931
 C    1.959626    2.156334    0.382194
 C    0.597367    2.064736   -0.291619
 C   -0.197843    0.948218    0.375012
 C    0.579798   -0.353440    0.375871
 C    1.934629   -0.363277    0.246132
 C   -0.200582   -1.566066    0.520909
 C   -1.538429   -1.614111    0.533243
 C   -2.354861   -0.369192    0.439619
 C   -1.530278    0.682661   -0.314633
 C   -2.518405    1.823584   -0.534027
 C   -3.847796    1.094131   -0.803638
 C   -3.663775   -0.393311   -0.408893
 C   -2.712279    0.035195    1.881140
 C   -3.534409   -1.291416   -1.643210
 O    6.036962   -0.323119   -0.314624
 O   -4.803731   -0.783433    0.329338
 H    3.084369   -1.842216    1.250645
 H    2.162586   -2.478359   -0.115470
 H    3.666180   -1.370557   -1.708962
 H    4.589439   -2.414569   -0.620515
 H    4.585711    1.803893    0.072634
 H    1.819676    2.338380    1.452791
 H    2.544234    2.983687   -0.022533
 H    0.062871    3.011168   -0.200775
 H    0.727298    1.845623   -1.353995
 H   -0.377638    1.244817    1.415506
 H    0.341478   -2.490794    0.647226
 H   -2.045296   -2.555555    0.695000
 H   -1.289511    0.260273   -1.297502
 H   -2.232308    2.456141   -1.372888
 H   -2.584313    2.452457    0.353575
 H   -4.662505    1.503037   -0.208318
 H   -4.132783    1.167814   -1.851761
 H   -3.268506    0.966266    1.898777
 H   -1.818800    0.132861    2.491780
 H   -3.338440   -0.734590    2.326359
 H   -3.351786   -2.324211   -1.349744
 H   -2.722054   -0.969802   -2.287145
 H   -4.463480   -1.253207   -2.208719
 H   -4.760781   -1.733261    0.484597
