31 
2aq7_ligand_ani.xyz
 O    3.572535    0.123872   -1.597255
 C    2.621308   -0.018371   -0.870643
 C    2.215452    0.877102    0.220856
 C    2.969284    2.142046    0.477221
 S    1.468669   -1.401340   -1.007564
 C    0.591566   -0.946552    0.552589
 C    1.117957    0.436344    0.857339
 O    0.482220    1.165746    1.799525
 C    0.987309   -1.931383    1.675663
 C   -0.915227   -0.988704    0.380037
 C   -1.735077   -0.073804   -0.158847
 C   -1.263227    1.142598   -0.909308
 C   -3.185338   -0.286225   -0.007937
 C   -4.146998    0.529958   -0.444058
 C   -5.614820    0.284918   -0.285377
 H    2.544587    2.685005    1.324685
 H    4.022247    1.924175    0.679670
 H    2.940771    2.787373   -0.407189
 H   -0.409388    0.796441    1.897272
 H    0.551569   -1.601578    2.625349
 H    0.621045   -2.933601    1.436673
 H    2.073128   -1.979372    1.782871
 H   -1.365054   -1.907460    0.756527
 H   -1.899394    1.335023   -1.777113
 H   -1.287487    2.038168   -0.276816
 H   -0.242190    1.019612   -1.278889
 H   -3.458134   -1.204107    0.518903
 H   -3.869482    1.450258   -0.957262
 H   -6.088376    1.092537    0.285220
 H   -6.112638    0.254965   -1.261772
 H   -5.811069   -0.660515    0.229530
