50 
2auz_ligand_ani.xyz
 C    6.166346   -0.275540    2.184467
 C    5.720529    0.242684    0.820502
 C    4.262509   -0.096049    0.511937
 C    3.818376    0.418242   -0.858162
 C    2.397548    0.002766   -1.269111
 N    1.397624    0.462428   -0.335983
 C    0.164595    0.813242   -0.838732
 O   -0.079982    0.966833   -2.018893
 O   -0.704594    0.979201    0.180548
 C   -2.078887    1.359915   -0.126722
 C   -2.792802    0.266604   -0.936450
 C   -2.780610   -1.094931   -0.284525
 C   -1.797238   -2.034369   -0.600913
 C   -1.765020   -3.271476    0.036935
 C   -2.727995   -3.596113    0.987281
 C   -3.723328   -2.675694    1.298674
 C   -3.746201   -1.435535    0.667247
 C   -2.132149    2.737320   -0.792810
 C   -1.745374    3.726301    0.319726
 C   -2.129568    3.019994    1.646208
 C   -2.710988    1.654335    1.234624
 C    2.305710   -1.496980   -1.492000
 O    1.565684   -2.218747   -0.867678
 H    5.571547    0.171096    2.989657
 H    6.044082   -1.363219    2.247351
 H    7.219060   -0.044899    2.378576
 H    5.857547    1.331744    0.773414
 H    6.363227   -0.183755    0.038105
 H    4.123677   -1.186108    0.560443
 H    3.619112    0.334558    1.292249
 H    3.858702    1.513506   -0.871181
 H    4.512805    0.061284   -1.630429
 H    2.167834    0.476567   -2.230368
 H    1.332335   -0.038634    0.540072
 H   -3.828994    0.599915   -1.077026
 H   -2.323521    0.217803   -1.923072
 H   -1.053274   -1.805927   -1.360732
 H   -0.981919   -3.982198   -0.212092
 H   -2.705590   -4.563806    1.481949
 H   -4.483695   -2.922006    2.034999
 H   -4.521395   -0.714533    0.925491
 H   -3.173396    2.898155   -1.098718
 H   -1.504263    2.786096   -1.684228
 H   -0.671212    3.926580    0.295657
 H   -2.255180    4.686619    0.191245
 H   -1.243854    2.881479    2.270516
 H   -2.850565    3.597448    2.234418
 H   -2.518999    0.855940    1.957588
 H   -3.796059    1.740264    1.100095
 H    2.977034   -1.917553   -2.272967
