32 
2avi_ligand_xtb.xyz
 C    2.733330    0.667234   -0.037973
 O    2.411282    1.497145   -1.005049
 O    2.460203    0.850182    1.129248
 C    3.387551   -0.603481   -0.539598
 C    2.575447   -1.784262    0.009356
 C    1.083329   -1.662664   -0.347196
 C    0.168250   -1.980923    0.839918
 C   -1.250718   -1.427466    0.698585
 S   -1.859159   -1.423631   -1.027952
 C   -3.204162   -0.306401   -0.544909
 C   -2.615403    0.690412    0.457697
 N   -1.987660    1.823347   -0.169775
 C   -0.646446    1.890781    0.057899
 O    0.122257    2.712575   -0.410460
 N   -0.333282    0.893923    0.915959
 C   -1.433063    0.021161    1.212660
 H    1.748453    2.187472   -0.716705
 H    3.390728   -0.591658   -1.628674
 H    4.414369   -0.657702   -0.175650
 H    2.690322   -1.787402    1.094754
 H    2.988606   -2.718324   -0.371630
 H    0.832332   -2.328282   -1.174485
 H    0.872504   -0.650500   -0.690193
 H    0.114957   -3.063820    0.966988
 H    0.595632   -1.562525    1.754647
 H   -1.947226   -2.062071    1.257289
 H   -3.584109    0.185270   -1.437416
 H   -4.001078   -0.894099   -0.086658
 H   -3.406717    1.026153    1.141730
 H   -2.444617    2.389962   -0.860319
 H    0.596439    0.797516    1.305693
 H   -1.606092   -0.018350    2.296025
