29 
2ay3_ligand_ani.xyz
 C   92.003803   16.835530   -4.123121
 C   92.130747   15.449347   -3.537978
 O   91.476445   15.005177   -2.627493
 O   93.057012   14.702591   -4.185955
 C   93.338180   17.535319   -4.426090
 C   94.169626   17.828216   -3.198440
 C   93.977839   19.025325   -2.495136
 C   95.109741   16.925104   -2.723295
 C   94.699052   19.311558   -1.344114
 O   94.566633   20.446799   -0.613483
 C   93.631783   21.399878   -1.065870
 C   95.845690   17.198248   -1.569407
 C   95.653491   18.379278   -0.869022
 O   96.318721   18.728502    0.259493
 C   97.276690   17.818302    0.753687
 H   91.430015   16.729620   -5.054122
 H   91.386818   17.417550   -3.434323
 H   93.037921   13.831897   -3.754366
 H   93.904390   16.911165   -5.124745
 H   93.112980   18.472792   -4.948223
 H   93.258723   19.747461   -2.869872
 H   95.278010   15.990236   -3.250119
 H   93.680193   22.228739   -0.358217
 H   93.884575   21.764359   -2.070134
 H   92.613660   20.989232   -1.074119
 H   96.576008   16.472766   -1.227859
 H   97.690982   18.276814    1.652425
 H   96.818029   16.855012    1.014370
 H   98.082241   17.649183    0.026530
