24 
2ay4_ligand_xtb.xyz
 C   -2.313327    0.938910    0.376540
 C   -2.389524   -0.568624    0.534725
 O   -1.992340   -1.166618    1.489854
 O   -2.957417   -1.218779   -0.499314
 C   -1.369771    1.331358   -0.775035
 C    0.012843    0.793358   -0.521903
 C    0.887595    1.471947    0.316240
 C    0.422807   -0.410559   -1.075829
 C    2.140239    0.959268    0.591855
 C    1.677084   -0.922621   -0.798521
 C    2.552898   -0.247585    0.040165
 C    3.918838   -0.790992    0.329438
 H   -1.938680    1.353151    1.312624
 H   -3.317097    1.332777    0.192243
 H   -3.233847   -0.615793   -1.202047
 H   -1.341291    2.421080   -0.841833
 H   -1.747537    0.947065   -1.727034
 H    0.583610    2.411015    0.757231
 H   -0.241767   -0.959302   -1.728547
 H    2.807323    1.500166    1.248019
 H    1.976022   -1.863780   -1.237028
 H    4.657938   -0.301139   -0.305781
 H    4.195057   -0.608869    1.365773
 H    3.960234   -1.859955    0.136010
