21 
2ay8_ligand_dft.xyz
 S   -2.969839   -1.057675    0.000186
 C   -1.479522   -0.163047   -0.000305
 C   -1.729795    1.178762   -0.000141
 C   -3.123283    1.495806    0.000209
 C   -3.913354    0.388563    0.000496
 C   -0.159087   -0.884115   -0.000826
 C    1.042039    0.061062   -0.000261
 C    2.362529   -0.700226   -0.000220
 C    3.568805    0.226039    0.000034
 O    4.771955   -0.393252    0.001134
 O    3.507705    1.425099   -0.000413
 H   -0.947605    1.929233   -0.000320
 H   -3.511475    2.507600    0.000332
 H   -4.993224    0.335110    0.000863
 H   -0.103031   -1.542472   -0.878797
 H   -0.102957   -1.543648    0.876256
 H    1.007190    0.715165    0.876881
 H    1.007633    0.715747   -0.876990
 H    2.429535   -1.356548   -0.879717
 H    2.429492   -1.356741    0.879120
 H    4.654602   -1.352496   -0.000293
