21 
2ay8_ligand_xtb.xyz
 S   -2.922772   -0.996465    0.172644
 C   -1.435701   -0.141664   -0.108533
 C   -1.663917    1.190201   -0.250682
 C   -3.031422    1.537985   -0.135798
 C   -3.826016    0.465715    0.091751
 C   -0.155968   -0.909421   -0.173223
 C    1.079881   -0.013971   -0.101171
 C    2.365718   -0.849322   -0.092806
 C    3.578263    0.061353   -0.035334
 O    3.785118    0.652986    1.155687
 O    4.301563    0.277410   -0.961589
 H   -0.892358    1.915819   -0.433010
 H   -3.396806    2.545551   -0.220332
 H   -4.889522    0.432012    0.218622
 H   -0.129112   -1.485683   -1.103804
 H   -0.135454   -1.631292    0.649001
 H    1.020996    0.604215    0.799026
 H    1.099863    0.651651   -0.965313
 H    2.426211   -1.440088   -1.007016
 H    2.370102   -1.527735    0.764896
 H    3.131959    0.390559    1.817630
