74 
2az5_ligand_dft.xyz
 F   -4.973664    1.384270    0.560173
 C   -3.877239    1.874389    1.160004
 F   -3.648197    1.130914    2.257554
 F   -4.151183    3.115044    1.560269
 C   -2.687116    1.844878    0.231250
 C   -1.413552    1.725436    0.775331
 C   -2.862363    2.002317   -1.140047
 C   -1.750386    2.029009   -1.976206
 C   -0.473147    1.882993   -1.447505
 C   -0.311716    1.738206   -0.070247
 N    0.986044    1.530054    0.481077
 C    1.286304    0.500643    1.329460
 C    2.161147    2.203303    0.166816
 C    2.365829    3.328665   -0.638824
 C    3.667367    3.771866   -0.790157
 C    4.743559    3.128716   -0.145087
 C    3.223889    1.546955    0.826525
 C    4.534683    2.030424    0.669386
 C    2.644278    0.437783    1.543774
 C    3.337943   -0.602924    2.355775
 N    3.225059   -1.994821    1.737955
 C    3.306304   -3.055600    2.791765
 C    4.208075   -2.304018    0.648949
 C    4.306094   -1.325666   -0.519874
 N    3.017258   -0.962503   -1.195128
 C    3.253837    0.089059   -2.235359
 C    2.232324   -2.128050   -1.778302
 C    0.764456   -1.865599   -1.710634
 C    0.028526   -1.547300   -2.807608
 O   -1.275910   -1.368777   -2.793183
 C   -1.974156   -1.530701   -1.622828
 C   -1.324574   -1.844773   -0.424013
 C   -2.115286   -1.996975    0.730245
 C    0.108475   -2.038772   -0.422838
 O    0.763684   -2.329465    0.600883
 C   -3.353525   -1.394118   -1.694165
 C   -4.123143   -1.576203   -0.553547
 C   -5.619788   -1.499742   -0.641230
 C   -3.490033   -1.867295    0.689892
 C   -4.316768   -2.053078    1.931958
 H   -1.281272    1.631995    1.847785
 H   -3.859376    2.107649   -1.552877
 H   -1.881250    2.157347   -3.045218
 H    0.393896    1.892715   -2.101197
 H    0.502048   -0.152520    1.685299
 H    1.537635    3.848090   -1.108482
 H    3.862805    4.648313   -1.398614
 H    5.746185    3.523854   -0.269274
 H    5.369357    1.577320    1.199099
 H    4.403139   -0.393231    2.484987
 H    2.897034   -0.695063    3.350821
 H    2.271532   -2.079962    1.310577
 H    2.487943   -2.907810    3.496195
 H    3.206713   -4.035531    2.324187
 H    4.265179   -2.976762    3.307379
 H    5.201423   -2.349368    1.105455
 H    3.968062   -3.311975    0.304082
 H    4.755470   -0.380344   -0.211378
 H    4.956785   -1.779667   -1.272777
 H    2.433799   -0.532152   -0.459815
 H    2.288895    0.364023   -2.660914
 H    3.903553   -0.327077   -3.007371
 H    3.717855    0.960887   -1.773802
 H    2.466905   -3.012705   -1.185722
 H    2.600059   -2.282822   -2.794647
 H    0.440781   -1.427087   -3.805074
 H   -1.617108   -2.249844    1.660974
 H   -3.813652   -1.171259   -2.651022
 H   -5.949426   -1.198845   -1.637675
 H   -6.023644   -0.789675    0.085054
 H   -6.064284   -2.476637   -0.419218
 H   -3.690716   -2.301780    2.791718
 H   -4.872308   -1.141328    2.171518
 H   -5.049117   -2.856930    1.803090
