66 
2az9_ligand_xtb.xyz
 C    2.573383    2.053695   -0.218152
 O    3.006554    2.321802    0.876322
 O    3.323402    1.698049   -1.283141
 C    4.725462    1.534512   -1.039741
 C    5.014210    0.132403   -0.571272
 C    5.104518   -0.904896   -1.491485
 C    5.302622   -2.205266   -1.061807
 C    5.405975   -2.480143    0.291640
 C    5.315776   -1.451026    1.213041
 C    5.121257   -0.149121    0.784400
 N    1.270334    2.105961   -0.561528
 C    0.227648    2.353833    0.400625
 C   -1.033273    1.641280   -0.085309
 O   -1.126201    1.244726   -1.237305
 C   -0.038418    3.860178    0.536186
 N   -2.000171    1.534983    0.836693
 C   -3.374338    1.088556    0.621673
 C   -3.473906   -0.432598    0.399544
 O   -4.165147   -1.112264    1.141307
 C   -4.065252    1.861256   -0.521083
 C   -5.489486    1.345830   -0.709999
 C   -4.080258    3.357016   -0.211954
 N   -2.801318   -0.877829   -0.663377
 C   -2.599675   -2.278430   -1.020268
 C   -3.935781   -3.003227   -1.298309
 O   -4.594611   -3.467238   -0.161741
 C   -1.786889   -3.018159    0.058668
 C   -0.605581   -2.208817    0.509425
 C   -0.637635   -1.539388    1.725763
 C    0.527063   -2.094066   -0.287668
 C    0.448394   -0.791814    2.146974
 C    1.611931   -1.345049    0.130080
 C    1.579358   -0.698725    1.354293
 H    5.043088    2.265901   -0.289856
 H    5.206930    1.740677   -1.998212
 H    5.013325   -0.689090   -2.546365
 H    5.372212   -3.005721   -1.783830
 H    5.554894   -3.495846    0.626942
 H    5.393486   -1.663122    2.269077
 H    5.040564    0.655537    1.500131
 H    0.972927    1.782450   -1.471910
 H    0.546943    1.951223    1.369337
 H   -0.344183    4.272489   -0.422811
 H    0.879091    4.349906    0.850867
 H   -0.811889    4.057172    1.274229
 H   -1.776801    1.837033    1.771290
 H   -3.916567    1.289576    1.551127
 H   -3.501212    1.699000   -1.443261
 H   -6.061497    1.462837    0.207809
 H   -5.985524    1.904758   -1.499517
 H   -5.494775    0.293473   -0.980711
 H   -3.069908    3.745049   -0.109990
 H   -4.625208    3.551460    0.709833
 H   -4.569853    3.896980   -1.018292
 H   -2.212473   -0.202999   -1.145654
 H   -2.031915   -2.255058   -1.954913
 H   -4.578216   -2.320229   -1.878946
 H   -3.733608   -3.885748   -1.912250
 H   -4.648810   -2.724333    0.472987
 H   -1.461454   -3.971672   -0.360453
 H   -2.440236   -3.223781    0.907193
 H   -1.515861   -1.616056    2.351449
 H    0.562932   -2.606670   -1.238595
 H    0.417031   -0.290236    3.104390
 H    2.489848   -1.270679   -0.493929
 H    2.430210   -0.123703    1.685190
