45 
2b1q_ligand_xtb.xyz
 C    0.775927   -0.709342   -0.923221
 C    1.266112   -1.854738   -0.027828
 C    2.213565   -1.271667    1.020304
 C    3.358928   -0.531115    0.318415
 C    2.790989    0.506644   -0.663860
 C    3.884775    1.112077   -1.548189
 O    0.035055    0.179895   -0.130054
 O    0.162627   -2.488501    0.551047
 O    2.695975   -2.326151    1.816300
 O    4.143601    0.063277    1.322249
 O    1.849719   -0.069819   -1.556843
 O    4.816268    1.792456   -0.732651
 C   -0.948967    0.912506   -0.833028
 C   -1.552087    1.888635    0.190947
 C   -2.331261    1.081579    1.236187
 C   -3.365298    0.185415    0.546397
 C   -2.665348   -0.696634   -0.493005
 C   -3.686143   -1.466846   -1.338043
 O   -0.562776    2.677622    0.797412
 O   -3.003353    1.932263    2.137393
 O   -3.997563   -0.652056    1.477141
 O   -1.911260    0.100544   -1.415260
 O   -4.455543   -0.609121   -2.135651
 H    0.149200   -1.103558   -1.732435
 H    1.831659   -2.561015   -0.657719
 H    1.657788   -0.552909    1.642268
 H    3.953751   -1.269754   -0.246903
 H    2.319443    1.309804   -0.078039
 H    3.408008    1.793858   -2.261427
 H    4.370949    0.303868   -2.109644
 H    0.497540   -3.020852    1.285218
 H    3.426959   -1.973017    2.338323
 H    4.685726    0.751007    0.908903
 H    5.460812    2.234875   -1.294476
 H   -0.483168    1.457700   -1.668652
 H   -2.230777    2.580039   -0.319691
 H   -1.621720    0.437849    1.783148
 H   -4.105643    0.825619    0.039485
 H   -2.002902   -1.400197    0.026426
 H   -4.372778   -1.987997   -0.670424
 H   -3.150251   -2.197388   -1.959414
 H    0.132690    2.080048    1.102822
 H   -2.419773    2.678668    2.324078
 H   -4.296530   -0.089410    2.202768
 H   -3.840146   -0.039608   -2.613749
