45 
2b1q_ligand_ani.xyz
 C    0.777367   -0.640915   -0.866655
 C    1.285126   -1.771137    0.022202
 C    2.301135   -1.234978    1.012206
 C    3.421799   -0.527858    0.269831
 C    2.829651    0.562633   -0.637747
 C    3.863758    1.186273   -1.559962
 O    0.041538    0.257720   -0.066754
 O    0.180081   -2.364649    0.669587
 O    2.788766   -2.336279    1.750524
 O    4.281647   -0.001044    1.255300
 O    1.842500    0.006936   -1.513098
 O    4.899865    1.749522   -0.758439
 C   -0.951013    1.002356   -0.749071
 C   -1.661490    1.871243    0.290034
 C   -2.464340    0.992109    1.237824
 C   -3.416113    0.102755    0.463048
 C   -2.627003   -0.712296   -0.555001
 C   -3.535891   -1.497050   -1.488499
 O   -0.760133    2.681172    1.017599
 O   -3.224761    1.786216    2.122805
 O   -4.073120   -0.796832    1.328445
 O   -1.873493    0.176169   -1.412026
 O   -4.405368   -0.645094   -2.201024
 H    0.141795   -1.052229   -1.656288
 H    1.792135   -2.508892   -0.619771
 H    1.808804   -0.509571    1.678116
 H    3.948461   -1.269280   -0.360030
 H    2.389351    1.343386    0.001095
 H    3.382856    1.954883   -2.177495
 H    4.255324    0.399059   -2.218505
 H    0.547068   -2.949108    1.347748
 H    3.480930   -1.989672    2.331467
 H    4.831266    0.671781    0.818107
 H    5.664732    1.932058   -1.314920
 H   -0.472680    1.628116   -1.511748
 H   -2.344666    2.554159   -0.225973
 H   -1.768053    0.344335    1.800804
 H   -4.136476    0.736770   -0.080057
 H   -1.947007   -1.396571   -0.027678
 H   -4.164683   -2.176849   -0.906062
 H   -2.912982   -2.097618   -2.169213
 H   -0.046052    2.091087    1.300716
 H   -2.614071    2.450291    2.475144
 H   -4.522178   -0.256295    1.993070
 H   -3.831977   -0.009340   -2.651128
