45 
2b1q_ligand_dft.xyz
 C    0.795118   -0.812034   -0.914867
 C    1.344711   -1.888682    0.015999
 C    2.267899   -1.241652    1.033844
 C    3.363922   -0.457085    0.328761
 C    2.748496    0.528571   -0.677995
 C    3.790528    1.150232   -1.597091
 O    0.008674    0.059946   -0.147668
 O    0.273524   -2.561588    0.625148
 O    2.796048   -2.276652    1.837072
 O    4.099250    0.195876    1.338732
 O    1.844047   -0.131267   -1.556886
 O    4.756040    1.801353   -0.783546
 C   -0.944001    0.801067   -0.878747
 C   -1.482837    1.843852    0.100861
 C   -2.321819    1.160412    1.175384
 C   -3.389291    0.281876    0.544271
 C   -2.733574   -0.720001   -0.403206
 C   -3.743256   -1.527389   -1.203117
 O   -0.439862    2.604751    0.677468
 O   -2.971120    2.109582    1.996592
 O   -4.087664   -0.448672    1.526810
 O   -1.956050   -0.013421   -1.387467
 O   -4.522764   -0.706726   -2.043612
 H    0.193603   -1.252712   -1.714195
 H    1.940811   -2.576988   -0.603528
 H    1.681642   -0.542783    1.648643
 H    3.996194   -1.171667   -0.225537
 H    2.234030    1.324377   -0.122797
 H    3.297784    1.857092   -2.276530
 H    4.247032    0.350740   -2.197494
 H    0.653981   -3.069923    1.354656
 H    3.420047   -1.861211    2.447071
 H    4.713335    0.798903    0.890534
 H    5.463257    2.133518   -1.346524
 H   -0.469774    1.270481   -1.746912
 H   -2.114449    2.548060   -0.448574
 H   -1.665608    0.513229    1.779975
 H   -4.075043    0.915016   -0.038891
 H   -2.083056   -1.393475    0.168479
 H   -4.425189   -2.027921   -0.512710
 H   -3.203196   -2.293562   -1.779670
 H    0.198108    1.959606    1.016240
 H   -2.291627    2.731601    2.289654
 H   -4.393812    0.196888    2.177347
 H   -3.894433   -0.189719   -2.564977
