45 
2b1r_ligand_ani.xyz
 C    1.032090   -0.617290   -0.053574
 C    2.120714   -1.337155   -0.836464
 C    3.476010   -1.023754   -0.224437
 C    3.693303    0.483854   -0.136758
 C    2.509714    1.143113    0.564910
 C    2.530872    2.666314    0.539400
 O    1.941665   -2.739334   -0.797808
 O    4.532472   -1.551800   -0.999445
 O    4.859081    0.779131    0.598336
 O    1.300942    0.765342   -0.096948
 O    1.432089    3.198728    1.244331
 C   -4.157501    0.146945    0.074274
 C   -3.187469    1.326611    0.008754
 C   -1.889316    0.892453   -0.649491
 C   -1.322882   -0.339192    0.060854
 C   -2.390851   -1.433863    0.108784
 C   -1.943728   -2.622008    0.948965
 O   -4.530237   -0.234473   -1.226683
 O   -3.816273    2.324366   -0.773781
 O   -1.026302    2.014770   -0.627098
 O   -0.206794   -0.854129   -0.656129
 O   -3.572453   -0.934691    0.741012
 O   -1.587500   -2.231049    2.256277
 H    1.011694   -0.962818    0.995267
 H    2.105750   -0.957548   -1.870997
 H    3.504035   -1.437411    0.799944
 H    3.754485    0.880006   -1.164703
 H    2.474500    0.802551    1.611616
 H    2.548154    3.012929   -0.507908
 H    3.439040    3.030503    1.028045
 H    1.077774   -2.910731   -1.196400
 H    4.366746   -2.500953   -1.085693
 H    5.581667    0.302429    0.166531
 H    0.618962    2.859444    0.837626
 H   -5.048379    0.417277    0.661997
 H   -2.980808    1.698213    1.023511
 H   -2.108499    0.604330   -1.689992
 H   -1.038303   -0.068312    1.088724
 H   -2.620592   -1.760522   -0.914500
 H   -1.055623   -3.084303    0.508042
 H   -2.749787   -3.371260    0.955980
 H   -4.673600    0.604653   -1.698109
 H   -3.121656    2.953748   -1.016382
 H   -0.149428    1.693079   -0.894575
 H   -2.375397   -1.816362    2.634138
