39 
2b1v_ligand_ani.xyz
 C    2.171854    0.063944    1.200581
 C    0.697723    0.429032    1.036240
 C    0.576107    1.755080    0.303590
 C   -0.606396    2.613895    0.634266
 C    1.484773    2.104850   -0.607820
 C    2.726036    1.298108   -0.903554
 C    2.778621   -0.074083   -0.195927
 C    4.240666   -0.504857   -0.110436
 O    4.333118   -1.752890    0.553452
 C    1.977522   -1.147924   -0.957123
 O    0.602999   -0.849540   -1.025501
 C    0.027077   -0.738586    0.260302
 C   -1.473938   -0.610441    0.107087
 C   -2.297246   -0.743334    1.227317
 C   -3.675399   -0.629741    1.130256
 C   -4.256451   -0.367736   -0.111860
 O   -5.612380   -0.260055   -0.159018
 C   -3.449316   -0.231109   -1.239885
 C   -2.068595   -0.359064   -1.126874
 H    2.285871   -0.873879    1.756584
 H    2.703851    0.841284    1.763120
 H    0.209371    0.519841    2.012913
 H   -0.566552    2.945289    1.680634
 H   -1.542599    2.057729    0.513973
 H   -0.646478    3.505638   -0.001940
 H    1.354833    3.035708   -1.158869
 H    3.598794    1.889673   -0.588787
 H    2.840323    1.164444   -1.989290
 H    4.805851    0.266871    0.437841
 H    4.656984   -0.567869   -1.131131
 H    5.264919   -1.994161    0.603235
 H    2.137931   -2.125921   -0.475996
 H    2.335613   -1.216594   -1.993394
 H    0.236777   -1.662269    0.831849
 H   -1.844858   -0.935655    2.200703
 H   -4.316273   -0.739047    1.999675
 H   -5.881244   -0.069931   -1.066643
 H   -3.896735   -0.029845   -2.213139
 H   -1.444515   -0.259626   -2.009748
