20 
2b4l_ligand_xtb.xyz
 N   -1.016403   -0.069776   -0.000051
 C    0.256332   -0.835801   -0.020814
 C    1.544716    0.033505   -0.004365
 O    1.518262    1.225413    0.000525
 O    2.663615   -0.657638    0.001358
 C   -1.101957    0.761127    1.219327
 C   -1.121634    0.797118   -1.192614
 C   -2.139228   -1.029325   -0.005261
 H    0.277958   -1.452630   -0.925370
 H    0.280517   -1.495780    0.852500
 H    2.598940   -1.622941   -0.001020
 H   -0.306421    1.504249    1.221781
 H   -2.060552    1.274734    1.246766
 H   -1.013806    0.139328    2.108500
 H   -1.082840    0.198227   -2.100725
 H   -2.065303    1.338116   -1.171453
 H   -0.306500    1.518582   -1.203556
 H   -3.085897   -0.492141   -0.004904
 H   -2.101337   -1.658470   -0.893165
 H   -2.104321   -1.664789    0.878290
