45 
2b53_ligand_ani.xyz
 C   82.258808   64.968727   59.050063
 C   83.207125   65.070372   60.071952
 C   83.558379   66.342381   60.539945
 C   82.966938   67.473161   59.992159
 C   82.017739   67.364023   58.983218
 C   81.657539   66.102616   58.502546
 N   83.755240   63.924189   60.650313
 C   80.654699   65.952310   57.411973
 C   79.480589   66.748214   57.397746
 C   78.536546   66.603836   56.418067
 C   78.715449   65.654516   55.382722
 C   79.873615   64.848058   55.386561
 C   80.836317   65.022293   56.407240
 N   77.755487   65.549383   54.413463
 C   77.978016   64.655580   53.493190
 N   79.045456   63.836642   53.362716
 C   79.966589   63.885197   54.306073
 N   81.020636   63.037600   54.262149
 C   81.232728   61.996259   53.245231
 C   80.066286   60.997228   53.213181
 C   81.400740   62.640934   51.865180
 C   82.523635   61.270264   53.631504
 C   76.953052   64.514666   52.381792
 F   76.960030   63.276338   51.859754
 F   75.712143   64.769173   52.807611
 F   77.224940   65.374492   51.386196
 H   81.967269   63.984383   58.687327
 H   84.293069   66.436433   61.336127
 H   83.247269   68.455442   60.363038
 H   81.570040   68.254844   58.550761
 H   84.655874   64.060825   61.087051
 H   83.753301   63.108808   60.053275
 H   79.321042   67.471507   58.194306
 H   77.635466   67.207060   56.396094
 H   81.762223   64.446642   56.393638
 H   81.564928   62.973970   55.109092
 H   80.281517   60.201223   52.490641
 H   79.928804   60.541614   54.200518
 H   79.139306   61.498508   52.927541
 H   81.628645   61.873824   51.115817
 H   80.485814   63.163175   51.576006
 H   82.222424   63.364616   51.884970
 H   82.765408   60.489280   52.902583
 H   83.364912   61.972244   53.667349
 H   82.423967   60.792151   54.613323
