45 
2b54_ligand_xtb.xyz
 N   -1.956004    1.864428   -1.019739
 C   -1.454999    0.651458   -1.371482
 N   -0.293113    0.224588   -1.002218
 C    0.392119    1.083622   -0.213519
 C   -0.017946    2.362040    0.185342
 C   -1.308186    2.834908   -0.228258
 N    1.621554    0.885130    0.309253
 N    2.022770    1.965001    1.013807
 C    1.062557    2.858068    0.964495
 O   -1.861088    3.887741    0.001159
 C    2.426355   -0.250425    0.179063
 C    3.738296   -0.141768   -0.292004
 C    1.945296   -1.517322    0.522039
 C    4.544003   -1.260501   -0.428556
 C    2.736303   -2.645471    0.374998
 C    4.031069   -2.505783   -0.099809
Cl    5.019682   -3.899705   -0.277703
 C    1.175411    4.173741    1.645407
 C    1.101722    5.323798    0.641381
 C   -2.342546   -0.239663   -2.184993
Cl    4.356761    1.396509   -0.728316
Cl    0.368364   -1.687361    1.174313
 C   -3.502132   -0.665616   -1.317233
 C   -3.279506   -1.578071   -0.293192
 C   -4.307280   -1.957344    0.552356
 C   -5.585646   -1.407603    0.368778
 C   -5.805297   -0.498638   -0.647815
 C   -4.765634   -0.124181   -1.485902
 O   -4.079022   -2.848786    1.545495
 O   -6.566159   -1.822029    1.236443
 H   -2.889898    2.112783   -1.325563
 H    5.552315   -1.157949   -0.794448
 H    2.348546   -3.614787    0.641967
 H    2.120810    4.195747    2.188814
 H    0.353223    4.272429    2.358294
 H    1.888437    5.229717   -0.104097
 H    0.136731    5.318847    0.141301
 H    1.221245    6.274202    1.155112
 H   -1.757985   -1.104835   -2.495785
 H   -2.702298    0.293067   -3.066989
 H   -2.300489   -2.002342   -0.139979
 H   -6.792007   -0.078453   -0.786668
 H   -4.957800    0.582998   -2.279468
 H   -4.907913   -2.981956    2.026309
 H   -7.394678   -1.380915    1.021129
