45 
2b54_ligand_ani.xyz
 N  120.464276  -84.853095   91.729932
 C  119.660188  -83.752433   91.543371
 N  118.840097  -83.286758   92.439274
 C  118.821239  -84.002986   93.585965
 C  119.571435  -85.140546   93.872114
 C  120.504999  -85.646897   92.891466
 N  118.038447  -83.764347   94.679126
 N  118.228688  -84.725244   95.628557
 C  119.153547  -85.542236   95.161913
 O  121.252147  -86.603814   92.966999
 C  117.104417  -82.728998   94.876678
 C  115.756867  -83.013797   95.155373
 C  117.480026  -81.376322   94.829191
 C  114.824685  -81.999124   95.329869
 C  116.560685  -80.352211   95.008804
 C  115.236138  -80.676543   95.252319
Cl  114.073860  -79.409857   95.472661
 C  119.638513  -86.721554   95.950987
 C  118.495682  -87.609892   96.436101
 C  119.854056  -83.026523   90.241343
Cl  115.171575  -84.643993   95.258189
Cl  119.137962  -80.921990   94.589082
 C  121.159828  -82.258027   90.254616
 C  121.336836  -81.245656   91.203209
 C  122.514286  -80.518781   91.248148
 C  123.546905  -80.817158   90.346419
 C  123.386910  -81.828967   89.416480
 C  122.190384  -82.548682   89.372995
 O  122.667353  -79.531328   92.164287
 O  124.672038  -80.042442   90.478946
 H  121.120479  -85.116596   91.004464
 H  113.787969  -82.248570   95.528118
 H  116.881949  -79.317419   94.961060
 H  120.337391  -87.274776   95.313163
 H  120.215746  -86.350431   96.807327
 H  118.878579  -88.426452   97.056432
 H  117.783914  -87.021567   97.026103
 H  117.955549  -88.046560   95.590064
 H  119.833792  -83.735285   89.406391
 H  119.002912  -82.349920   90.127238
 H  120.550590  -81.023913   91.923964
 H  124.191252  -82.059094   88.720268
 H  122.070433  -83.336535   88.633136
 H  123.547590  -79.145641   92.040626
 H  125.329784  -80.312037   89.826232
