72 
2b8v_ligand_ani.xyz
 C    1.617319    4.927927    1.623242
 C    2.558458    4.240942    0.686239
 C    3.062165    4.743762    2.007617
 N    2.436545    2.795357    0.531366
 C    3.723974    2.092839    0.336540
 C    3.724005    0.750632    1.070704
 C    3.120269   -0.467649    0.314574
 N    1.662876   -0.491795    0.212601
 C    0.892234    0.264204   -0.609265
 O    1.342184    1.192021   -1.286463
 O    3.036267    1.002734    2.298450
 C    3.786969   -0.715531   -1.051786
 C   -0.566514   -0.062968   -0.593632
 C   -1.468337    0.932442   -0.944385
 C   -2.836199    0.679043   -0.869505
 C   -3.287467   -0.596087   -0.528103
 C   -2.383917   -1.626563   -0.231470
 C   -1.016847   -1.337185   -0.240365
 C   -3.757618    1.804097   -1.240527
 N   -2.881698   -2.921460    0.053312
 O   -3.407676    2.630666   -2.064047
 C   -4.266536   -3.248182   -0.278888
 C   -5.391842    1.418426    0.680543
 C   -6.658754    1.588503    1.228945
 C   -7.648114    2.255793    0.511870
 C   -7.362575    2.769185   -0.751678
 C   -6.095169    2.610298   -1.295239
 C   -5.107173    1.914473   -0.594367
 S   -1.954268   -4.084689    0.821193
 C   -1.028866   -4.828625   -0.518679
 O   -1.010299   -3.446181    1.719264
 O   -2.881563   -5.087043    1.313741
 C    5.893924   -1.905326   -0.328860
 C    7.277776   -1.996547   -0.215412
 C    8.089976   -0.990236   -0.731092
 C    7.506725    0.104135   -1.362104
 C    6.120835    0.190131   -1.474301
 C    5.293534   -0.813532   -0.964520
 H    1.280577    5.926128    1.361650
 H    0.865946    4.325263    2.127023
 H    2.857175    4.779029   -0.208246
 H    3.295971    3.993307    2.761354
 H    3.708252    5.615632    2.014525
 H    2.051863    2.390403    1.402213
 H    1.819472    2.543984   -0.257090
 H    3.928785    1.973403   -0.728730
 H    4.515953    2.718718    0.753016
 H    4.770953    0.476987    1.274912
 H    3.352577   -1.333641    0.948142
 H    1.181239   -1.097970    0.859109
 H    3.150161    0.243254    2.883681
 H    3.372757   -1.652219   -1.445722
 H    3.484447    0.071877   -1.745865
 H   -1.121122    1.907354   -1.270990
 H   -4.354560   -0.785846   -0.490210
 H   -0.293355   -2.103128    0.007945
 H   -4.958400   -2.815747    0.452049
 H   -4.490218   -2.860600   -1.275315
 H   -4.384289   -4.330581   -0.277818
 H   -4.621152    0.900308    1.246948
 H   -6.873455    1.191355    2.217082
 H   -8.638589    2.382946    0.940486
 H   -8.128877    3.301236   -1.310198
 H   -5.844729    3.022027   -2.268907
 H   -1.728390   -5.328600   -1.192730
 H   -0.458321   -4.068800   -1.058369
 H   -0.352946   -5.563203   -0.073692
 H    5.268513   -2.698997    0.079019
 H    7.723562   -2.856374    0.279581
 H    9.171001   -1.059830   -0.642492
 H    8.130974    0.895105   -1.770612
 H    5.677735    1.049565   -1.975934
