25 
2bb7_ligand_ani.xyz
 O   -3.005525    1.224179   11.009422
 S   -4.181561    1.079386   10.174849
 O   -5.510397    0.949064   10.742486
 C   -4.220134    2.420929    9.010757
 N   -3.866902   -0.247750    9.218676
 C   -4.687122   -0.795153    8.219252
 C   -6.031563   -0.553020    8.077827
 C   -4.020831   -1.684687    7.313541
 N   -2.690910   -1.895394    7.511247
 C   -2.066760   -2.703557    6.687167
 C   -2.698148   -3.362959    5.607962
 C   -4.034775   -3.156717    5.399971
 C   -4.751087   -2.292177    6.267082
 C   -6.136081   -2.014658    6.138102
 C   -6.748756   -1.168770    7.026986
 H   -4.994700    2.227744    8.264813
 H   -3.238840    2.511948    8.540736
 H   -4.455290    3.327930    9.570856
 H   -2.894725   -0.539501    9.167892
 H   -6.549910    0.094851    8.775837
 H   -1.003318   -2.856009    6.867302
 H   -2.118851   -4.018527    4.964177
 H   -4.559188   -3.644424    4.581282
 H   -6.695384   -2.483601    5.331843
 H   -7.811243   -0.958128    6.936936
