114 
2bcd_ligand_dft.xyz
 N    1.698381    3.633392   -0.225652
 C    3.108661    3.901233   -0.373647
 C    3.498706    4.960204    0.636727
 O    2.757049    5.443040    1.458791
 C    3.966990    2.631071   -0.222764
 C    3.941753    2.074987    1.208337
 C    4.268816    0.595111    1.245315
 O    3.339987   -0.216899    1.270191
 O    4.795172    5.293112    0.534449
 N    5.554727    0.168963    1.222669
 C    6.706535    1.027462    0.991278
 C    5.826531   -1.281718    1.186803
 C    5.343179   -1.846842   -0.164970
 O    6.039353   -1.697265   -1.160594
 C    5.397934   -2.009547    2.466516
 C    5.812292   -3.481574    2.468407
 C    2.823777   -4.279022   -1.035124
 O    2.446257   -4.939429   -2.136963
 O    2.579877   -4.654183    0.086429
 C    3.550468   -2.990050   -1.379529
 N    4.145668   -2.474705   -0.176134
 C    2.592177   -2.008551   -2.117363
 C    1.201161   -1.863242   -1.499964
 O    0.205230   -2.108024   -2.183604
 C    3.229596   -0.629361   -2.311470
 C   -0.196094   -1.181029    0.391299
 C   -0.694368    0.257532    0.112094
 O   -1.190357    0.974765    0.974450
 C   -0.214877   -1.625250    1.868699
 C    0.559828   -0.719219    2.831277
 C   -1.647015   -1.831934    2.373204
 N    1.109098   -1.408766   -0.226605
 C    0.983952    3.110234   -1.262041
 O    1.535430    2.727817   -2.286516
 C   -0.531239    3.112788   -1.082551
 C   -1.073308    4.406271   -1.709524
 C   -1.105317    1.863128   -1.765852
 N   -0.549783    0.633159   -1.185449
 C   -2.611151    1.752889   -1.838317
 C   -3.473739    2.103902   -0.878922
 C   -4.889540    1.713952   -0.869293
 C   -5.481910    1.176134   -2.146497
 C   -5.535490    1.716845    0.307658
 C   -6.852676    1.060788    0.606839
 C   -7.943135    2.076996    0.963431
 C   -6.678802    0.031995    1.740808
 O   -7.870290   -0.739831    1.756296
 C   -8.159786   -1.345804    2.988314
 C   -5.412028   -0.839732    1.632080
 C   -5.134165   -1.495171    0.297406
 C   -3.882172   -1.333908   -0.302222
 C   -3.568428   -1.963457   -1.502669
 C   -4.523190   -2.756841   -2.135897
 C   -5.782419   -2.907958   -1.560643
 C   -6.084558   -2.288375   -0.350046
 H    1.228465    4.044505    0.569327
 H    3.290903    4.301207   -1.378768
 H    4.989413    2.847695   -0.546468
 H    3.547713    1.907918   -0.925969
 H    2.923069    2.140080    1.599665
 H    4.593015    2.660433    1.866355
 H    4.961789    5.970699    1.209659
 H    7.115776    0.839884   -0.007006
 H    6.436459    2.079233    1.071550
 H    7.479560    0.816547    1.737332
 H    6.913817   -1.367897    1.109536
 H    4.321029   -1.912235    2.623639
 H    5.877272   -1.487625    3.303469
 H    5.276566   -4.049574    1.701690
 H    6.887345   -3.593719    2.285792
 H    5.588663   -3.937813    3.436862
 H    1.924252   -5.704024   -1.844817
 H    4.366474   -3.212762   -2.073624
 H    3.589514   -2.493884    0.665422
 H    2.393813   -2.454188   -3.094978
 H    3.460561   -0.176594   -1.344745
 H    4.163962   -0.712504   -2.871521
 H    2.546727    0.042334   -2.839969
 H   -0.883310   -1.838712   -0.153532
 H    0.278009   -2.606921    1.852818
 H    1.587363   -0.546363    2.504990
 H    0.060903    0.248129    2.926169
 H    0.595296   -1.188214    3.821405
 H   -2.171306   -0.874199    2.436754
 H   -1.626870   -2.276705    3.374159
 H   -2.220665   -2.497330    1.718971
 H    1.920116   -0.992303    0.224998
 H   -0.772692    3.085335   -0.016391
 H   -2.155629    4.472971   -1.580807
 H   -0.614669    5.285048   -1.244243
 H   -0.850598    4.433413   -2.781696
 H   -0.709265    1.882220   -2.785620
 H   -0.310575   -0.099920   -1.842634
 H   -2.974533    1.213514   -2.710649
 H   -3.099724    2.585027    0.022871
 H   -5.209372    1.818272   -2.991229
 H   -5.107311    0.167455   -2.357888
 H   -6.571307    1.127034   -2.105211
 H   -5.021109    2.145408    1.170702
 H   -7.181207    0.483608   -0.262951
 H   -7.632335    2.701559    1.810415
 H   -8.144288    2.740259    0.116312
 H   -8.869781    1.562942    1.234488
 H   -6.605096    0.580598    2.697446
 H   -7.412824   -2.100384    3.274700
 H   -9.127894   -1.840116    2.879659
 H   -8.227196   -0.600178    3.795514
 H   -4.553219   -0.215288    1.900949
 H   -5.467756   -1.612871    2.409794
 H   -3.156170   -0.681138    0.172069
 H   -2.581427   -1.833558   -1.940659
 H   -4.287544   -3.250758   -3.074121
 H   -6.534466   -3.518011   -2.053554
 H   -7.067709   -2.406314    0.095227
