80 
2bdl_ligand_ani.xyz
 C   -0.713936    6.855091   -1.326294
 C   -1.916279    6.065721   -0.814567
 C   -1.522600    4.721618   -0.204859
 C   -2.718832    3.930393    0.317753
 C   -2.319980    2.580683    0.908154
 N   -1.683605    1.761913   -0.111170
 C   -0.971628    0.657631    0.242047
 O   -0.767449    0.307327    1.401038
 O   -0.499233    0.013411   -0.832915
 C    0.250874   -1.206773   -0.580573
 C    1.587378   -0.907949    0.121657
 N    2.546434   -0.772614   -0.968514
 C    1.973646   -1.090984   -2.266905
 C    0.663738   -1.838175   -1.931089
 C   -0.375719   -1.668707   -3.036108
 C    0.964336   -3.330537   -1.706390
 C    3.892344   -0.558838   -0.863373
 O    4.631027   -0.593370   -1.836650
 N    4.343618   -0.299313    0.416451
 C    5.695708   -0.124039    0.750156
 C    6.669778    0.728933    0.134361
 C    6.523338    1.617626   -1.057241
 N    7.804157    0.667380    0.782424
 O    7.608208   -0.210921    1.826877
 C    6.348296   -0.674626    1.807278
 C    5.930267   -1.627167    2.876535
 C   -3.511412    1.867413    1.594265
 O   -3.099997    1.035150    2.657833
 C   -4.319774    1.069714    0.553120
 O   -4.510039    1.481354   -0.582553
 N   -4.785132   -0.112674    1.028742
 C   -5.283560   -1.156265    0.139705
 C   -6.710963   -1.561420    0.510201
 C   -4.324709   -2.336302    0.122783
 C   -4.089940   -3.091226    1.274493
 C   -3.194037   -4.155179    1.255475
 C   -2.519470   -4.480434    0.082541
 C   -2.752160   -3.738333   -1.071521
 C   -3.644108   -2.670507   -1.047864
 H   -1.017020    7.814008   -1.759349
 H   -0.175190    6.293366   -2.098359
 H   -0.006764    7.061979   -0.514439
 H   -2.454204    6.661391   -0.063823
 H   -2.623802    5.894581   -1.637548
 H   -0.989208    4.117102   -0.950201
 H   -0.812661    4.891654    0.618633
 H   -3.452632    3.755233   -0.480163
 H   -3.231900    4.515770    1.094615
 H   -1.571637    2.723643    1.697956
 H   -2.170297    1.705898   -0.998614
 H   -0.383438   -1.873853    0.010238
 H    1.512538    0.001189    0.719254
 H    1.846492   -1.741923    0.789899
 H    1.779988   -0.175614   -2.841150
 H    2.676756   -1.697051   -2.845119
 H   -0.056257   -2.203531   -3.938612
 H   -1.348445   -2.069588   -2.731598
 H   -0.512181   -0.616560   -3.294962
 H    0.064078   -3.869416   -1.392343
 H    1.732590   -3.487405   -0.940483
 H    1.320895   -3.788274   -2.635556
 H    3.686973   -0.321035    1.181398
 H    7.397424    2.267408   -1.141259
 H    5.620562    2.226619   -0.963998
 H    6.412614    1.018359   -1.964716
 H    5.380281   -1.111577    3.673816
 H    5.257086   -2.384732    2.461792
 H    6.798624   -2.120323    3.317203
 H   -4.172271    2.628968    2.028405
 H   -2.213801    0.683709    2.429018
 H   -4.406973   -0.374605    1.932622
 H   -5.298121   -0.700303   -0.855584
 H   -7.348591   -0.672822    0.538012
 H   -6.752011   -2.049404    1.490092
 H   -7.110576   -2.259832   -0.232520
 H   -4.608892   -2.857377    2.203498
 H   -3.020418   -4.728279    2.161929
 H   -1.817622   -5.311289    0.069617
 H   -2.251766   -4.006242   -2.000288
 H   -3.822217   -2.080463   -1.944326
