62 
2bdy_ligand_ani.xyz
 C   20.640094  -15.197787   25.424397
 C   20.383815  -13.799386   25.630634
 C   21.943580  -15.567428   24.999413
 C   19.681807  -16.232444   25.607858
 S   18.730889  -13.198030   25.831162
 C   21.398661  -12.875519   25.568262
 C   22.966327  -14.581811   24.908776
 C   22.219553  -16.927885   24.676170
 C   19.976865  -17.536646   25.290984
 N   17.926391  -13.739260   24.464672
 O   18.062670  -13.836692   26.946696
 O   18.781685  -11.738082   25.730754
 C   22.700597  -13.274480   25.208834
 C   21.254591  -17.888681   24.807282
 C   18.463914  -13.584290   23.152187
 C   18.504567  -12.334212   22.519064
 C   18.902411  -14.702733   22.455211
 C   18.994958  -12.211105   21.213773
 O   18.005674  -11.208753   23.101646
 C   19.353331  -14.589049   21.143765
 C   19.389259  -13.352323   20.502725
 C   19.013335  -10.839742   20.571318
 C   19.846587  -13.246568   19.069023
 C   17.689936  -10.567825   19.861929
 N   16.698230  -10.107854   20.670800
 O   17.531436  -10.778696   18.666776
 C   15.363047   -9.854927   20.178413
 C   14.306752  -10.652228   20.910332
 C   13.095832  -10.057885   21.266943
 C   14.505921  -11.998265   21.226184
 C   12.111908  -10.783223   21.926559
 C   13.518280  -12.730764   21.867147
 C   12.309046  -12.130510   22.227774
 C   11.249346  -12.912289   22.938715
 N   11.140594  -14.235504   22.539484
 N   10.506950  -12.472752   23.879976
 H   18.719006  -16.005457   26.049504
 H   21.190872  -11.831509   25.779703
 H   23.962386  -14.894700   24.605094
 H   23.216588  -17.184470   24.326855
 H   19.218318  -18.301277   25.424421
 H   17.469947  -14.630266   24.627562
 H   23.484966  -12.524371   25.155055
 H   21.470303  -18.925033   24.558521
 H   18.908405  -15.658922   22.972718
 H   18.132215  -11.249179   24.071168
 H   19.676793  -15.475252   20.602118
 H   19.802381  -10.768654   19.817550
 H   19.196267  -10.074771   21.331121
 H   19.115167  -12.697626   18.464537
 H   19.988227  -14.238411   18.632133
 H   20.802251  -12.713395   18.991637
 H   16.868397  -10.102335   21.667660
 H   15.389038  -10.102869   19.111450
 H   15.136108   -8.783430   20.259140
 H   12.925945   -9.008361   21.034191
 H   15.445074  -12.480033   20.960647
 H   11.169578  -10.304366   22.188924
 H   13.680204  -13.777811   22.111794
 H   11.288196  -14.409578   21.554896
 H   10.311499  -14.682663   22.909128
 H   10.732028  -11.501635   24.091834
