36 
2bgd_ligand_xtb.xyz
 O    4.827308   -1.358784   -1.478027
 C    3.813840   -1.149068   -0.865328
 N    3.572766   -1.526586    0.416661
 S    2.082413   -1.011325    1.029682
 O    2.274956    0.105587    1.893896
 O    1.376115   -2.125498    1.558712
 N    1.513363   -0.610097   -0.477805
 C    2.602865   -0.410592   -1.403302
 C    0.424153    0.301107   -0.402912
 C   -0.845753   -0.242232   -0.359500
 C   -1.971744    0.561921   -0.198847
 C   -1.780859    1.934126   -0.076882
 C   -0.515015    2.488882   -0.110111
 C    0.610247    1.686022   -0.264054
 O    1.889760    2.147636   -0.297827
 C    2.132655    3.486015    0.074232
 C   -3.317902   -0.027066   -0.157910
 C   -3.660786   -1.069975   -1.015554
 C   -4.928210   -1.620768   -0.982193
 C   -5.872570   -1.143021   -0.088919
 C   -5.541557   -0.108774    0.770358
 C   -4.276080    0.447067    0.735241
 H    4.272366   -2.017012    0.949130
 H    2.335178   -0.814240   -2.385242
 H    2.874650    0.645142   -1.520989
 H   -0.937403   -1.315040   -0.418576
 H   -2.634990    2.585131    0.034047
 H   -0.410305    3.556810   -0.003071
 H    1.709467    4.187583   -0.651993
 H    1.735450    3.696238    1.070252
 H    3.216021    3.591917    0.088338
 H   -2.932912   -1.435103   -1.724819
 H   -5.181837   -2.425496   -1.656703
 H   -6.861605   -1.575647   -0.061889
 H   -6.272274    0.264304    1.473046
 H   -4.018139    1.240000    1.421633
