22 
2bge_ligand_ani.xyz
 C   54.145462   33.983927   37.664153
 C   55.203035   34.026409   36.763303
 C   55.593505   32.873387   36.089766
 C   54.919993   31.678756   36.324609
 C   53.863492   31.620157   37.229513
 C   53.482147   32.779999   37.906379
 N   52.417633   32.790207   38.857018
 S   52.160857   31.446509   39.844387
 N   50.803158   32.184867   40.492961
 C   50.230147   33.193627   39.726518
 C   51.174834   33.505882   38.572288
 O   49.167621   33.708993   39.959924
 O   53.206675   31.318372   40.830694
 O   51.776985   30.282089   39.064892
 H   53.833649   34.874145   38.204453
 H   55.719361   34.966145   36.585923
 H   56.418687   32.906316   35.382790
 H   55.214880   30.773359   35.801429
 H   53.331970   30.689227   37.400250
 H   50.242618   31.691041   41.176487
 H   50.711160   33.174973   37.632906
 H   51.346129   34.583612   38.511356
