47 
2bgr_ligand_ani.xyz
 N   -2.120916    0.933033    0.506081
 C   -2.183069   -0.527344    0.886169
 C   -0.721769   -0.890506    1.167491
 O   -0.226400   -0.546853    2.230092
 C   -2.918126   -1.387328   -0.138055
 C   -4.442397   -1.280253   -0.060426
 S   -5.063228    0.315723   -0.670127
 C   -6.833947    0.033223   -0.464985
 N    0.011002   -1.496835    0.177033
 C    1.439683   -1.201590    0.104449
 C    1.599008   -0.124370   -0.988324
 O    1.277857   -0.401180   -2.137647
 C    2.251568   -2.438786   -0.262243
 C    3.722421   -2.204285   -0.021170
 O    4.483444   -3.215982   -0.468403
 O    4.190926   -1.231394    0.527385
 N    2.038583    1.115432   -0.655269
 C    2.401734    1.585701    0.675098
 C    1.163366    1.727840    1.555948
 O    0.127343    2.198362    1.131016
 C    3.042073    2.955480    0.380397
 C    2.316060    3.436729   -0.878549
 C    2.103776    2.155352   -1.683029
 H   -1.776224    1.038945   -0.470827
 H   -3.051839    1.380480    0.588291
 H   -1.428769    1.410706    1.125427
 H   -2.685674   -0.594776    1.851557
 H   -2.582122   -1.143818   -1.153010
 H   -2.650785   -2.434128    0.048219
 H   -4.898058   -2.077603   -0.655974
 H   -4.763796   -1.407045    0.979545
 H   -7.174199   -0.810678   -1.072685
 H   -7.085242   -0.145251    0.584774
 H   -7.355762    0.933867   -0.797085
 H   -0.424755   -1.592399   -0.734426
 H    1.743577   -0.858023    1.092980
 H    2.093354   -2.714782   -1.310260
 H    1.925562   -3.280615    0.358001
 H    5.403360   -2.978812   -0.262859
 H    3.110507    0.892374    1.139484
 H    1.229097    1.397698    2.609079
 H    2.960544    3.650573    1.221722
 H    4.107260    2.806696    0.171631
 H    2.888079    4.188359   -1.428934
 H    1.349999    3.870682   -0.610582
 H    2.930026    1.943699   -2.373924
 H    1.179173    2.148053   -2.269199
