87 
2bks_ligand_dft.xyz
 C   11.885446    1.357333    1.560518
 O   10.762030    0.803307    0.911626
 C    9.832373    1.652029    0.395218
 C    8.743153    1.024101   -0.230855
 C    8.710505   -0.481118   -0.270635
 O    7.498891   -0.921104   -0.835193
 C    9.909685    3.041124    0.455543
 C    8.895375    3.810173   -0.115874
 C    7.816473    3.201801   -0.740014
 C    7.747561    1.809078   -0.794161
 C   -2.270733   -0.522825   -0.121750
 C   -2.837461    0.848562    0.232663
 N   -3.431433    0.852215    1.615716
 C   -2.882593   -0.189646    2.554142
 C   -1.500000   -0.746174    2.189885
 N   -1.238767   -0.869150    0.855081
 O   -0.758220   -1.056857    3.096286
 C   -3.316232   -1.644653   -0.312325
 O   -3.953910   -1.546580   -1.564642
 C    0.129259   -2.222041   -0.672417
 C    0.047880   -1.309831    0.382418
 C    1.217166   -0.799161    0.935150
 C    2.459037   -1.196311    0.452038
 C    2.541268   -2.101837   -0.610155
 C    1.361269   -2.607526   -1.169250
 O    3.687294   -2.541963   -1.158644
 C    4.923502   -2.073097   -0.629594
 C    6.037353   -2.680050   -1.463525
 C    7.403808   -2.321931   -0.903398
 C   -6.678218   -0.428905    2.617966
 C   -4.826628    0.296859   -2.774926
 C   -5.787209    1.294570   -2.893713
 C   -6.837420    1.439279   -1.989188
 C   -6.948647    0.514067   -0.932181
 C   -5.979919   -0.491697   -0.804282
 C   -4.927621   -0.585259   -1.706883
 C   -7.824467    2.573889   -2.135124
 C   -8.441718    2.921198   -0.783901
 C   -8.994216    1.656462   -0.150925
 N   -7.940488    0.658494    0.067105
 C   -8.444604   -0.535640    0.772005
 C   -8.162685   -0.486516    2.278012
 O   -6.069998    0.761526    2.098245
 H   12.477928    1.978645    0.877505
 H   12.488816    0.511697    1.892222
 H   11.590434    1.955837    2.431666
 H    9.565235   -0.860091   -0.854798
 H    8.828165   -0.886241    0.747517
 H   10.747438    3.533146    0.935936
 H    8.963229    4.892943   -0.068204
 H    7.031564    3.802694   -1.188564
 H    6.913977    1.316760   -1.282821
 H   -1.771213   -0.405097   -1.086811
 H   -3.612364    1.169632   -0.464210
 H   -2.021056    1.573125    0.226431
 H   -3.274820    1.773508    2.027165
 H   -4.486853    0.751454    1.611598
 H   -2.803229    0.242700    3.550235
 H   -3.605389   -1.007441    2.595744
 H   -2.800693   -2.605892   -0.307755
 H   -4.043861   -1.665810    0.509736
 H   -0.765925   -2.642157   -1.120568
 H    1.171023   -0.098200    1.759896
 H    3.352019   -0.787390    0.908565
 H    1.435234   -3.313947   -1.988529
 H    4.967078   -0.979597   -0.678836
 H    5.014561   -2.377464    0.422916
 H    5.927752   -3.769662   -1.481201
 H    5.952442   -2.319858   -2.493830
 H    7.533098   -2.761575    0.100936
 H    8.197410   -2.735400   -1.545137
 H   -6.166933   -1.314190    2.208600
 H   -6.527907   -0.425901    3.701019
 H   -4.009242    0.202490   -3.481010
 H   -5.713693    2.003219   -3.714564
 H   -6.041126   -1.218582   -0.004372
 H   -8.620104    2.288729   -2.835709
 H   -7.326312    3.446152   -2.570037
 H   -9.247075    3.651983   -0.898063
 H   -7.687967    3.365850   -0.121925
 H   -9.445555    1.873288    0.822584
 H   -9.783239    1.234625   -0.792856
 H   -9.526601   -0.603266    0.609666
 H   -8.018546   -1.439577    0.330149
 H   -8.659339    0.385845    2.719838
 H   -8.597015   -1.373592    2.751508
 H   -6.659656    1.061224    1.368734
