77 
2bkt_ligand_ani.xyz
 C    9.918939    3.158982   -0.189598
 O    9.293336    1.896973   -0.248899
 C    8.351153    1.612366    0.693032
 C    7.728455    0.356055    0.589382
 C    8.069251   -0.627983   -0.512789
 O    6.918925   -1.055830   -1.223711
 C    7.989429    2.496864    1.711542
 C    7.005319    2.134565    2.629055
 C    6.375239    0.902044    2.533933
 C    6.737772    0.030480    1.510467
 C   -5.603178   -0.105894   -0.352086
 C   -6.306553    0.634348    0.591921
 C   -7.211935    1.620532    0.188934
 C   -7.417547    1.877147   -1.180603
 C   -6.701205    1.115430   -2.096654
 C   -5.795130    0.127606   -1.714154
 C   -2.950510   -2.690725    0.040978
 C   -3.683068   -3.535131    1.082974
 N   -4.190553   -2.639853    2.160160
 C   -3.040780   -2.042209    2.875330
 C   -2.049287   -1.355937    1.938346
 N   -1.867871   -1.926562    0.686183
 O   -1.414517   -0.398253    2.338396
 C   -3.915888   -1.786879   -0.735888
 O   -4.758758   -1.057238    0.164307
 C    0.530298   -1.411015    0.630066
 C   -0.665663   -1.681424   -0.037462
 C   -0.630047   -1.767729   -1.435765
 C    0.541928   -1.550723   -2.139804
 C    1.728660   -1.267360   -1.462701
 C    1.713031   -1.209131   -0.072849
 O    2.831059   -1.078697   -2.231857
 C    4.041146   -0.722915   -1.578868
 C    5.091039   -0.517071   -2.657910
 C    6.421906   -0.054812   -2.092280
 C   -9.368211    3.325470   -0.514374
 C   -8.613361    3.541284    0.790298
 N   -7.947308    2.302455    1.154696
 C   -8.371611    2.971779   -1.619327
 H   10.619837    3.189086   -1.024850
 H    9.189313    3.972072   -0.296350
 H   10.467286    3.290133    0.752177
 H    8.815118   -0.203412   -1.196519
 H    8.489292   -1.548642   -0.082730
 H    8.467328    3.467170    1.795686
 H    6.734423    2.830636    3.420314
 H    5.607578    0.618704    3.249333
 H    6.244645   -0.934395    1.417548
 H   -6.156329    0.433723    1.651831
 H   -6.850525    1.296607   -3.160472
 H   -5.265129   -0.440905   -2.470826
 H   -2.473362   -3.362977   -0.670847
 H   -2.984250   -4.257255    1.512109
 H   -4.507377   -4.081729    0.623386
 H   -4.829285   -3.131049    2.796284
 H   -4.692463   -1.863403    1.687904
 H   -2.483751   -2.813098    3.420483
 H   -3.368904   -1.294050    3.593270
 H   -4.546189   -2.412269   -1.378309
 H   -3.348799   -1.074001   -1.343831
 H    0.560610   -1.352300    1.710396
 H   -1.520045   -2.017163   -2.003960
 H    0.562497   -1.613638   -3.223314
 H    2.618212   -0.997088    0.488908
 H    3.889578    0.198692   -0.995312
 H    4.345155   -1.518778   -0.886048
 H    4.727394    0.231928   -3.371137
 H    5.233074   -1.454230   -3.206553
 H    6.298166    0.890786   -1.539046
 H    7.143421    0.132069   -2.906372
 H   -9.943180    4.219357   -0.779743
 H  -10.078543    2.501327   -0.378863
 H   -9.296158    3.810231    1.602996
 H   -7.897970    4.374829    0.666315
 H   -7.520370    2.296667    2.070224
 H   -7.791527    3.870090   -1.881897
 H   -8.896565    2.670268   -2.534218
