62 
2bok_ligand_ani.xyz
 O    1.464436   -2.223127   -1.845794
 C    1.676357   -1.967418   -0.681709
 N    0.745851   -2.071690    0.342110
 C   -0.573755   -2.681627    0.186851
 C   -1.695031   -1.642443    0.104089
 C   -3.061132   -2.280398   -0.134456
 N   -4.227817   -1.313343   -0.248565
 C   -4.447066   -0.565918    1.020971
 C   -4.037439   -0.345355   -1.367981
 C   -5.447017   -2.105506   -0.529307
 C    2.981709   -1.483126   -0.061180
 C    2.520402   -0.816569    1.233508
 C    1.156030   -1.437497    1.508075
 O    0.515064   -1.396768    2.532941
 C    3.729113   -0.452025   -0.890362
 C    5.253655   -0.577327   -0.945298
 C    5.739368    0.871090   -0.934974
 C    4.826753    1.528870    0.094176
 N    3.482257    0.909535   -0.183089
 C    2.501524    0.717498    0.961361
 C    1.136627    1.309131    0.626895
 C    0.398065    1.988203    1.597463
 C   -0.857488    2.510613    1.307786
 C   -1.410681    2.373101    0.036466
 C   -2.766902    2.929793   -0.264154
 N   -3.753091    2.981013    0.550446
 N   -2.947486    3.340612   -1.577987
 C   -0.681309    1.679633   -0.937729
 C    0.571322    1.158112   -0.643978
 H   -0.516913   -3.279697   -0.726926
 H   -0.728522   -3.354871    1.037131
 H   -1.696895   -1.072959    1.040524
 H   -1.455002   -0.946660   -0.707862
 H   -3.054704   -2.857202   -1.067024
 H   -3.315024   -2.966113    0.682895
 H   -3.589861    0.076025    1.228061
 H   -4.587157   -1.276274    1.840148
 H   -5.340315    0.056193    0.912916
 H   -3.821937   -0.891037   -2.290383
 H   -4.957343    0.232462   -1.483498
 H   -3.218049    0.336045   -1.137055
 H   -5.612614   -2.811978    0.288191
 H   -5.313982   -2.648664   -1.468377
 H   -6.301154   -1.429212   -0.611587
 H    3.595258   -2.367343    0.131311
 H    3.193187   -1.014227    2.068168
 H    3.308741   -0.379948   -1.894991
 H    5.611097   -1.092282   -0.045813
 H    5.581928   -1.143601   -1.819193
 H    6.795656    0.970816   -0.674356
 H    5.583838    1.335948   -1.916476
 H    4.772608    2.617045    0.004895
 H    5.141008    1.272225    1.111450
 H    2.990669    1.555462   -0.838872
 H    2.893282    1.241557    1.835105
 H    0.802886    2.106972    2.602333
 H   -1.401684    3.055032    2.079017
 H   -3.458381    2.640514    1.465075
 H   -3.790961    3.889284   -1.695022
 H   -2.133860    3.765700   -2.004851
 H   -1.102616    1.546912   -1.931304
 H    1.114186    0.605141   -1.410284
