62 
2bok_ligand_xtb.xyz
 O    1.266486   -1.873029   -2.070525
 C    1.412706   -1.690247   -0.899391
 N    0.390596   -1.571199    0.030809
 C   -0.943094   -2.072530   -0.260584
 C   -2.105353   -1.121336    0.060591
 C   -3.397918   -1.901079   -0.207031
 N   -4.694529   -1.210136    0.044327
 C   -4.801487   -0.768038    1.446028
 C   -4.876377   -0.048565   -0.848665
 C   -5.771743   -2.186290   -0.226747
 C    2.729993   -1.568676   -0.135544
 C    2.333662   -0.895064    1.173201
 C    0.812875   -1.104965    1.257733
 O    0.104185   -0.894735    2.198087
 C    3.798698   -0.712455   -0.810151
 C    5.222449   -1.279511   -0.773012
 C    6.089513   -0.068286   -0.436743
 C    5.221429    0.653763    0.580663
 N    3.852271    0.568917   -0.004292
 C    2.736876    0.589697    0.990351
 C    1.556794    1.406755    0.528015
 C    0.792015    2.054474    1.493698
 C   -0.425339    2.609274    1.158072
 C   -0.888254    2.544899   -0.153390
 C   -2.320581    2.799333   -0.457650
 N   -3.237109    2.268176    0.262461
 N   -2.625222    3.409325   -1.619462
 C   -0.071143    1.998950   -1.138577
 C    1.139072    1.423666   -0.798532
 H   -0.935911   -2.320790   -1.325577
 H   -1.072706   -2.995460    0.315617
 H   -2.030018   -0.826822    1.106925
 H   -2.040647   -0.231389   -0.565488
 H   -3.398303   -2.220946   -1.252345
 H   -3.387254   -2.798220    0.417703
 H   -4.086117    0.024125    1.647714
 H   -4.622472   -1.601193    2.123106
 H   -5.798642   -0.374081    1.632564
 H   -4.661815   -0.327981   -1.877534
 H   -5.907254    0.294712   -0.791890
 H   -4.237146    0.790139   -0.545350
 H   -5.677775   -3.053855    0.424157
 H   -5.732024   -2.518920   -1.262499
 H   -6.743153   -1.728752   -0.049457
 H    3.088034   -2.591941    0.009439
 H    2.799160   -1.323543    2.061857
 H    3.505797   -0.489436   -1.839546
 H    5.320041   -2.031276    0.010298
 H    5.494785   -1.739200   -1.719392
 H    7.054295   -0.350329   -0.024314
 H    6.261989    0.551224   -1.316839
 H    5.504018    1.690834    0.753639
 H    5.228451    0.113448    1.528611
 H    3.730876    1.366936   -0.633356
 H    3.109319    1.006510    1.929271
 H    1.126649    2.082462    2.518470
 H   -1.029770    3.078555    1.919577
 H   -2.874598    1.853102    1.115830
 H   -3.594228    3.638415   -1.774268
 H   -1.944628    4.003862   -2.060399
 H   -0.405047    1.971790   -2.164416
 H    1.719932    0.961942   -1.583516
