95 
2bpv_ligand_ani.xyz
 C   -2.091648    1.207893    0.903282
 C   -1.484099    1.263950   -0.512759
 C   -0.801564    2.612533   -0.746669
 O    0.865213   -0.629011    1.659314
 O   -4.633631    1.311234    0.151323
 C   -0.417190    5.334672   -2.181374
 C   -1.471398   -1.192015   -0.534227
 C   -2.201755   -1.185750    0.810857
 C    0.087567    0.024290   -2.068476
 C    1.611643   -0.199336   -1.969985
 C    1.949471   -1.655626   -1.620618
 C    3.343427   -1.945768   -1.019946
 C    4.508062   -1.259101   -1.753427
 C    5.864107   -1.819482   -1.383165
 C    6.601647   -1.279776   -0.327012
 C    7.626178   -3.454102   -1.718779
 C    6.396372   -2.909573   -2.076146
 C    3.275851   -1.741810    0.493208
 C    3.222031   -0.210261    2.371573
 C    1.547254    1.621422    2.365109
 C   -6.386538   -0.884064    0.103643
 C    3.891625    1.077111    2.872085
 C   -4.249939    0.216670    0.556103
 C   -8.659037   -1.729252   -0.440359
 C   -9.578009   -2.765699   -0.479768
 C   -9.179586   -4.019186   -0.023549
 C   -7.088789   -3.269924    0.481748
 N   -2.956350    0.043518    1.014696
 O    0.416120    2.783053   -0.756260
 N   -1.681206    3.626058   -0.924036
 C   -1.326311    5.058822   -0.979360
 C   -0.619288    5.490590    0.313333
 C   -2.634430    5.833234   -1.135487
 N   -0.611623    0.044283   -0.730365
 O    2.173087    0.709507   -1.043035
 C    7.832021   -1.821022    0.033783
 C    8.347461   -2.911042   -0.660830
 O    2.870658   -2.656679    1.209076
 N    3.578181   -0.507138    0.991392
 C    1.703439    0.095983    2.551972
 C    2.982090    2.201037    2.341022
 C    5.363480    1.242336    2.518791
 C   -5.144700   -0.962144    0.599424
 C   -7.372246   -1.968282    0.053597
 N   -7.959006   -4.274813    0.449059
 H   -2.693863    2.088908    1.114615
 H   -1.294628    1.126710    1.652969
 H   -2.308782    1.196966   -1.230962
 H    1.123733   -1.564588    1.739616
 H   -0.221439    6.410961   -2.257272
 H    0.537173    4.815864   -2.077078
 H   -0.896708    5.004288   -3.108979
 H   -0.843037   -2.084828   -0.606341
 H   -2.201619   -1.231796   -1.352705
 H   -2.858084   -2.051972    0.875315
 H   -1.466223   -1.251950    1.616007
 H   -0.364625   -0.752460   -2.693953
 H   -0.099714    0.983417   -2.556303
 H    2.036955    0.019874   -2.962851
 H    1.825935   -2.242794   -2.539583
 H    1.211884   -2.052360   -0.913551
 H    3.471710   -3.029180   -1.100842
 H    4.477487   -0.178837   -1.579217
 H    4.346537   -1.400482   -2.829474
 H    6.209647   -0.428034    0.225006
 H    8.021487   -4.304209   -2.269748
 H    5.846692   -3.340719   -2.911283
 H    3.512085   -1.089444    2.956316
 H    1.004635    1.860972    1.446000
 H    0.967720    2.036683    3.196673
 H   -6.706647    0.069131   -0.313187
 H    3.799561    1.058366    3.968022
 H   -8.933645   -0.735568   -0.788419
 H  -10.585282   -2.611400   -0.856466
 H   -9.870723   -4.859658   -0.038024
 H   -6.101536   -3.519147    0.867835
 H   -2.663313    3.393350   -0.833873
 H   -1.260174    5.313742    1.184383
 H    0.313612    4.939142    0.449479
 H   -0.387580    6.561277    0.268524
 H   -3.150227    5.547050   -2.059479
 H   -2.443959    6.911270   -1.177539
 H   -3.302898    5.645611   -0.286569
 H    0.125634    0.025649    0.005053
 H    1.611926    1.510155   -1.029834
 H    8.390549   -1.387425    0.859436
 H    9.308065   -3.334665   -0.379085
 H    3.460135    0.257469    0.334476
 H    1.440590   -0.170051    3.584884
 H    3.081252    3.117457    2.932907
 H    3.272317    2.458131    1.312254
 H    5.769405    2.154077    2.971004
 H    5.501001    1.326160    1.435663
 H    5.960647    0.395827    2.878218
 H   -4.778398   -1.859116    1.083847
