84 
2bqv_ligand_xtb.xyz
 C   -0.098153   -3.075904   -1.023007
 C   -1.343144   -2.893495   -1.622815
 C   -2.419535   -3.694455   -1.275873
 C   -2.266239   -4.680412   -0.316668
 C   -1.034105   -4.865002    0.291319
 C    0.042821   -4.069028   -0.059682
 C   -2.319545   -0.883171    2.123284
 C   -2.897465   -2.142022    2.022855
 C   -4.203858   -2.341975    2.430742
 C   -4.940034   -1.287912    2.945190
 C   -4.364086   -0.033606    3.059930
 C   -3.058788    0.171442    2.647742
 C   -0.924982   -0.649462    1.614461
 C   -1.905035    5.683522   -0.003562
 C    0.359084    0.014548   -0.409763
 O   -2.130637    3.120360    0.728993
 N   -3.595793    2.735279   -0.963644
 C    1.076636   -2.238371   -1.447542
 O    1.723772   -1.530207    0.812042
 O   -2.782966    4.773608   -0.663333
 C    2.642458   -0.347868   -1.163996
 O    2.513899    0.107450   -2.281215
 N    3.735183   -0.273737   -0.409242
 C    5.019945    0.157076   -0.902629
 C    5.699724    1.133491    0.017739
 C    7.037651    0.798097    0.189826
 C    5.152500    2.230556    0.652009
 C    5.969977    2.998122    1.468768
 C    7.304438    2.667737    1.640380
 C    6.019773   -1.033298   -0.975946
 O    5.583564   -2.005124   -0.041809
 C   -2.797286    3.523688   -0.216174
 C    7.851025    1.563921    1.001428
 C    7.385292   -0.426784   -0.604022
 C   -4.138136    1.457096   -0.543428
 C   -5.402330    1.096761   -1.344970
 C   -6.549377    2.042804   -1.000933
 C    1.432641   -1.080146   -0.491157
 C   -5.138236    1.066860   -2.849035
 C   -3.126915    0.307712   -0.588566
 N   -0.960501   -0.366771    0.145403
 O   -3.372347   -0.822907   -0.934814
 N   -1.891059    0.658307   -0.134657
 H   -1.459154   -2.163224   -2.411682
 H   -3.370773   -3.543678   -1.759024
 H   -3.098774   -5.313626   -0.052779
 H   -0.906263   -5.641109    1.030603
 H    1.004059   -4.245392    0.400592
 H   -2.324161   -2.966194    1.627092
 H   -4.646564   -3.321822    2.347300
 H   -5.959020   -1.444562    3.262962
 H   -4.931036    0.786749    3.473121
 H   -2.613414    1.151963    2.739471
 H   -0.475507    0.219356    2.100235
 H   -0.283740   -1.517389    1.768961
 H   -2.094148    5.684439    1.070745
 H   -2.117216    6.659870   -0.429591
 H   -0.865526    5.406665   -0.186267
 H    0.206366    0.392069   -1.423952
 H    0.744285    0.827616    0.212523
 H   -4.082924    3.193541   -1.720158
 H    1.963126   -2.875666   -1.521697
 H    0.902924   -1.809074   -2.435313
 H    2.343713   -2.268531    0.757508
 H    3.748306   -0.691527    0.510771
 H    4.854499    0.587376   -1.895845
 H    4.112338    2.485253    0.510992
 H    5.563141    3.860451    1.974645
 H    7.926579    3.275543    2.279252
 H    6.031091   -1.479460   -1.979788
 H    6.285226   -2.655415    0.068768
 H    8.890733    1.308893    1.138743
 H    7.934793   -0.149678   -1.505891
 H    7.998803   -1.128862   -0.036567
 H   -4.409528    1.523610    0.523779
 H   -5.674989    0.084874   -1.030304
 H   -6.317284    3.069312   -1.276564
 H   -7.444508    1.746148   -1.539825
 H   -6.769239    2.013916    0.063665
 H   -6.019972    0.694228   -3.362530
 H   -4.917791    2.055150   -3.246652
 H   -4.308891    0.403764   -3.078339
 H   -1.327157   -1.223454   -0.352380
 H   -1.789779    1.567750    0.364039
