84 
2bqv_ligand_ani.xyz
 C    0.178310   -3.328456   -0.852964
 C   -1.086983   -3.443616   -1.436938
 C   -2.065801   -4.256701   -0.869100
 C   -1.781441   -4.992368    0.279064
 C   -0.519563   -4.894128    0.861988
 C    0.450268   -4.068248    0.301431
 C   -2.031779   -0.643194    2.154982
 C   -2.840788   -1.783566    2.160557
 C   -4.090518   -1.765412    2.775293
 C   -4.551342   -0.607165    3.393505
 C   -3.755187    0.535027    3.394842
 C   -2.507807    0.515840    2.778460
 C   -0.700057   -0.649762    1.464145
 C   -2.622975    5.623478   -0.186705
 C    0.445515   -0.078300   -0.865544
 O   -3.018748    3.216523    0.794677
 N   -3.940607    2.500389   -1.180279
 C    1.236345   -2.455400   -1.484504
 O    1.945594   -1.328395    0.592415
 O   -3.201981    4.595392   -0.991154
 C    2.764285   -0.496256   -1.514714
 O    3.023729   -0.768640   -2.673872
 N    3.511632    0.388182   -0.773230
 C    4.942593    0.418828   -1.009394
 C    5.642837    1.438533   -0.138346
 C    6.801438    0.907437    0.420829
 C    5.250334    2.745409    0.119602
 C    6.048945    3.527163    0.951949
 C    7.210744    2.999354    1.514520
 C    5.650859   -0.926175   -0.651680
 O    4.821581   -1.621346    0.287183
 C   -3.362039    3.419397   -0.358487
 C    7.596647    1.684563    1.252602
 C    7.001754   -0.524938   -0.023154
 C   -4.214883    1.165784   -0.683246
 C   -5.483056    0.547731   -1.289537
 C   -6.714450    1.333970   -0.843658
 C    1.560217   -1.125674   -0.765046
 C   -5.416318    0.453105   -2.815108
 C   -3.011657    0.233918   -0.802055
 N   -0.867116   -0.308809   -0.103381
 O   -3.061542   -0.937316   -1.154105
 N   -1.794611    0.758803   -0.407663
 H   -1.323635   -2.862508   -2.326626
 H   -3.051661   -4.316936   -1.322801
 H   -2.541336   -5.630951    0.723946
 H   -0.290910   -5.463739    1.758595
 H    1.428827   -3.995700    0.772067
 H   -2.488436   -2.693352    1.675324
 H   -4.707028   -2.661171    2.773110
 H   -5.526177   -0.593365    3.873953
 H   -4.106777    1.448081    3.870346
 H   -1.898357    1.418602    2.767576
 H   -0.010933    0.084155    1.888065
 H   -0.238262   -1.630968    1.479923
 H   -3.272782    5.860760    0.659251
 H   -2.520458    6.485173   -0.845140
 H   -1.648520    5.309739    0.195247
 H    0.180871    0.033691   -1.917055
 H    0.849627    0.884023   -0.535808
 H   -3.803595    2.634210   -2.171518
 H    2.172077   -3.022137   -1.572733
 H    0.941820   -2.191593   -2.503033
 H    2.848391   -1.696357    0.586478
 H    3.277627    0.386792    0.211450
 H    5.101860    0.635634   -2.072279
 H    4.340502    3.145204   -0.322330
 H    5.762255    4.553729    1.166578
 H    7.823847    3.619870    2.163891
 H    5.774914   -1.533061   -1.556251
 H    5.209895   -2.496798    0.426436
 H    8.506957    1.281046    1.691250
 H    7.798288   -0.590571   -0.773639
 H    7.272559   -1.184472    0.807756
 H   -4.362881    1.301960    0.394532
 H   -5.534236   -0.471249   -0.889163
 H   -6.645155    2.375483   -1.177910
 H   -7.625437    0.897293   -1.266832
 H   -6.818970    1.333167    0.247537
 H   -6.297916   -0.075891   -3.195519
 H   -5.410485    1.445795   -3.283337
 H   -4.526606   -0.093927   -3.141715
 H   -1.418092   -1.130125   -0.520759
 H   -1.802497    1.519685    0.270335
