50 
2br1_ligand_xtb.xyz
 C    0.657625    5.764148    0.512418
 O    1.153324    4.894732   -0.475859
 C    0.884627    3.563709   -0.366627
 C    0.181117    2.972741    0.678131
 C   -0.028670    1.605516    0.685555
 C    1.368911    2.759178   -1.399608
 C    1.157071    1.397346   -1.384378
 C    0.452214    0.798539   -0.339199
 C    0.258071   -0.651511   -0.303519
 C    1.297210   -1.633916   -0.328463
 C    2.707671   -1.681492   -0.361030
 N    3.462736   -0.570597   -0.463418
 C    4.882973   -0.574029   -0.232760
 C    5.247852    0.289615    0.975924
 O    4.593604   -0.229855    2.110439
 N    3.310062   -2.873235   -0.331937
 C    2.569364   -3.963337   -0.244392
 N    1.255446   -4.055227   -0.168319
 C    0.648134   -2.874942   -0.206182
 O   -0.675016   -2.706951   -0.114852
 C   -0.915320   -1.358032   -0.175104
 C   -2.298591   -0.928383   -0.111671
 C   -3.259621   -1.778018    0.434378
 C   -4.585280   -1.399375    0.522221
 C   -4.983996   -0.150927    0.055365
 O   -6.255760    0.332115    0.098687
 C   -7.264277   -0.476606    0.654003
 C   -4.029238    0.696657   -0.512891
 C   -2.710705    0.315576   -0.598819
 H   -0.435262    5.731367    0.565149
 H    1.076199    5.534865    1.497907
 H    0.973324    6.761903    0.211940
 H   -0.208010    3.564410    1.491559
 H   -0.576211    1.154618    1.499632
 H    1.905452    3.230359   -2.208054
 H    1.519052    0.788233   -2.200385
 H    2.982952    0.313957   -0.375468
 H    5.408870   -0.190488   -1.114465
 H    5.169593   -1.611655   -0.054226
 H    4.931028    1.329546    0.794573
 H    6.338380    0.276222    1.106575
 H    4.883759    0.244813    2.895347
 H    3.111512   -4.899159   -0.224923
 H   -2.955700   -2.747295    0.798506
 H   -5.296372   -2.084370    0.956506
 H   -7.386002   -1.409587    0.094402
 H   -7.062027   -0.706811    1.705161
 H   -8.181282    0.106478    0.584015
 H   -4.355544    1.654083   -0.887230
 H   -1.993477    0.976839   -1.058225
