45 
2brg_ligand_ani.xyz
 C    5.722241   -2.431276   20.239814
 C    1.754039   -4.227246   19.943612
 C    0.333394   -4.359754   20.268284
 C   -0.315113   -5.597336   20.314413
 C   -1.668388   -5.676374   20.622653
 C   -2.393608   -4.521913   20.897060
 C   -1.752553   -3.285698   20.875014
 C   -0.400249   -3.203900   20.575785
 C    1.440457   -6.514008   17.769702
 C    1.270373   -7.752568   17.159353
 C    2.160894   -8.788665   17.421405
 C    3.224846   -8.578680   18.294238
 N    4.464140   -2.195560   20.610724
 C    3.634908   -3.112364   20.145001
 O    2.328811   -3.092974   20.445125
 C    3.932054   -4.208283   19.337285
 N    5.739933   -5.059595   17.913509
 C    5.283571   -4.234034   18.889329
 N    6.175186   -3.409751   19.464202
 C    3.400880   -7.338214   18.895558
 C    2.696403   -4.968785   19.262864
 C    2.508363   -6.289318   18.642253
 C    7.778461   -4.445409   16.598769
 C    7.171994   -5.241130   17.748797
 O    7.361662   -3.105079   16.719494
 C    4.917726   -5.428795   16.773745
 H    6.471996   -1.737060   20.614192
 H    0.236174   -6.510546   20.115610
 H   -2.155544   -6.646910   20.647142
 H   -3.452324   -4.583934   21.134169
 H   -2.309949   -2.378827   21.098668
 H    0.100911   -2.239314   20.578055
 H    0.723666   -5.715895   17.585343
 H    0.435950   -7.906995   16.481788
 H    2.024672   -9.757751   16.948709
 H    3.921721   -9.385107   18.507347
 H    4.233742   -7.181268   19.577798
 H    7.469106   -4.881776   15.634299
 H    8.874289   -4.539828   16.658592
 H    7.372900   -6.309497   17.589639
 H    7.639624   -4.928822   18.683362
 H    7.891128   -2.555530   16.132321
 H    5.241633   -4.912226   15.859445
 H    3.877582   -5.164501   16.958445
 H    4.978298   -6.510504   16.609088
