41 
2brh_ligand_dft.xyz
 C    1.785809    3.474756    0.290545
 C   -1.713529    0.887332    0.068573
 C   -3.126846    0.518993   -0.033275
 C   -4.035129    1.407452   -0.621676
 C   -5.377156    1.065484   -0.732575
 C   -5.829594   -0.163105   -0.258969
 C   -4.932688   -1.046198    0.336710
 C   -3.590284   -0.708841    0.455199
 C   -0.771160   -2.070803   -0.940843
 C   -0.578898   -3.447866   -0.944333
 C    0.004212   -4.078446    0.152495
 C    0.385608   -3.326743    1.260203
 N    0.464165    3.576184    0.195367
 C   -0.118534    2.387122    0.170871
 O   -1.452807    2.238356    0.066602
 C    0.496081    1.142049    0.238872
 N    2.663610    0.036204    0.270154
 C    1.902398    1.182735    0.298794
 N    2.527101    2.359862    0.336859
 C    0.184455   -1.948626    1.269859
 C   -0.560700    0.161977    0.168078
 C   -0.391012   -1.306140    0.166471
 C    4.976279   -0.458991   -0.509628
 C    4.070611    0.029128    0.623580
 O    6.123455   -0.765011   -0.323142
 O    4.404703   -0.497704   -1.719157
 H    2.340225    4.408381    0.328436
 H   -3.683255    2.365078   -0.990281
 H   -6.071614    1.761897   -1.192334
 H   -6.878550   -0.428907   -0.347657
 H   -5.280661   -1.999995    0.721273
 H   -2.903933   -1.394440    0.940040
 H   -1.219952   -1.576254   -1.796943
 H   -0.877950   -4.030213   -1.810421
 H    0.159724   -5.152720    0.144046
 H    0.831674   -3.812867    2.122523
 H    2.154868   -0.826312    0.416653
 H    0.457509   -1.362461    2.144267
 H    4.260225   -0.598806    1.498260
 H    4.368290    1.052202    0.867072
 H    3.476913   -0.223066   -1.609738
