34 
2bts_ligand_ani.xyz
 O    6.919743   11.398732   29.525878
 O    6.356204   10.863424   27.097820
 C    0.210384    4.170740   29.721189
 C   -0.292238    4.977507   28.754139
 C   -1.539688    4.810224   27.934502
 C   -2.631364    5.813858   28.335069
 C   -1.270206    4.880541   26.426849
 S    0.754660    6.364664   28.595842
 C    1.780996    5.690426   29.838387
 N    1.370766    4.563930   30.343581
 N    4.887946   12.338250   28.451376
 C    4.444218    8.833812   28.057737
 C    5.071115    9.636780   29.005621
 N    2.917728    6.298913   30.301080
 C    5.006864    9.322747   30.360246
 C    4.286566    8.208087   30.759890
 C    3.619377    7.414043   29.820064
 C    3.714852    7.723156   28.459882
 S    5.969040   11.077736   28.478866
 H   -0.257035    3.242281   30.030646
 H   -1.912987    3.803315   28.162871
 H   -3.545223    5.620759   27.762946
 H   -2.310661    6.840239   28.127506
 H   -2.866621    5.736629   29.401142
 H   -2.194710    4.684013   25.873237
 H   -0.521799    4.141099   26.124509
 H   -0.906303    5.872994   26.141292
 H    4.164710   12.242549   27.748328
 H    4.543075   12.603773   29.366271
 H    4.539391    9.073806   27.003166
 H    3.264566    5.866632   31.146415
 H    5.532579    9.938160   31.084139
 H    4.228045    7.945799   31.812348
 H    3.232008    7.093382   27.720163
