34 
2bts_ligand_dft.xyz
 O    5.578196    0.486563   -0.087459
 O    4.703575   -1.538284    1.186105
 C   -4.260497    1.418648    0.212852
 C   -4.168995    0.082128    0.000700
 C   -5.268696   -0.940077   -0.076324
 C   -5.312060   -1.640957   -1.441153
 C   -5.188105   -1.959212    1.068959
 S   -2.474851   -0.338656   -0.145255
 C   -2.069684    1.346146    0.117804
 N   -3.088323    2.135589    0.281212
 N    4.626441   -1.530667   -1.313422
 C    1.922117   -0.606714    0.570505
 C    3.000867    0.127056    0.089330
 N   -0.794716    1.863521    0.054293
 C    2.821098    1.427466   -0.374232
 C    1.551589    1.978565   -0.382979
 C    0.448607    1.244068    0.080041
 C    0.651255   -0.051799    0.575436
 S    4.619195   -0.595529    0.081376
 H   -5.199155    1.945929    0.342667
 H   -6.201293   -0.372675    0.041886
 H   -4.407290   -2.238639   -1.604340
 H   -6.172311   -2.316478   -1.497678
 H   -5.387747   -0.913599   -2.254962
 H   -6.047139   -2.637940    1.038201
 H   -4.279086   -2.567113    0.990136
 H   -5.176246   -1.457775    2.041291
 H    5.186439   -1.091078   -2.037306
 H    4.965569   -2.461774   -1.091526
 H    2.080248   -1.603017    0.969498
 H   -0.804453    2.870630   -0.031003
 H    3.674169    2.001234   -0.719639
 H    1.404579    2.988115   -0.756539
 H   -0.168734   -0.616094    1.002004
