47 
2bu5_ligand_ani.xyz
 N    1.426449   -0.100376   -0.037370
 C    2.645639   -0.698303   -0.226320
 C    0.255901   -0.951228   -0.321955
 C    1.175881    1.015707    0.879287
 C    3.916775    0.141951    0.061513
 O    2.743228   -1.852179   -0.616513
 C   -0.882802   -0.063043   -0.808349
 C   -0.119596   -1.826821    0.872087
 C    0.021619    1.889591    0.397105
 C    5.152844   -0.749825   -0.149025
 C    4.017726    1.356311   -0.857729
 O    3.941112    0.568504    1.410789
 N   -1.137966    1.027751    0.130796
 C    0.389981    2.774803   -0.793430
 F    5.209088   -1.236188   -1.391060
 F    5.154343   -1.773184    0.724879
 F    6.283630   -0.052801    0.061579
 C   -2.378501    1.591786    0.329215
 C   -3.581333    0.704304    0.196543
 O   -2.505912    2.779741    0.598122
 C   -4.713190    1.241115   -0.419353
 C   -3.629289   -0.593541    0.710664
 C   -5.855278    0.473724   -0.580961
 C   -4.773543   -1.365719    0.568138
 C   -5.888068   -0.837691   -0.092714
 C   -7.075260   -1.638109   -0.264176
 N   -8.030585   -2.278561   -0.405131
 H    0.553096   -1.603703   -1.145256
 H    0.924340    0.623952    1.874645
 H    2.077831    1.612072    0.996509
 H   -0.610098    0.347748   -1.791756
 H   -1.788492   -0.653451   -0.954792
 H   -0.942265   -2.502892    0.607555
 H    0.740751   -2.437483    1.163165
 H   -0.428946   -1.226129    1.735890
 H   -0.278321    2.541115    1.221333
 H    4.882917    1.959855   -0.576332
 H    3.126857    1.987030   -0.791396
 H    4.124021    1.036830   -1.898884
 H    4.020388   -0.218972    1.970248
 H   -0.464795    3.399398   -1.067856
 H    1.220961    3.439127   -0.526299
 H    0.689161    2.185551   -1.669108
 H   -4.680568    2.267813   -0.771541
 H   -2.767453   -1.004467    1.231213
 H   -6.728747    0.884569   -1.078934
 H   -4.803920   -2.378720    0.952523
