55 
2bub_ligand_ani.xyz
 O    0.392378   -2.012292   -1.149966
 C   -0.097150   -1.786083   -0.040843
 C    0.587769   -0.880922    0.980201
 C    1.778004   -0.103131    0.398779
 N    1.377285    0.439129   -0.930608
 C    3.056280   -0.963629    0.279866
 C    4.340665   -0.173749    0.363436
 C    4.812337    0.584778   -0.704319
 F    4.113125    0.581816   -1.867600
 C    5.963901    1.352295   -0.648111
 C    6.693316    1.372704    0.536099
 C    6.260726    0.630614    1.629858
 C    5.098189   -0.130329    1.536548
 N   -1.306148   -2.295492    0.300784
 C   -2.235596   -2.750252   -0.742191
 C   -3.442120   -3.276989    0.056756
 C   -2.931038   -3.462920    1.489745
 C   -1.893883   -2.351212    1.635267
 C   -2.601960   -1.625765   -1.733845
 N   -3.154602   -0.438095   -1.102999
 C   -2.437191    0.693253   -0.879818
 O   -1.261812    0.814088   -1.222754
 C   -3.155330    1.825405   -0.206470
 C   -4.298170    1.659973    0.580533
 C   -4.908346    2.762051    1.169291
 C   -4.384622    4.037912    0.976143
 C   -3.238570    4.207293    0.203118
 C   -2.623966    3.104052   -0.376943
 H    0.908577   -1.477035    1.843825
 H   -0.158637   -0.170541    1.358849
 H    1.992089    0.732792    1.075610
 H    1.136272   -0.383132   -1.520590
 H    2.151179    0.960757   -1.365050
 H    0.528641    1.024838   -0.845160
 H    3.054959   -1.693991    1.097601
 H    3.005260   -1.538507   -0.648198
 H    6.266616    1.919104   -1.523426
 H    7.599598    1.968538    0.601200
 H    6.828025    0.640679    2.556814
 H    4.768405   -0.711053    2.395302
 H   -1.750155   -3.549705   -1.313552
 H   -4.241871   -2.527857    0.047754
 H   -3.848429   -4.194073   -0.377739
 H   -2.445337   -4.438319    1.601701
 H   -3.725971   -3.390827    2.237402
 H   -2.365990   -1.393833    1.904067
 H   -1.136711   -2.578640    2.392257
 H   -1.702588   -1.324766   -2.270082
 H   -3.324357   -2.012742   -2.460503
 H   -4.148904   -0.410422   -0.940403
 H   -4.713862    0.671747    0.768195
 H   -5.801185    2.622437    1.774391
 H   -4.866655    4.899019    1.431601
 H   -2.822385    5.200808    0.055718
 H   -1.724446    3.213134   -0.976259
