55 
2bub_ligand_xtb.xyz
 O    0.452050   -1.741517   -1.233596
 C   -0.015356   -1.624350   -0.096296
 C    0.684917   -0.802111    0.979418
 C    1.872288   -0.003541    0.421662
 N    1.438161    0.562836   -0.879625
 C    3.128330   -0.866671    0.208252
 C    4.412314   -0.084836    0.326884
 C    4.851757    0.779400   -0.667412
 F    4.065280    0.950372   -1.771627
 C    6.032950    1.486921   -0.588003
 C    6.822209    1.335283    0.538784
 C    6.414148    0.488773    1.555595
 C    5.225304   -0.211589    1.447204
 N   -1.183493   -2.159415    0.236148
 C   -2.062883   -2.720616   -0.790385
 C   -3.250671   -3.291510   -0.007427
 C   -2.736021   -3.414478    1.426236
 C   -1.784926   -2.226465    1.550833
 C   -2.452778   -1.625338   -1.802298
 N   -3.108491   -0.496739   -1.178513
 C   -2.473279    0.602261   -0.731526
 O   -1.251892    0.736575   -0.798329
 C   -3.344497    1.649172   -0.142934
 C   -4.506156    1.343789    0.563600
 C   -5.276598    2.358673    1.100486
 C   -4.901618    3.682458    0.934162
 C   -3.741778    3.992530    0.243047
 C   -2.961970    2.981037   -0.284754
 H    1.021048   -1.452355    1.787161
 H   -0.053339   -0.111974    1.393315
 H    2.108858    0.811802    1.114203
 H    1.184299   -0.318305   -1.430006
 H    2.161564    1.110362   -1.349136
 H    0.540202    1.070305   -0.795194
 H    3.150245   -1.656759    0.958162
 H    3.070388   -1.348185   -0.770213
 H    6.320075    2.135856   -1.399506
 H    7.751200    1.876354    0.618562
 H    7.026550    0.367668    2.434958
 H    4.922754   -0.877037    2.241671
 H   -1.517501   -3.498201   -1.335188
 H   -4.091994   -2.599521   -0.040535
 H   -3.578127   -4.245927   -0.411257
 H   -2.180377   -4.343999    1.549205
 H   -3.534127   -3.386392    2.163464
 H   -2.333974   -1.301364    1.767492
 H   -1.032283   -2.377428    2.324474
 H   -1.544148   -1.266056   -2.290970
 H   -3.115420   -2.054708   -2.554085
 H   -4.115497   -0.501533   -1.146028
 H   -4.800192    0.315851    0.725674
 H   -6.172730    2.116311    1.650800
 H   -5.511364    4.470321    1.348181
 H   -3.444780    5.022055    0.116528
 H   -2.057460    3.209508   -0.828533
