49 
2buc_ligand_ani.xyz
 F   -4.399188    0.447308    1.793338
 C   -4.254668   -0.409378    0.753198
 C   -4.516413   -1.752892    0.964564
 C   -4.363800   -2.632332   -0.103440
 C   -3.959296   -2.155943   -1.347131
 C   -3.706823   -0.797805   -1.523493
 C   -3.846028    0.111939   -0.472002
 C   -3.565377    1.586047   -0.627867
 C   -2.130134    2.033611   -0.289165
 N   -1.756865    1.761367    1.135118
 C   -1.048341    1.389617   -1.165834
 C    0.310248    1.810787   -0.626091
 O    0.432578    2.908485   -0.092466
 N    1.378666    0.948323   -0.711888
 C    2.631483    1.482552   -0.170041
 C    3.752089    0.477538   -0.032726
 C    4.898120    0.836705    0.679783
 C    5.965508   -0.043500    0.814553
 C    5.896404   -1.303681    0.224016
 C    3.673371   -0.794280   -0.599970
 C    4.756069   -1.670108   -0.483028
 C    2.407156   -1.187530   -1.318569
 C    1.171180   -0.504626   -0.741855
 C    0.672014   -1.008691    0.636234
 O   -0.444020   -0.698559    1.038740
 N    1.497402   -1.809074    1.353893
 H   -4.832740   -2.085958    1.949040
 H   -4.562804   -3.691066    0.037618
 H   -3.838239   -2.840446   -2.181701
 H   -3.388167   -0.430175   -2.497823
 H   -4.249155    2.156543    0.008281
 H   -3.771932    1.886735   -1.661154
 H   -2.083039    3.113441   -0.443010
 H   -1.463781    0.762089    1.228982
 H   -0.954985    2.388458    1.341392
 H   -2.537043    1.964638    1.779784
 H   -1.147279    1.723035   -2.205823
 H   -1.164310    0.306972   -1.153371
 H    2.948232    2.309956   -0.816121
 H    2.434340    1.938408    0.808086
 H    4.951839    1.824013    1.136147
 H    6.848875    0.252429    1.374571
 H    6.723909   -2.001410    0.319256
 H    4.694115   -2.656639   -0.939225
 H    2.270029   -2.274140   -1.306495
 H    2.479459   -0.884787   -2.369254
 H    0.351575   -0.695597   -1.435238
 H    2.487829   -1.842699    1.160922
 H    1.196517   -2.041466    2.288227
