49 
2buc_ligand_dft.xyz
 F   -4.018764    0.232737    1.927838
 C   -3.821296   -0.612068    0.878587
 C   -3.812096   -1.972343    1.123518
 C   -3.598143   -2.832291    0.050941
 C   -3.405701   -2.319087   -1.229507
 C   -3.426524   -0.943963   -1.438241
 C   -3.627949   -0.053125   -0.380272
 C   -3.625543    1.445245   -0.572174
 C   -2.274825    2.113357   -0.277147
 N   -1.839375    1.801745    1.135974
 C   -1.156156    1.656297   -1.219146
 C    0.201709    2.028685   -0.630030
 O    0.311553    3.117444   -0.067179
 N    1.241775    1.157805   -0.693571
 C    2.466595    1.598954    0.002110
 C    3.518039    0.526343    0.157559
 C    4.522585    0.694930    1.110564
 C    5.535804   -0.247458    1.243071
 C    5.548681   -1.375806    0.426828
 C    3.530704   -0.606851   -0.657771
 C    4.543360   -1.555447   -0.516776
 C    2.395561   -0.777837   -1.630873
 C    1.095129   -0.253005   -1.020967
 C    0.562194   -1.000046    0.227651
 O   -0.347086   -0.508958    0.899119
 N    1.065320   -2.210655    0.505304
 H   -3.977133   -2.338643    2.130431
 H   -3.594063   -3.904404    0.217031
 H   -3.257870   -2.991170   -2.068129
 H   -3.302791   -0.547218   -2.443052
 H   -4.396519    1.910406    0.051110
 H   -3.880161    1.684829   -1.609401
 H   -2.381069    3.198430   -0.319334
 H   -1.362099    0.871045    1.155334
 H   -1.142897    2.501596    1.416723
 H   -2.624710    1.781669    1.790530
 H   -1.270792    2.181878   -2.172809
 H   -1.275683    0.591211   -1.405642
 H    2.875908    2.447022   -0.557722
 H    2.183373    1.993522    0.983307
 H    4.514220    1.572624    1.751989
 H    6.312652   -0.103925    1.986927
 H    6.336548   -2.115132    0.527520
 H    4.549339   -2.434024   -1.158375
 H    2.273908   -1.822185   -1.937888
 H    2.576897   -0.210044   -2.551169
 H    0.315538   -0.363217   -1.777429
 H    1.948514   -2.518791    0.127259
 H    0.725231   -2.677167    1.335204
