17 
2buv_ligand_ani.xyz
 C   56.034316   43.561729   50.891993
 C   55.069153   44.550978   50.683566
 C   54.634642   44.834154   49.401097
 O   53.699428   45.791669   49.192894
 C   55.174094   44.117813   48.318642
 O   54.677263   44.474697   47.094713
 C   56.131218   43.136762   48.525841
 C   56.566553   42.853767   49.816912
 C   56.455631   43.308481   52.291685
 O   56.027249   43.893525   53.260276
 O   57.387471   42.339211   52.400027
 H   54.663830   45.093995   51.531524
 H   53.531714   45.839206   48.240302
 H   55.094497   43.942656   46.406220
 H   56.540414   42.589459   47.678661
 H   57.314782   42.088351   49.990809
 H   57.576742   42.269549   53.349839
