27 
2bv4_ligand_ani.xyz
 C   -1.564631   -0.481872    0.416882
 C   -1.465504    1.032075    0.265129
 C   -0.272433    1.392654   -0.606021
 C    0.983070    0.734674   -0.055360
 C    0.779674   -0.778835    0.036263
 C    1.935156   -1.494008    0.716941
 C   -2.233432   -2.379853   -0.799126
 O   -1.969011   -0.987152   -0.820798
 O   -1.298321    1.587392    1.549968
 O   -0.133956    2.800225   -0.564029
 O    2.028884    1.101238   -0.928986
 O   -0.355842   -1.055797    0.855716
 O    3.125446   -1.242458   -0.026190
 H   -2.308297   -0.732207    1.185968
 H   -2.390546    1.390830   -0.211782
 H   -0.438029    1.045387   -1.637180
 H    1.156689    1.123311    0.963128
 H    0.644288   -1.180111   -0.980510
 H    2.017217   -1.104767    1.741147
 H    1.719731   -2.568809    0.765025
 H   -3.025423   -2.620306   -0.074433
 H   -1.335606   -2.954031   -0.539813
 H   -2.570267   -2.653211   -1.800870
 H   -1.014474    2.500418    1.391511
 H    0.751567    2.993208   -0.907720
 H    2.756966    0.475190   -0.776705
 H    3.887182   -1.491505    0.508532
