56 
2bve_ligand_dft.xyz
 C   -1.559661   -1.059817   -0.427623
 O   -1.567349   -0.822300   -1.610162
 O   -2.052000   -2.184358    0.105312
 C   -1.026294   -0.092314    0.663596
 O   -2.091260    0.561679    1.274184
 C   -0.237732   -0.791751    1.753898
 C    1.073593   -1.374293    1.239940
 O    1.740902   -1.872931    2.362972
 C    1.889454   -0.281147    0.515861
 N    3.050213   -0.783825   -0.220493
 C    3.751692   -1.934231   -0.108579
 O    3.502990   -2.861071    0.662966
 C    4.955671   -2.011451   -1.043110
 C    5.338368   -3.450537   -1.371054
 C    0.993415    0.458704   -0.514772
 O   -0.228885    0.892227    0.054526
 C    1.542854    1.741018   -1.167913
 O    2.883689    1.547908   -1.578344
 C    1.455242    3.026673   -0.327727
 O    2.146294    3.992606   -1.109509
 C    2.094978    2.963339    1.053927
 O    2.197968    4.313739    1.484513
 C   -2.991241    1.255153    0.409696
 C   -4.177718    0.408152    0.003209
 C   -4.721948   -0.519765    0.892206
 C   -4.755416    0.563443   -1.256144
 C   -5.830638   -1.276402    0.527841
 C   -5.870870   -0.186071   -1.619291
 C   -6.410752   -1.108472   -0.727559
 H   -2.460409   -2.682129   -0.621787
 H   -0.829186   -1.585554    2.212112
 H   -0.022328   -0.040230    2.520336
 H    0.858672   -2.177168    0.514722
 H    2.473131   -2.410524    1.997889
 H    2.228417    0.404735    1.299878
 H    3.419641   -0.093093   -0.865196
 H    4.758345   -1.441644   -1.958203
 H    5.789699   -1.509153   -0.535007
 H    4.536830   -3.953411   -1.920415
 H    5.516910   -4.014530   -0.453132
 H    6.244110   -3.475095   -1.984302
 H    0.798284   -0.258543   -1.323229
 H    0.914651    1.922974   -2.051407
 H    3.210035    2.445217   -1.760831
 H    0.402883    3.309743   -0.215211
 H    2.380131    4.702424   -0.491562
 H    3.087774    2.496866    0.983150
 H    1.462346    2.377888    1.731298
 H    2.737423    4.345628    2.281423
 H   -3.326092    2.118207    0.993488
 H   -2.460064    1.631119   -0.470341
 H   -4.256057   -0.659687    1.862484
 H   -4.322209    1.266006   -1.963757
 H   -6.242713   -1.999088    1.226290
 H   -6.311013   -0.057293   -2.603727
 H   -7.277480   -1.698262   -1.011584
