47 
2bvr_ligand_ani.xyz
 C    2.507814    1.634676   -0.804950
 C    2.634153    1.977622    0.535205
 C    1.487456    2.162812    1.296546
 C    0.220336    2.013212    0.730383
 C    0.116584    1.651839   -0.614103
 C    1.255854    1.467420   -1.383172
Cl    3.936974    1.384261   -1.775407
 S   -1.182134    2.266750    1.791392
 C   -2.492346    2.620799    0.595080
 C   -3.056729    1.437181   -0.185071
 O   -3.572749    1.615401   -1.287219
 N   -2.964456    0.220712    0.385841
 C   -3.256943   -0.998300   -0.354780
 C   -2.439465   -2.165108    0.196257
 C   -0.946828   -1.959558    0.071996
 C   -0.155839   -1.633195    1.175415
 C    1.220980   -1.490990    1.068898
 C    1.855058   -1.683590   -0.162086
 C    1.064842   -1.946016   -1.287767
 C   -0.310599   -2.076139   -1.165752
 N    3.239564   -1.573323   -0.315147
 C    4.210141   -1.714274    0.675194
 N    4.130501   -2.368981    1.769294
 N    5.405822   -1.098442    0.315508
 C   -4.766737   -1.332195   -0.304666
 O   -5.186275   -2.349782    0.221780
 N   -5.558946   -0.411108   -0.901359
 H    3.620496    2.095634    0.980322
 H    1.576853    2.434229    2.345192
 H   -0.852019    1.517291   -1.083367
 H    1.178981    1.158902   -2.423065
 H   -2.157999    3.363798   -0.134005
 H   -3.306306    3.083004    1.164470
 H   -2.475777    0.133815    1.268078
 H   -2.990692   -0.797352   -1.402646
 H   -2.749721   -3.070478   -0.334660
 H   -2.723354   -2.318954    1.243475
 H   -0.620795   -1.501614    2.151629
 H    1.808369   -1.224306    1.943018
 H    1.538542   -2.054180   -2.262190
 H   -0.906968   -2.284552   -2.053556
 H    3.575885   -1.336764   -1.237667
 H    3.249211   -2.872325    1.835404
 H    6.054431   -1.102031    1.090623
 H    5.306408   -0.180781   -0.100076
 H   -6.551598   -0.586511   -0.925760
 H   -5.169971    0.438593   -1.296780
