45 
2bw7_ligand_ani.xyz
 C    2.488292   -1.214242   -0.309125
 C    1.617961   -0.111304   -0.265891
 C   -0.444819   -1.650676   -0.177998
 C   -1.950794   -1.789171   -0.460634
 C   -2.747447   -0.629352    0.138857
 C   -2.159866    0.692932   -0.395174
 C   -3.218046    1.745907   -0.026945
 C   -4.565361    0.974684   -0.110560
 C   -4.195573   -0.496205   -0.374873
 C   -2.746034   -0.708732    1.672969
 C    3.845701   -1.081823   -0.083010
 C    4.370918    0.185333    0.196492
 C    3.529757    1.279075    0.238734
 C    2.152667    1.151131    0.011542
 C    1.290241    2.393850    0.111780
 C   -0.108181    2.211867   -0.473685
 C   -0.704232    0.891233    0.008805
 C    0.130053   -0.274499   -0.574909
 O   -5.139870   -1.350100    0.239853
 O    5.726193    0.226826    0.410769
 O    4.657090   -2.169996   -0.130510
 H    2.118261   -2.212420   -0.522461
 H    0.076447   -2.440735   -0.727383
 H   -0.241581   -1.830011    0.886084
 H   -2.108909   -1.805213   -1.549528
 H   -2.325974   -2.746717   -0.074404
 H   -2.168359    0.609591   -1.497631
 H   -3.051908    2.127044    0.988968
 H   -3.190482    2.611493   -0.699139
 H   -5.218805    1.355270   -0.902040
 H   -5.129269    1.033582    0.825784
 H   -4.178785   -0.676064   -1.465314
 H   -3.246823   -1.627947    1.994349
 H   -3.277097    0.127493    2.139453
 H   -1.729951   -0.719155    2.075559
 H    3.942018    2.263944    0.457697
 H    1.202961    2.666889    1.174147
 H    1.803224    3.235119   -0.370405
 H   -0.055013    2.208162   -1.572178
 H   -0.742290    3.062333   -0.191159
 H   -0.619838    0.871682    1.106277
 H    0.022683   -0.195900   -1.672250
 H   -4.892451   -2.258915    0.025025
 H    5.994023    1.135728    0.596612
 H    5.559198   -1.869147    0.054796
