100 
2byr_ligand_xtb.xyz
 O    7.081741   -2.426496   -0.441108
 C    6.038914   -2.378224    0.141725
 C    5.215993   -3.517132    0.690136
 C    3.955448   -2.878825    1.268365
 C    2.687759   -3.261761    0.500629
 C    4.186491   -1.387902    1.124087
 O    3.471696   -0.501179    1.534820
 N    5.360685   -1.193890    0.446430
 C    5.835859    0.076257    0.045396
 C    7.125788    0.454934    0.386093
 C    7.602255    1.699392    0.012916
 C    6.785895    2.578398   -0.681242
 C    5.499629    2.206001   -1.020871
 C    5.010466    0.946918   -0.676131
 C    3.664449    0.528379   -1.121758
 O    3.305173   -0.608028   -1.320019
 O    2.861792    1.589496   -1.320857
 C    1.556200    1.336778   -1.812456
 C    0.500261    1.476562   -0.696420
 C    0.656407    2.883536   -0.072283
 C   -0.639547    3.676233   -0.106198
 C   -1.780247    2.874023    0.519172
 O   -1.586571    2.629380    1.912255
 C   -1.754033    3.752691    2.755466
 C   -1.974839    1.510846   -0.211026
 C   -0.906779    1.260795   -1.300690
 C   -1.726074    0.257065    0.630981
 N   -0.406481    0.348610    1.318535
 C   -0.235290   -0.676116    2.377983
 C    0.839235   -0.283749    3.376216
 C    0.732689    0.400246    0.378835
 C   -3.435316    1.475902   -0.727582
 C   -4.474961    1.754719    0.392161
 C   -5.454733    0.578040    0.375933
 C   -4.995401   -0.580681    1.274340
 O   -6.172257   -1.219481    1.726634
 C   -5.996925   -2.102537    2.807077
 C   -4.072003   -1.579834    0.547876
 C   -3.922924    0.163489   -1.361294
 C   -5.432627    0.173326   -1.107022
 O   -5.984149   -1.066809   -1.458030
 C   -7.386795   -1.146099   -1.302784
 C   -3.325504   -1.099297   -0.722410
 O   -3.342294   -2.171925   -1.645830
 C   -1.823521   -0.846157   -0.442781
 O   -1.204450   -2.033415   -0.021679
 C   -1.086350   -0.223624   -1.689416
 O   -1.694152   -0.300510   -2.948488
 C   -1.326885   -1.414846   -3.738587
 H    5.000361   -4.218946   -0.116011
 H    5.805544   -4.050675    1.436925
 H    3.819503   -3.117450    2.326786
 H    2.553904   -4.340007    0.516569
 H    1.817227   -2.796954    0.955935
 H    2.763660   -2.924230   -0.530135
 H    7.753563   -0.231467    0.931687
 H    8.611063    1.982928    0.269216
 H    7.156018    3.551089   -0.965173
 H    4.865710    2.876923   -1.578455
 H    1.542279    0.341669   -2.264973
 H    1.364913    2.085838   -2.585208
 H    1.429411    3.434947   -0.606327
 H    0.997797    2.799005    0.961404
 H   -0.512338    4.616380    0.430788
 H   -0.917488    3.923922   -1.129629
 H   -2.695417    3.469530    0.410709
 H   -1.765777    3.367680    3.773395
 H   -0.934511    4.467650    2.650466
 H   -2.701026    4.257342    2.547126
 H   -1.054058    1.879677   -2.185185
 H   -2.475293    0.122585    1.407939
 H   -0.470309    1.272443    1.792557
 H   -0.008365   -1.627649    1.897645
 H   -1.191919   -0.774213    2.895158
 H    0.838919   -0.998540    4.194197
 H    1.829439   -0.289962    2.930240
 H    0.638178    0.701162    3.792916
 H    0.853411   -0.591472   -0.057339
 H    1.646081    0.616716    0.935850
 H   -3.512180    2.256279   -1.490008
 H   -5.017965    2.674924    0.177783
 H   -4.014498    1.860661    1.372809
 H   -6.447025    0.873035    0.718338
 H   -4.482532   -0.159520    2.159666
 H   -5.518798   -1.595767    3.654687
 H   -6.993995   -2.425685    3.097630
 H   -5.400825   -2.978778    2.532794
 H   -4.722023   -2.393735    0.218938
 H   -3.345547   -2.009433    1.242034
 H   -3.694665    0.127811   -2.425108
 H   -5.913020    0.971256   -1.696797
 H   -7.883401   -0.326439   -1.832255
 H   -7.686564   -2.095471   -1.741357
 H   -7.664509   -1.124505   -0.246323
 H   -4.248691   -2.238584   -1.977465
 H   -1.593239   -2.747594   -0.548398
 H   -0.123678   -0.742191   -1.763798
 H   -1.704243   -2.346872   -3.312318
 H   -0.238782   -1.473336   -3.851615
 H   -1.783871   -1.249754   -4.711278
