54 
2bz6_ligand_xtb.xyz
 F   -1.297443   -1.775336    0.452941
 C   -1.322664   -0.435371    0.209188
 C   -2.230926    0.122436   -0.684906
 O   -3.186405   -0.514894   -1.402987
 C   -3.518400   -1.872668   -1.152453
 C   -4.642493   -2.251080   -2.126597
 C   -5.884196   -2.200833   -1.232526
 O   -5.436914   -2.645746    0.027738
 C   -4.167795   -2.071878    0.239685
 C   -2.163538    1.500718   -0.910447
 C   -1.225529    2.295570   -0.270954
 O   -1.100202    3.631028   -0.441039
 C   -1.982772    4.299634   -1.324974
 C   -1.615367    5.774989   -1.313213
 C   -0.336467    1.708407    0.632516
 C   -0.385176    0.351686    0.870340
 C    0.545444   -0.285381    1.886258
 C   -0.135023   -0.198001    3.248060
 O   -1.309314   -0.354641    3.428056
 O    0.721308    0.055739    4.245820
 N    1.852211    0.314087    1.890226
 C    2.827815   -0.054258    0.993005
 C    2.527946   -0.694650   -0.211162
 C    3.531901   -1.014303   -1.101953
 C    4.862719   -0.714774   -0.824089
 C    5.946468   -1.090848   -1.761822
 N    5.607732   -1.077963   -3.089477
 N    7.118485   -1.473403   -1.444970
 C    5.159598   -0.071492    0.376046
 C    4.162733    0.258763    1.266286
 H   -2.638125   -2.506817   -1.290321
 H   -4.688048   -1.548791   -2.954780
 H   -4.486969   -3.259208   -2.506497
 H   -6.687310   -2.863087   -1.554307
 H   -6.262138   -1.170206   -1.163426
 H   -3.601201   -2.739924    0.887987
 H   -4.262892   -1.091115    0.729334
 H   -2.878264    1.904293   -1.607790
 H   -3.020503    4.163178   -0.992358
 H   -1.880214    3.889787   -2.338703
 H   -0.589119    5.904356   -1.645119
 H   -1.705805    6.171188   -0.305775
 H   -2.277481    6.326103   -1.974664
 H    0.391480    2.325500    1.131504
 H    0.612482   -1.365991    1.668466
 H    0.247734    0.079495    5.092660
 H    2.182938    0.626312    2.789916
 H    1.506427   -0.936816   -0.457523
 H    3.282160   -1.529210   -2.018128
 H    4.898490   -0.430935   -3.389419
 H    6.383206   -1.215707   -3.717699
 H    7.274790   -1.548754   -0.445113
 H    6.185561    0.181519    0.605112
 H    4.407340    0.761918    2.191297
