18 
2bza_ligand_ani.xyz
 N   -2.678117   -0.003603    0.671113
 C   -1.882751    0.005485   -0.616280
 C   -0.387927    0.002642   -0.342854
 C    0.308037   -1.199355   -0.200089
 C    1.667300   -1.204288    0.094955
 C    2.352856   -0.002883    0.247088
 C    1.671382    1.201365    0.098340
 C    0.312045    1.201922   -0.196426
 H   -3.687928    0.003688    0.482058
 H   -2.432065   -0.848631    1.209335
 H   -2.422887    0.827165    1.226977
 H   -2.163777    0.893515   -1.180517
 H   -2.164370   -0.874188   -1.193411
 H   -0.222107   -2.142151   -0.325933
 H    2.192853   -2.150206    0.205051
 H    3.415648   -0.004993    0.478553
 H    2.200799    2.144879    0.210810
 H   -0.214998    2.146812   -0.319122
