86 
2c0o_ligand_dft.xyz
 C   -0.248655    1.990194   -0.230032
 C   -0.650073    3.362876   -0.138194
 C    1.106826    1.418708   -0.213263
 N   -1.311155    1.212707   -0.338105
 C   -2.048290    3.333245   -0.188163
 C   -0.088011    4.663589   -0.104055
 C    2.062706    1.916794    0.686294
 C    1.453490    0.377168   -1.065866
 N   -2.399329    2.030345   -0.318277
 N   -2.885194    4.378996   -0.135481
 N   -0.897113    5.727080   -0.039630
 N    1.243860    4.900942   -0.123552
 C    3.341318    1.382684    0.708774
 C    2.735235   -0.167061   -1.045651
 C   -3.732084    1.482760   -0.390882
 C   -2.221442    5.524834   -0.045568
 C    3.693198    0.328110   -0.164089
 O    4.337215    1.794061    1.538149
 C   -3.926868    0.732666   -1.714271
 C   -4.004708    0.575121    0.815224
 N    5.003739   -0.140277   -0.057807
 C    4.069904    2.856338    2.431077
 C   -5.312257    0.081175   -1.788285
 C   -5.393904   -0.068774    0.730155
 C    5.597791   -1.166392   -0.753088
 C   -5.503635   -0.838061   -0.583213
 C    6.961626   -1.473448   -0.262693
 O    5.051944   -1.767411   -1.668494
 N   -6.808630   -1.622435   -0.709488
 N    7.926055   -2.074670   -1.051303
 C    7.453157   -1.290362    1.010039
 C   -8.063487   -0.815829   -0.482748
 C   -6.822889   -2.874015    0.127869
 C    9.050418   -2.257596   -0.284577
 C    7.874368   -2.371008   -2.470990
 C    8.788391   -1.787546    1.022234
 C   -9.286385   -1.678427   -0.770721
 C   -8.092125   -3.683611   -0.148498
 C   10.291034   -2.801047   -0.644257
 C    9.790744   -1.884602    2.002594
 N   -9.268901   -2.870873    0.048972
 C   11.257744   -2.878434    0.339627
 C   11.011144   -2.426630    1.653697
 C  -10.071696   -2.891079    1.190665
 C   -9.987915   -4.116318    2.073159
 O  -10.814277   -1.960863    1.428196
 H    1.781328    2.696635    1.385554
 H    0.717498   -0.008399   -1.763146
 H    1.877949    4.174596   -0.420472
 H    1.523036    5.861300   -0.262514
 H    3.009614   -0.968650   -1.716451
 H   -4.400330    2.351063   -0.356679
 H   -2.826961    6.425664    0.017951
 H   -3.143686   -0.028966   -1.803595
 H   -3.801728    1.425441   -2.550779
 H   -3.929834    1.159675    1.736147
 H   -3.226986   -0.196213    0.856913
 H    5.577096    0.358437    0.607866
 H    3.768128    3.762534    1.891439
 H    3.287627    2.582650    3.148985
 H    5.002047    3.043934    2.963492
 H   -5.404693   -0.481700   -2.726244
 H   -6.079546    0.865393   -1.794709
 H   -6.156730    0.718321    0.767677
 H   -5.547609   -0.722523    1.595275
 H   -4.728675   -1.613150   -0.610590
 H   -6.841971   -1.930457   -1.687805
 H    6.901837   -0.906390    1.858121
 H   -8.019637    0.060519   -1.130861
 H   -8.061952   -0.499111    0.561379
 H   -6.780891   -2.559528    1.172614
 H   -5.921813   -3.442036   -0.115239
 H    8.167056   -3.412263   -2.635631
 H    6.856955   -2.233240   -2.828240
 H    8.559384   -1.717290   -3.021389
 H   -9.321089   -1.959674   -1.832211
 H  -10.186181   -1.110027   -0.533575
 H   -8.097797   -4.553965    0.507635
 H   -8.074617   -4.063011   -1.180173
 H   10.487759   -3.149150   -1.653270
 H    9.606514   -1.534782    3.014178
 H   12.229845   -3.297077    0.097765
 H   11.798112   -2.507142    2.396964
 H   -9.033196   -4.160569    2.609294
 H  -10.788576   -4.044175    2.808532
 H  -10.107703   -5.041804    1.501875
