41 
2c3i_ligand_ani.xyz
 C   -2.838537    2.393885    1.298283
 C   -3.352136    3.516213    0.443636
 C   -2.078791    2.809139    0.066378
 C   -2.014679    1.974424   -1.207279
 N   -2.849507    0.792716   -1.241342
 C   -2.415087   -0.384304   -0.681748
 C   -3.400066   -1.386894   -0.345356
 C   -2.983965   -2.562732    0.176865
 N   -1.121410   -0.530030   -0.491588
 N   -0.745416   -1.721270   -0.001365
 C   -1.588412   -2.758276    0.355161
 N   -0.906808   -3.803265    0.804776
 C    0.390825   -3.435587    0.718733
 C    0.546799   -2.156376    0.223071
 C    1.749474   -1.351309   -0.017913
 C    1.780235    0.035618    0.173015
 C    2.933004   -2.000568   -0.395757
 C    4.108844   -1.285384   -0.583407
 C    4.129942    0.087374   -0.378265
 C    2.965087    0.751567    0.007975
 C    3.054844    2.229765    0.232248
 C    1.800082    2.965397    0.641719
 O    4.108648    2.816533    0.083334
 H   -3.385768    1.454035    1.282487
 H   -2.404786    2.644926    2.261143
 H   -3.287371    4.530285    0.826314
 H   -4.237785    3.335747   -0.162180
 H   -1.161708    3.368776    0.250147
 H   -0.991593    1.641773   -1.382625
 H   -2.292998    2.606396   -2.062510
 H   -3.845383    0.954771   -1.216919
 H   -4.455108   -1.184073   -0.523038
 H   -3.659883   -3.362586    0.455892
 H    1.182341   -4.099841    1.044164
 H    0.860233    0.540660    0.447397
 H    2.929849   -3.075849   -0.558308
 H    5.015030   -1.802841   -0.884885
 H    5.038500    0.667877   -0.508439
 H    1.350480    2.500696    1.525441
 H    2.052957    4.006002    0.849230
 H    1.061027    2.922219   -0.167502
