41 
2c3k_ligand_dft.xyz
 C   -6.085002    2.183017    1.312106
 O   -6.498674    0.937840    0.797822
 C   -5.545804    0.106103    0.318163
 C   -4.183613    0.369635    0.308836
 C   -6.015492   -1.121127   -0.196140
 O   -7.355152   -1.327757   -0.163892
 C   -5.107860   -2.040378   -0.700265
 C   -3.740540   -1.768032   -0.703558
 C   -3.263065   -0.562427   -0.200567
 C   -1.814381   -0.251300   -0.202174
 C   -1.368199    1.047856   -0.508818
 C   -0.871564   -1.248765    0.100250
 C    0.500710   -1.002420    0.103069
 C    0.922402    0.285043   -0.199460
 C   -0.010254    1.279262   -0.495888
 N    0.668752    2.507887   -0.777574
 N    1.914787    2.342049   -0.673305
 C    2.188362    0.974525   -0.312681
 C    3.456707    0.519424   -0.135810
 N    3.705003   -0.814636    0.215236
 C    5.009376   -0.850848    0.288107
 C    5.888513   -1.940091    0.607452
 C    7.219466   -1.681856    0.607019
 C    7.766613   -0.367937    0.300442
 C    6.983434    0.694123   -0.007478
 C    5.562407    0.481062   -0.023086
 N    4.595319    1.318902   -0.283289
 H   -5.420664    2.061084    2.177516
 H   -5.576638    2.785355    0.547891
 H   -6.995541    2.693711    1.626495
 H   -3.811526    1.297635    0.728060
 H   -7.543541   -2.196715   -0.538074
 H   -5.472695   -2.981056   -1.107142
 H   -3.054084   -2.491904   -1.131290
 H   -2.064815    1.836665   -0.773148
 H   -1.229606   -2.239285    0.363795
 H    1.219222   -1.778233    0.342283
 H    5.484395   -2.919917    0.836357
 H    7.921485   -2.476122    0.842921
 H    8.846144   -0.254149    0.324477
 H    7.388141    1.673635   -0.236169
