26 
2c3l_ligand_dft.xyz
 C   -4.390118   -0.280058   -0.000265
 C   -4.589505    1.104258   -0.000278
 C   -3.510195    1.991086   -0.000076
 C   -2.190350    1.532009    0.000138
 C   -1.995656    0.158006    0.000094
 C   -0.852639   -0.734100    0.000217
 C    0.476130   -0.454845    0.000136
 N    1.475686   -1.435568    0.000316
 C    2.568567   -0.723090   -0.000058
 C    3.942134   -1.146983   -0.000305
 C    4.889550   -0.178710   -0.000393
 C    4.560638    1.240363   -0.000082
 C    3.284801    1.697774    0.000174
 C    2.236824    0.715786    0.000226
 N   -2.608935   -2.069879    0.000161
 C   -3.080968   -0.719713   -0.000048
 N    0.939985    0.868975    0.000158
 N   -1.347055   -2.084291   -0.000035
 H   -5.218662   -0.979956   -0.000332
 H   -5.601302    1.497674   -0.000466
 H   -3.701571    3.059610   -0.000055
 H   -1.344982    2.210549    0.000364
 H    4.184041   -2.203830   -0.000159
 H    5.940559   -0.451194   -0.000513
 H    5.385311    1.946907   -0.000150
 H    3.043559    2.754885    0.000232
