50 
2c6i_ligand_xtb.xyz
 O    5.844470   -2.587196    1.415158
 S    5.961827   -1.829128    0.204307
 O    7.190034   -1.153280   -0.094511
 N    5.607703   -2.857260   -1.085326
 C    4.609416   -0.680790    0.088795
 C    4.757283    0.470054   -0.661140
 C    3.428906   -0.954684    0.749092
 C    2.363752   -0.079345    0.646949
 C    3.699147    1.348716   -0.768911
 C    2.484331    1.074371   -0.130489
 N    1.467089    2.004677   -0.261539
 C    0.122010    1.891151   -0.083740
 N   -0.539911    3.076153   -0.065190
 C   -1.922111    3.173757    0.082656
 N   -2.678989    2.096126    0.218211
 N   -2.252108    4.450965    0.051139
 C   -1.084329    5.081946   -0.116397
 N   -0.020543    4.308187   -0.193577
 C   -0.666113    0.769069    0.022608
 C   -2.067113    0.932434    0.178200
 C   -4.190891   -0.024448    0.428217
 O   -2.781015   -0.182549    0.283299
 C   -4.842651   -1.404000    0.390279
 C   -4.671652   -2.051002   -0.984900
 C   -5.325503   -3.428905   -1.016776
 C   -6.806754   -3.323432   -0.668048
 C   -6.984967   -2.676635    0.701940
 C   -6.328200   -1.299493    0.735540
 H    5.434221   -3.798659   -0.772366
 H    6.328729   -2.832698   -1.787972
 H    5.704958    0.663742   -1.136511
 H    3.367868   -1.842964    1.356661
 H    1.458902   -0.269237    1.199322
 H    3.800971    2.256463   -1.344806
 H    1.743642    2.949211   -0.512279
 H   -1.011605    6.148497   -0.185208
 H   -0.268130   -0.226081   -0.040295
 H   -4.564978    0.614220   -0.378776
 H   -4.394739    0.483511    1.377413
 H   -4.344606   -2.031570    1.136725
 H   -3.608812   -2.133150   -1.217764
 H   -5.135208   -1.412304   -1.740646
 H   -4.829338   -4.083239   -0.296372
 H   -5.206646   -3.871745   -2.007669
 H   -7.262775   -4.315364   -0.672991
 H   -7.313974   -2.717904   -1.422327
 H   -6.530124   -3.313017    1.464322
 H   -8.047472   -2.583633    0.934701
 H   -6.818606   -0.644441    0.012141
 H   -6.449477   -0.853911    1.724946
