48 
2c6k_ligand_ani.xyz
 O    5.821528   -0.950556    0.828760
 S    5.008365   -0.225586   -0.134921
 O    5.412542   -0.060094   -1.521879
 N    4.757563    1.312383    0.472599
 C    3.388716   -0.939260   -0.118515
 C    3.041119   -1.840065    0.883814
 C    1.757831   -2.369145    0.904578
 C    0.823348   -1.982651   -0.057756
 C    1.196623   -1.102281   -1.076756
 C    2.483600   -0.582954   -1.112465
 N   -0.487718   -2.497695    0.001377
 C   -1.618185   -1.737328   -0.048999
 N   -2.793265   -2.436156    0.018977
 N   -2.930093   -3.780902    0.143015
 C   -4.250329   -3.890339    0.146816
 C   -4.028132   -1.812311   -0.039983
 N   -4.967998   -2.752303    0.039537
 N   -4.150129   -0.490955   -0.151136
 C   -3.014549    0.212994   -0.187160
 C   -1.712125   -0.372882   -0.133139
 N   -3.174843    1.560988   -0.297203
 C   -2.111946    2.548395   -0.231912
 C   -1.526357    2.730061    1.177156
 C   -0.420889    3.787064    1.175285
 C   -0.941641    5.124945    0.641127
 C   -1.554561    4.964142   -0.753485
 C   -2.638740    3.883472   -0.760829
 H    5.208306    1.414589    1.375879
 H    5.081268    2.003371   -0.196551
 H    3.776488   -2.120555    1.631625
 H    1.468582   -3.071602    1.682348
 H    0.470746   -0.834439   -1.838835
 H    2.780308    0.095677   -1.905282
 H   -0.630939   -3.463783    0.279774
 H   -4.725228   -4.859829    0.232731
 H   -0.820190    0.241312   -0.122007
 H   -4.134458    1.864573   -0.212610
 H   -1.303641    2.212345   -0.898770
 H   -1.152201    1.774114    1.561058
 H   -2.335630    3.041037    1.853795
 H    0.409672    3.438140    0.542917
 H   -0.013581    3.909006    2.185906
 H   -0.139896    5.873336    0.625663
 H   -1.712372    5.504483    1.327835
 H   -0.764661    4.683611   -1.465811
 H   -1.965826    5.917923   -1.104830
 H   -3.476564    4.195019   -0.118561
 H   -3.043917    3.737598   -1.769419
