55 
2cbs_ligand_xtb.xyz
 C   -4.215237    1.421983    0.553877
 C   -5.472156    0.660894    0.991103
 C   -5.846059   -0.438116    0.011919
 C   -4.762827   -1.518848   -0.083810
 C   -3.386443   -0.889935   -0.181929
 C   -2.312088   -1.697264   -0.551868
 C   -1.032159   -1.206426   -0.678433
 C   -0.776903    0.144658   -0.450113
 C   -1.846624    0.946595   -0.066232
 C   -3.136057    0.455564    0.099082
 C    0.566032    0.709009   -0.600656
 C    1.649523   -0.004579   -0.222731
 C    3.007097    0.435441   -0.280366
 C    4.038000   -0.326229    0.142077
 C    5.433810    0.032822    0.098601
 C    6.351968   -0.883999    0.476789
 C    7.818105   -0.747566    0.487739
 C   -4.801029   -2.426005    1.154457
 C   -5.065428   -2.365462   -1.329691
 C   -3.736361    2.247586    1.757854
 C   -4.542814    2.375188   -0.604248
 C    0.660992    2.101645   -1.154370
 C    5.793934    1.427817   -0.331487
 O    8.378344   -0.112701   -0.571753
 O    8.515054   -1.197941    1.357180
 H   -6.301642    1.365229    1.087478
 H   -5.297769    0.224721    1.976412
 H   -6.003946   -0.004360   -0.977294
 H   -6.786670   -0.900256    0.320007
 H   -2.480013   -2.744125   -0.752453
 H   -0.233955   -1.862901   -0.991066
 H   -1.655286    1.987610    0.139718
 H    1.496323   -0.991032    0.194903
 H    3.192571    1.420935   -0.680022
 H    3.822148   -1.313088    0.531244
 H    6.015707   -1.825183    0.889626
 H   -5.775257   -2.902757    1.241533
 H   -4.042841   -3.201983    1.082021
 H   -4.610120   -1.857077    2.060857
 H   -4.469100   -3.272693   -1.359017
 H   -6.114006   -2.656746   -1.326056
 H   -4.869178   -1.795099   -2.235337
 H   -2.981345    2.976628    1.477922
 H   -4.577570    2.789493    2.185683
 H   -3.319415    1.597015    2.523841
 H   -5.312776    3.082723   -0.303268
 H   -3.658335    2.934696   -0.899568
 H   -4.896096    1.826318   -1.473531
 H    0.781870    2.827279   -0.348820
 H    1.512868    2.197387   -1.823202
 H   -0.238297    2.352147   -1.711586
 H    6.813058    1.685945   -0.056777
 H    5.669510    1.547355   -1.408878
 H    5.131962    2.138972    0.158849
 H    7.716769    0.129341   -1.232032
