35 
2ccs_ligand_xtb.xyz
Cl   -1.860424   -2.861134   -0.402111
 C   -2.001381   -1.134279   -0.228960
 C   -3.229462   -0.550433    0.047891
 O   -4.340834   -1.338188    0.174082
 C   -3.287356    0.832355    0.183849
 C   -2.150694    1.628208    0.085328
 O   -2.253098    2.950990    0.223290
 C   -0.864144   -0.361031   -0.348458
 C   -0.901920    1.011325   -0.154964
 C    0.303841    1.804257   -0.158527
 N    0.271151    3.150655   -0.147397
 N    1.504647    3.627237   -0.107711
 C    2.355734    2.599061   -0.069180
 C    1.650666    1.399791   -0.104525
 N    2.098015    0.049157   -0.016068
 C    2.030310   -0.541665    1.295814
 C    1.947185   -2.060357    1.136250
 C    3.300496   -0.312566   -0.703681
 C    3.234978   -1.822715   -0.958317
 N    3.139491   -2.511077    0.360245
 H   -5.101845   -0.773017    0.348089
 H   -4.237275    1.310594    0.378162
 H   -1.316362    3.334759    0.100456
 H    0.068601   -0.822906   -0.618490
 H    3.419860    2.761787   -0.039625
 H    1.128043   -0.180713    1.789821
 H    2.902255   -0.284721    1.931924
 H    1.044878   -2.323959    0.581065
 H    1.938633   -2.565041    2.102926
 H    4.227734   -0.080059   -0.139007
 H    3.340000    0.222717   -1.652737
 H    4.115712   -2.185951   -1.490202
 H    2.334846   -2.052630   -1.529699
 H    3.114224   -3.527133    0.232995
 H    3.976692   -2.260388    0.902615
