38 
2cgu_ligand_ani.xyz
 O   -7.211775    1.100600    0.141070
 C   -7.187560   -0.233865    0.075031
 O   -8.180573   -0.909790    0.060092
 C   -5.798340   -0.863016    0.023594
 O   -4.821616    0.159799    0.025291
 C   -3.499679   -0.193283   -0.010255
 C   -2.583723    0.859780   -0.015855
 C   -3.064453   -1.530426   -0.037115
 C   -1.709744   -1.830498   -0.062853
 C   -0.781596   -0.788599   -0.062821
 C   -1.233641    0.542794   -0.043372
 C   -0.050718    1.424471   -0.050816
 N   -0.153709    2.696500   -0.052599
 O    1.080367    3.318973   -0.066254
 C    1.143464    0.541138   -0.059407
 C    2.510419    0.818587   -0.047001
 C    0.673213   -0.789106   -0.072714
 C    1.578497   -1.846754   -0.084709
 C    2.939909   -1.580637   -0.072477
 C    3.397454   -0.252358   -0.048698
 O    4.727084    0.076749   -0.026706
 C    5.684103   -0.963161    0.022466
 C    7.083117   -0.358666    0.102300
 O    7.132433    0.976754    0.112955
 O    8.061881   -1.053346    0.153023
 H   -6.292440    1.419054    0.135852
 H   -5.733490   -1.474304   -0.883234
 H   -5.689442   -1.517861    0.895719
 H   -2.927782    1.890064    0.002504
 H   -3.780592   -2.344483   -0.037123
 H   -1.391639   -2.871114   -0.081232
 H    0.844612    4.255416   -0.070539
 H    2.875105    1.838462   -0.034012
 H    1.234030   -2.879104   -0.100640
 H    3.638087   -2.409825   -0.080888
 H    5.634270   -1.592068   -0.873477
 H    5.538283   -1.597939    0.903838
 H    6.220223    1.311873    0.063869
