63 
2chm_ligand_ani.xyz
 C    1.071599   -0.834311    0.450993
 C    2.160385   -1.644048    0.764159
 C    1.640403    0.447068    0.216615
 N   -0.254310   -1.155892    0.342416
 N    3.244242   -0.841466    0.678390
 C    2.159452   -3.108416    1.052607
 N    2.958462    0.428262    0.331203
 C    0.761312    1.564898   -0.116178
 C   -1.028415   -0.148882    0.037729
 C    4.643989   -1.223611    0.769143
 C    1.747063   -3.945040   -0.163788
 N   -0.567183    1.136674   -0.172352
 O    1.069128    2.718562   -0.322118
 C   -2.475265   -0.408071   -0.108018
 C    5.375734   -0.987097   -0.587630
 C    5.511962   -0.041468    1.286180
 C   -3.507134    0.556793   -0.271266
 C   -2.883213   -1.732148   -0.078976
 N    5.720388    0.443767   -0.141150
 N   -4.784756    0.251998   -0.401805
 O   -3.176820    1.862250   -0.289390
 C   -4.227281   -2.072015   -0.225320
 C    7.010734    1.045163   -0.557187
 C   -5.136673   -1.034991   -0.383601
 C   -4.231371    2.833046   -0.397881
 C   -4.727717   -3.482696   -0.221686
 C    7.038402    1.243581   -2.061367
 C   -3.580941    4.203297   -0.392963
 O   -5.915507   -3.714412   -0.330996
 C   -2.823110    4.508840    0.897938
 C   -2.281078    5.934639    0.929853
 C   -3.717863   -4.601661   -0.083054
 H    1.444030   -3.291645    1.864989
 H    3.132676   -3.444109    1.429768
 H    4.754650   -2.190804    1.250982
 H    0.758710   -3.633950   -0.518138
 H    2.461136   -3.819051   -0.984042
 H    1.707184   -5.007632    0.093390
 H   -1.265557    1.840183   -0.385987
 H    4.783766   -1.009816   -1.497910
 H    6.292539   -1.572278   -0.672613
 H    6.466114   -0.377789    1.694977
 H    5.035268    0.704228    1.915248
 H   -2.118556   -2.489197    0.058509
 H    4.918918    1.064294   -0.366232
 H    7.814317    0.375506   -0.232067
 H    7.125874    1.990377   -0.024865
 H   -6.191662   -1.264844   -0.497887
 H   -4.914873    2.709744    0.448524
 H   -4.790093    2.649731   -1.319756
 H    6.962686    0.287992   -2.594259
 H    6.202001    1.879795   -2.375013
 H    7.967654    1.729514   -2.373642
 H   -4.371160    4.950152   -0.543774
 H   -2.902121    4.284326   -1.252887
 H   -1.996367    3.794800    1.015680
 H   -3.492994    4.347164    1.753498
 H   -1.599106    6.114303    0.090861
 H   -3.092614    6.668448    0.860891
 H   -1.729995    6.130150    1.855225
 H   -4.248183   -5.554132   -0.106192
 H   -2.988397   -4.566242   -0.899859
 H   -3.163997   -4.511014    0.857874
