63 
2chm_ligand_xtb.xyz
 C    1.060677   -1.082559    0.104886
 C    2.116332   -1.991890    0.187389
 C    1.664470    0.198314    0.074585
 N   -0.278999   -1.289973    0.068794
 N    3.240604   -1.235100    0.197003
 C    2.088771   -3.474371    0.198586
 N    2.984886    0.086925    0.133356
 C    0.841957    1.392221   -0.022644
 C   -1.015878   -0.224857   -0.011286
 C    4.628218   -1.597682    0.274593
 C    2.343072   -4.044801   -1.200849
 N   -0.497261    1.045299   -0.062557
 O    1.218261    2.540902   -0.068898
 C   -2.467299   -0.396742   -0.039336
 C    5.428143   -0.768400   -0.752459
 C    5.331185   -0.718096    1.331024
 C   -3.411611    0.655057   -0.164487
 C   -2.980051   -1.688275    0.070424
 N    5.490489    0.311057    0.270111
 N   -4.717430    0.436955   -0.168892
 O   -2.996355    1.915896   -0.287187
 C   -4.351687   -1.912733    0.061095
 C    6.577468    1.291600    0.293937
 C   -5.175509   -0.791367   -0.060195
 C   -3.991325    2.939923   -0.415702
 C   -4.989739   -3.255024    0.175533
 C    6.425797    2.271634   -0.856991
 C   -3.270795    4.268775   -0.594765
 O   -6.190249   -3.372936    0.139550
 C   -2.510248    4.700198    0.658965
 C   -1.777532    6.016952    0.437677
 C   -4.063181   -4.431181    0.337102
 H    1.096554   -3.778415    0.531655
 H    2.824763   -3.867775    0.903910
 H    4.756026   -2.675908    0.308138
 H    1.592984   -3.676355   -1.895261
 H    3.326445   -3.763739   -1.573233
 H    2.282454   -5.128594   -1.172694
 H   -1.159557    1.814758   -0.142620
 H    4.918531   -0.491946   -1.673720
 H    6.416097   -1.177015   -0.960888
 H    6.293982   -1.116281    1.648720
 H    4.743635   -0.396416    2.189422
 H   -2.269517   -2.493745    0.162850
 H    4.494337    0.733522    0.204795
 H    7.532653    0.762650    0.234193
 H    6.528591    1.818119    1.249630
 H   -6.251021   -0.903582   -0.068374
 H   -4.616108    2.939174    0.482453
 H   -4.625115    2.707039   -1.276213
 H    6.507832    1.767644   -1.816348
 H    5.466201    2.780471   -0.804655
 H    7.209326    3.021127   -0.802761
 H   -4.014471    5.025156   -0.847869
 H   -2.576318    4.185501   -1.433436
 H   -1.786052    3.930488    0.934444
 H   -3.214353    4.807306    1.486801
 H   -1.043552    5.915332   -0.358295
 H   -2.477727    6.802011    0.162820
 H   -1.259385    6.320345    1.343489
 H   -4.652781   -5.340034    0.421348
 H   -3.404425   -4.508077   -0.525110
 H   -3.456706   -4.309952    1.231886
