41 
2chx_ligand_dft.xyz
 O   -1.915259   -1.521987    0.956591
 C   -2.455578   -0.633063    0.336392
 C   -3.929975   -0.650138    0.059934
 C   -4.705553    0.493800   -0.135767
 N   -6.017704    0.473848   -0.365650
 C   -6.611273   -0.720195   -0.405172
 C   -5.940140   -1.923874   -0.198488
 C   -4.576504   -1.886427    0.046679
 N   -1.792435    0.479356   -0.160818
 C   -0.408249    0.675232   -0.114169
 N    0.422463   -0.286217   -0.227403
 C    1.780824   -0.019720   -0.153993
 C    2.669472   -1.108132   -0.214802
 O    2.238635   -2.383950   -0.361371
 C    1.512922   -2.926036    0.739866
 C    2.286841    1.295275   -0.051223
 C    1.320618    2.354404    0.038082
 N   -0.020792    1.999565    0.038783
 C   -0.741829    3.173597    0.192594
 C    0.204505    4.156435    0.263419
 N    1.476533    3.652154    0.168434
 C    3.663960    1.516885   -0.025972
 C    4.536054    0.445921   -0.093345
 C    4.049773   -0.869541   -0.177959
 O    4.834658   -1.969218   -0.228139
 C    6.232462   -1.789816   -0.221137
 H   -4.265696    1.488975   -0.073194
 H   -7.680276   -0.712723   -0.604759
 H   -6.479642   -2.864328   -0.228141
 H   -3.999345   -2.787224    0.228117
 H   -2.313747    1.115391   -0.747122
 H    2.103356   -2.847963    1.661392
 H    0.547704   -2.427584    0.864171
 H    1.358325   -3.979713    0.501189
 H   -1.816609    3.192796    0.271563
 H    0.033773    5.217010    0.386566
 H    4.034168    2.533358    0.050927
 H    5.603088    0.632982   -0.067922
 H    6.569047   -1.202578   -1.085206
 H    6.574618   -1.304726    0.702383
 H    6.660541   -2.791033   -0.279658
