60 
2cm7_ligand_dft.xyz
 C    3.015108   -0.657810   -1.168269
 C    3.659015   -1.904430   -0.555769
 C    4.842555   -1.472005    0.299148
 N    4.690236   -0.135934    0.646459
 S    3.268392    0.607912    0.129433
 O    2.249657    0.501926    1.166619
 O    3.590907    1.918660   -0.404265
 O    5.769510   -2.159601    0.642221
 C    1.567206   -0.737472   -1.583101
 C    0.874631   -1.947684   -1.645505
 C   -0.477953   -1.972116   -1.978239
 C   -1.173696   -0.785384   -2.228248
 C   -0.459548    0.413889   -2.214311
 C    0.893991    0.439133   -1.916480
 C   -2.680384   -0.761747   -2.317077
 C   -3.296210   -1.058549   -0.928834
 C   -3.423414   -2.584201   -0.718782
 O   -3.718919   -3.316507   -1.653199
 N   -3.204064   -3.031816    0.535172
 N   -2.536527   -0.431012    0.122509
 C   -3.018997    0.393070    1.078112
 C   -1.985357    0.793345    2.149035
 O   -4.166588    0.806786    1.130139
 N   -0.740189    0.047601    2.066539
 C   -1.752525    2.311922    2.134360
 C   -1.229120    2.870194    0.829800
 C    0.134513    3.094797    0.634325
 C    0.605301    3.646130   -0.555709
 C   -0.288487    3.983187   -1.567666
 C   -1.652308    3.755839   -1.386805
 C   -2.117729    3.199466   -0.200207
 C   -0.700716   -1.256163    2.458233
 O   -1.708759   -1.839555    2.846490
 C    0.631791   -1.956794    2.317517
 H    3.637863   -0.285358   -1.990004
 H    3.997728   -2.609934   -1.316304
 H    2.955096   -2.425036    0.103448
 H    5.335018    0.336581    1.268967
 H    1.378247   -2.886902   -1.435864
 H   -1.007901   -2.920078   -2.010707
 H   -0.975156    1.351881   -2.392945
 H    1.411326    1.394078   -1.900187
 H   -3.064319   -1.509456   -3.015424
 H   -3.009995    0.227547   -2.646746
 H   -4.309934   -0.648660   -0.876879
 H   -2.915770   -2.446419    1.311790
 H   -3.329690   -4.018675    0.699834
 H   -1.548822   -0.634081    0.161181
 H   -2.461880    0.530355    3.098300
 H    0.100925    0.487319    1.708053
 H   -2.717330    2.771883    2.365314
 H   -1.067660    2.559402    2.952721
 H    0.842401    2.851463    1.423010
 H    1.670872    3.809558   -0.684129
 H    0.074091    4.426961   -2.490370
 H   -2.357813    4.022781   -2.168641
 H   -3.180912    3.024652   -0.058708
 H    0.601879   -2.881240    2.894627
 H    0.783480   -2.201948    1.259429
 H    1.465307   -1.328507    2.637353
