22 
2cm8_ligand_ani.xyz
 C    0.496572   -0.269390   -0.198401
 C    1.118566   -1.438325   -0.458662
 C    2.585868   -1.411079   -0.317597
 N    2.936914   -0.100452    0.030417
 S    1.664162    0.960002    0.315250
 O    1.738111    2.075745   -0.613491
 O    1.534523    1.239010    1.734070
 O    3.392670   -2.299356   -0.466461
 C   -0.940217    0.031803   -0.212871
 C   -1.421688    1.269768   -0.647187
 C   -2.791078    1.509099   -0.660568
 C   -3.690398    0.537460   -0.244272
 C   -3.210235   -0.696807    0.193700
 C   -1.841232   -0.950550    0.206566
 O   -4.130713   -1.616108    0.595344
 H    0.617456   -2.339546   -0.784532
 H    3.866930    0.117205    0.367723
 H   -0.719685    2.026467   -0.980322
 H   -3.160460    2.471243   -1.002400
 H   -4.762443    0.711744   -0.249988
 H   -1.467046   -1.910238    0.560179
 H   -3.673432   -2.419954    0.872481
