22 
2cm8_ligand_dft.xyz
 C    0.480682   -0.306949   -0.159802
 C    1.109598   -1.465053   -0.376435
 C    2.590348   -1.413535   -0.237565
 N    2.954039   -0.152076    0.228148
 S    1.679125    0.959048    0.286886
 O    1.845412    1.941643   -0.771253
 O    1.457619    1.401934    1.647449
 O    3.367194   -2.303066   -0.487106
 C   -0.948144    0.017501   -0.177831
 C   -1.391718    1.278334   -0.583277
 C   -2.759104    1.539262   -0.614540
 C   -3.679683    0.569738   -0.247080
 C   -3.233548   -0.689356    0.163807
 C   -1.870897   -0.966054    0.200115
 O   -4.177186   -1.594392    0.523136
 H    0.633056   -2.391008   -0.674138
 H    3.902347    0.184361    0.115686
 H   -0.682518    2.040063   -0.888570
 H   -3.109659    2.515835   -0.932207
 H   -4.746259    0.766280   -0.262186
 H   -1.517969   -1.933851    0.548616
 H   -3.752780   -2.414197    0.803426
