77 
2cmb_ligand_ani.xyz
 C   -0.769129    3.012743    1.263957
 C   -0.310844    3.431075    0.008916
 C   -1.217403    4.034433   -0.869192
 C   -2.548741    4.204505   -0.506864
 C   -3.008684    3.768788    0.735273
 C   -2.102084    3.167793    1.611793
 C   -4.471101    3.850655    1.122992
 C   -5.003436    2.436051    1.333282
 O   -5.242665    1.975552    2.434181
 N   -5.138925    1.714046    0.167019
 C   -4.917091    0.280951    0.200666
 C   -3.448279    0.047512   -0.197700
 O   -2.845647    0.882415   -0.854387
 N   -2.842943   -1.101793    0.244407
 C   -1.460568   -1.317317   -0.132430
 C   -1.361831   -1.597450   -1.645472
 O   -2.111371   -2.390168   -2.195498
 C   -0.851557   -2.488207    0.664876
 N   -0.370024   -0.937698   -2.282708
 C   -5.962546   -1.940268   -0.502191
 C   -5.152699   -2.822400   -1.222763
 C   -5.183727   -4.189706   -0.955131
 C   -6.026918   -4.697003    0.029380
 C   -6.838938   -3.826544    0.749986
 C   -6.804291   -2.461368    0.484639
 C   -5.903638   -0.446872   -0.737149
 C    4.879284   -1.732436    0.812798
 C    5.718107   -1.761504    1.872323
 C    7.114297   -1.399843    1.570194
 N    7.157561   -1.047841    0.214451
 S    5.734467   -1.234911   -0.647142
 O    5.269306    0.064022   -1.116635
 O    5.851170   -2.311891   -1.614570
 O    8.082784   -1.378942    2.294175
 C    3.439238   -1.994749    0.779731
 C    2.638140   -1.550781    1.837036
 C    1.265030   -1.757692    1.811552
 C    0.653886   -2.402048    0.732423
 C    1.463632   -2.872755   -0.306916
 C    2.836436   -2.668708   -0.287890
 C    3.194388    3.436316   -1.501688
 C    1.850064    3.982393   -1.225706
 C    1.084838    3.233530   -0.402466
 S    1.956498    1.778453    0.077303
 N    3.319169    2.255910   -0.767573
 O    4.064787    3.883355   -2.212457
 O    2.228610    1.726374    1.503153
 O    1.367002    0.600679   -0.556961
 H   -0.067710    2.566461    1.961751
 H   -0.884930    4.348805   -1.854684
 H   -3.240424    4.668036   -1.208038
 H   -2.454142    2.808684    2.575962
 H   -4.605698    4.382618    2.068925
 H   -5.046732    4.373096    0.349525
 H   -4.672984    2.138567   -0.628390
 H   -5.092534   -0.053889    1.229010
 H   -3.424956   -1.923052    0.370241
 H   -0.918721   -0.396760    0.107123
 H   -1.263710   -2.445233    1.679202
 H   -1.177160   -3.433855    0.213077
 H   -0.229882   -1.115366   -3.265866
 H    0.291406   -0.366624   -1.771942
 H   -4.460682   -2.447571   -1.974619
 H   -4.542775   -4.859729   -1.522534
 H   -6.049866   -5.764229    0.232861
 H   -7.502323   -4.210576    1.521191
 H   -7.443934   -1.786271    1.051433
 H   -6.886991   -0.000772   -0.557203
 H   -5.638233   -0.232364   -1.780660
 H    5.432886   -2.068249    2.869184
 H    8.038270   -0.917099   -0.267407
 H    3.084752   -0.994581    2.658245
 H    0.653741   -1.391001    2.633467
 H    1.014547   -3.394704   -1.148780
 H    3.458489   -3.034378   -1.098633
 H    1.553595    4.931717   -1.650948
 H    4.072598    1.577567   -0.920803
