27 
2cn8_ligand_ani.xyz
 O    4.194662   -0.229028   -0.885811
 C    3.068375   -0.428953   -0.466599
 N    2.602427   -1.717828   -0.380552
 C    1.248096   -2.251811   -0.387995
 C    0.397120   -1.757254    0.781030
 C    2.219648    0.692250    0.022669
 N    2.770817    1.884842    0.115037
 C    1.795364    2.714341    0.586241
 C    0.598798    2.065867    0.781537
 C    0.820164    0.708259    0.422016
 C   -0.108410   -0.378966    0.494571
 C   -1.432068   -0.156795    0.222985
 N   -1.974267    1.023357   -0.179074
 C   -3.330942    0.792607   -0.507356
 N   -4.006718    1.738210   -1.024462
 N   -3.714063   -0.472622   -0.209124
 C   -2.613738   -1.117894    0.256745
 O   -2.567576   -2.270685    0.653250
 H    3.309338   -2.350548   -0.730049
 H    1.357475   -3.338277   -0.311159
 H    0.735983   -2.058304   -1.343645
 H    1.026909   -1.753404    1.677931
 H   -0.451373   -2.429846    0.937417
 H    2.020889    3.763391    0.756847
 H   -0.312667    2.489994    1.198258
 H   -1.467843    1.780975   -0.618212
 H   -4.957222    1.412112   -1.194721
