81 
2cni_ligand_xtb.xyz
 C    3.789362    1.726040   -1.220780
 C    4.948120    0.948762   -1.808267
 C    5.195159   -0.292256   -0.955270
 N    4.845807   -0.038538    0.330616
 S    4.020212    1.422143    0.573388
 O    4.900336    2.371403    1.171914
 O    2.802683    1.117467    1.266524
 O    5.647689   -1.330557   -1.363448
 C    2.418179    1.230814   -1.516095
 C    2.154263   -0.109877   -1.775299
 C    0.857408   -0.563387   -1.920065
 C   -0.223209    0.307385   -1.829458
 C    0.028014    1.649534   -1.579339
 C    1.326195    2.090108   -1.400172
 C   -1.618517   -0.227885   -1.966274
 C   -2.663686    0.528448   -1.130965
 N   -2.120462    0.854806    0.166557
 S   -3.096257    1.708117    1.205331
 O   -4.484797    1.496311    0.919241
 O   -2.615274    1.429493    2.530848
 C   -4.931409   -2.279184    0.027500
 N   -3.867945   -1.316680   -0.145383
 C   -3.934501   -0.340078   -1.063661
 C   -1.014024    5.118074    0.763364
 C   -1.768456    5.810639   -0.172082
 C   -1.439695    3.877785    1.208882
 C   -2.622401    3.357809    0.720720
 C   -3.385322    4.038187   -0.207142
 C   -2.951992    5.275911   -0.656878
 C   -3.484436   -3.983327   -1.215472
 C   -4.878612   -3.383970   -1.038373
 O   -4.860540   -0.178220   -1.829625
Cl    1.575669    3.745659   -0.983918
 C   -2.992398   -4.781142   -0.008893
 C   -1.497214   -5.070244   -0.119765
 C    0.531838   -3.881248    0.313680
 C    1.325128   -4.895642   -0.210436
 C    2.704197   -4.821130   -0.118900
 C    3.312786   -3.764914    0.520888
 C    2.542341   -2.755218    1.093953
 C    1.140103   -2.784731    0.977319
 C    0.281665   -1.701578    1.491683
 O   -0.836684   -1.460118    1.086138
 O    0.870316   -1.001164    2.469564
 C    0.248985    0.173471    2.989169
 O    3.225234   -1.783019    1.731860
 O   -0.812879   -3.881938    0.246781
 H    3.875848    2.798864   -1.381994
 H    4.774804    0.652352   -2.843914
 H    5.858413    1.551890   -1.771430
 H    4.757833   -0.800283    0.994722
 H    2.967759   -0.814658   -1.853054
 H    0.684118   -1.614477   -2.095443
 H   -0.781774    2.354062   -1.489804
 H   -1.929830   -0.203429   -3.013918
 H   -1.603637   -1.272241   -1.646448
 H   -2.943470    1.468413   -1.618829
 H   -1.636271    0.082343    0.612945
 H   -4.856041   -2.695819    1.032359
 H   -5.881585   -1.747006   -0.063662
 H   -3.030142   -1.432355    0.404216
 H   -0.095649    5.542328    1.139803
 H   -1.431711    6.774535   -0.523715
 H   -0.880882    3.306491    1.932846
 H   -4.305648    3.592639   -0.551377
 H   -3.535564    5.821220   -1.383052
 H   -2.778611   -3.174552   -1.408471
 H   -3.488876   -4.634747   -2.092833
 H   -5.594257   -4.164113   -0.774622
 H   -5.185976   -2.944832   -1.988333
 H   -3.538039   -5.722511    0.068150
 H   -3.149361   -4.214634    0.908288
 H   -1.204654   -5.883734    0.557014
 H   -1.248131   -5.358664   -1.149290
 H    0.875652   -5.740980   -0.703837
 H    3.307488   -5.604533   -0.550541
 H    4.385337   -3.698191    0.599147
 H    0.472550    0.192538    4.053915
 H    0.703007    1.034865    2.496927
 H   -0.829643    0.173013    2.830226
 H    2.619592   -1.101471    2.078761
