44 
2d06_ligand_xtb.xyz
 C    2.642067   -1.479428   -0.415032
 C    3.998829   -1.439583   -0.157501
 C    4.595975   -0.240406    0.203048
 O    5.928519   -0.138546    0.473639
 C    3.812559    0.900587    0.283413
 C    2.450379    0.860426    0.023561
 C    1.681953    2.148781    0.143812
 C    0.297896    2.066664   -0.485504
 C   -0.381002    0.785528   -0.013446
 C    0.356852   -0.417193   -0.626043
 C    1.839027   -0.348670   -0.317266
 C   -0.289801   -1.740956   -0.189147
 C   -1.796021   -1.785465   -0.468455
 C   -2.505715   -0.575801    0.133277
 C   -1.843735    0.694224   -0.422281
 C   -2.807645    1.814016   -0.022626
 C   -4.197463    1.151599   -0.099063
 C   -3.952313   -0.356748   -0.350132
 O   -4.863648   -1.197538    0.315863
 C   -2.511048   -0.669483    1.659943
 H    2.211080   -2.424849   -0.703508
 H    4.593927   -2.339975   -0.239381
 H    6.343758   -1.003356    0.373790
 H    4.286364    1.832283    0.552724
 H    2.259858    2.956741   -0.310780
 H    1.578955    2.387305    1.207770
 H   -0.288729    2.940496   -0.197951
 H    0.379972    2.059163   -1.574640
 H   -0.302256    0.741893    1.076281
 H    0.247733   -0.344735   -1.718529
 H   -0.097058   -1.899232    0.872716
 H    0.166297   -2.570585   -0.730376
 H   -1.956123   -1.792354   -1.550136
 H   -2.216278   -2.707658   -0.063816
 H   -1.873778    0.618876   -1.517308
 H   -2.735556    2.667925   -0.695097
 H   -2.592603    2.164553    0.986623
 H   -4.803482    1.584041   -0.895753
 H   -4.743446    1.268525    0.837562
 H   -3.996459   -0.558835   -1.433457
 H   -5.751630   -0.990525    0.007998
 H   -2.921697    0.228399    2.109568
 H   -3.138379   -1.508427    1.949680
 H   -1.514208   -0.829555    2.056661
