40 
2d3z_ligand_dft.xyz
 C    5.048984    0.892369   -1.232487
 C    5.930170   -0.063496   -0.748475
 C    5.533733   -1.032521    0.160723
 C    4.216253   -1.036775    0.600276
 C    3.299194   -0.087946    0.133096
 C    3.732694    0.870579   -0.791768
 C   -0.379136   -0.697275    1.363603
 C   -0.204009    0.659153    1.217044
 C    1.097947    1.016651    0.779546
 C    1.902991   -0.077387    0.594985
 S    1.055135   -1.549265    0.943584
 F    7.200123   -0.051337   -1.173619
 C   -1.574193   -1.475854    1.788340
 O   -1.588414   -2.682603    1.757367
 O   -2.616938   -0.764216    2.223505
 N   -1.292391    1.563954    1.431788
 S   -1.950964    2.277117   -0.001156
 C   -3.955107    0.471891   -0.416055
 C   -2.658506    0.846018   -0.755194
 C   -1.870070    0.062925   -1.594717
 C   -2.391894   -1.127406   -2.081269
 C   -3.684159   -1.540239   -1.742176
 C   -4.460612   -0.717575   -0.920709
 C   -4.214704   -2.865585   -2.219901
 O   -0.868856    2.771892   -0.837409
 O   -2.978856    3.171262    0.499030
 H    5.394070    1.627724   -1.950552
 H    6.252941   -1.759900    0.519845
 H    3.904696   -1.777590    1.331085
 H    3.025900    1.594776   -1.185409
 H    1.411806    2.039256    0.609926
 H   -2.422148    0.192768    2.130136
 H   -1.067852    2.333859    2.062406
 H   -4.551358    1.101919    0.235463
 H   -0.864706    0.379788   -1.851036
 H   -1.781350   -1.752177   -2.726611
 H   -5.469486   -1.021521   -0.657968
 H   -3.775751   -3.150706   -3.180256
 H   -3.968157   -3.649884   -1.494823
 H   -5.302657   -2.845426   -2.330116
