40 
2d3z_ligand_xtb.xyz
 C    5.275152   -0.956745    0.706342
 C    5.934200    0.250683    0.552563
 C    5.290952    1.373496    0.060466
 C    3.960437    1.276001   -0.291283
 C    3.267308    0.069900   -0.158491
 C    3.943830   -1.042167    0.351720
 C   -0.467108    0.479286   -1.211839
 C   -0.210599   -0.875133   -1.102654
 C    1.115373   -1.150999   -0.725281
 C    1.872424   -0.019428   -0.543878
 S    0.932345    1.412925   -0.835023
 F    7.233498    0.336240    0.894241
 C   -1.703280    1.157993   -1.614748
 O   -1.870366    2.344381   -1.493578
 O   -2.642309    0.365674   -2.152594
 N   -1.237768   -1.829997   -1.245648
 S   -1.889806   -2.272005    0.312114
 C   -3.887635   -0.420101    0.380501
 C   -2.610293   -0.730706    0.803750
 C   -1.834941    0.178972    1.497217
 C   -2.344404    1.439774    1.747081
 C   -3.617467    1.790859    1.305267
 C   -4.390140    0.840880    0.642247
 C   -4.127410    3.180656    1.498803
 O   -0.789342   -2.618239    1.163316
 O   -2.877345   -3.262302    0.021775
 H    5.804806   -1.809026    1.101361
 H    5.832451    2.300237   -0.042387
 H    3.444039    2.140194   -0.681165
 H    3.421368   -1.975057    0.487389
 H    1.477044   -2.153825   -0.592652
 H   -2.376245   -0.574751   -2.125580
 H   -0.906249   -2.695788   -1.655788
 H   -4.458729   -1.164728   -0.150152
 H   -0.850653   -0.114447    1.828106
 H   -1.741771    2.167210    2.269347
 H   -5.382096    1.101230    0.306512
 H   -5.212895    3.198327    1.548541
 H   -3.716911    3.629242    2.399713
 H   -3.815404    3.784859    0.646616
