68 
2dbl_ligand_xtb.xyz
 C    1.079872   -0.856516   -0.115652
 C    2.542491   -0.583134    0.222626
 C    2.971730    0.786498   -0.292037
 O    4.316469    1.062429    0.131210
 C    2.064436    1.878684    0.256235
 C    0.608823    1.581435   -0.105634
 C   -0.313318    2.720619    0.320810
 C   -1.715192    2.485255   -0.227039
 C   -2.270431    1.137656    0.232889
 C   -1.306920   -0.009511   -0.132343
 C    0.121416    0.217582    0.435669
 C   -1.911978   -1.362676    0.265348
 C   -3.291498   -1.600322   -0.358304
 C   -4.248073   -0.473977    0.023790
 C   -3.612697    0.850652   -0.433511
 C   -4.746317    1.860806   -0.272197
 C   -5.998403    1.063787   -0.683302
 C   -5.578752   -0.419505   -0.778571
 C   -4.565084   -0.526473    1.519649
 C    0.124821    0.154078    1.966100
 C   -6.643806   -1.357780   -0.253614
 O   -7.434116   -1.044754    0.601851
 C   -6.661825   -2.718958   -0.903794
 C    5.302847    0.620447   -0.636844
 O    5.159317    0.070665   -1.698200
 C    6.655804    0.933350   -0.018990
 C    7.636743   -0.184166   -0.353716
 C    7.147703   -1.503113    0.191952
 O    6.118190   -1.678156    0.784109
 O    8.011593   -2.493129   -0.063176
 H    0.817980   -1.834730    0.287871
 H    0.974474   -0.903118   -1.202475
 H    3.177703   -1.347107   -0.229216
 H    2.704899   -0.618790    1.300031
 H    2.953522    0.789328   -1.389919
 H    2.199183    1.946610    1.335446
 H    2.355918    2.840627   -0.170925
 H    0.562269    1.518013   -1.200509
 H   -0.340877    2.796255    1.408168
 H    0.074636    3.666241   -0.064785
 H   -2.380519    3.285558    0.100922
 H   -1.680672    2.506174   -1.319399
 H   -2.407089    1.179140    1.315194
 H   -1.211812   -0.006746   -1.226176
 H   -1.252811   -2.166714   -0.063336
 H   -1.998427   -1.426602    1.348721
 H   -3.190162   -1.643557   -1.446278
 H   -3.667592   -2.566982   -0.015278
 H   -3.418568    0.751372   -1.509476
 H   -4.606564    2.737899   -0.902079
 H   -4.813691    2.195975    0.762509
 H   -6.795080    1.167867    0.053067
 H   -6.387900    1.405520   -1.642053
 H   -5.360734   -0.688570   -1.816105
 H   -3.706490   -0.254788    2.124933
 H   -4.865799   -1.535971    1.795291
 H   -5.384785    0.139032    1.769336
 H   -0.662524    0.764542    2.396367
 H   -0.020168   -0.871242    2.296877
 H    1.070529    0.499351    2.370401
 H   -7.276728   -3.404456   -0.326392
 H   -5.655157   -3.112432   -1.010897
 H   -7.092104   -2.617605   -1.899264
 H    6.527419    1.041643    1.057109
 H    7.010410    1.879430   -0.431529
 H    8.631897    0.016357    0.044711
 H    7.719564   -0.295555   -1.437204
 H    7.669884   -3.336699    0.272875
