55 
2drc_ligand_ani.xyz
 N   -4.703745   -1.719745    1.301957
 C   -4.318773   -2.878263    0.804110
 N   -4.825685   -4.005014    1.379638
 N   -3.440358   -3.103977   -0.210048
 C   -2.912912   -2.036214   -0.760718
 N   -1.914612   -2.207208   -1.703789
 C   -3.290870   -0.714138   -0.370876
 N   -2.811635    0.363366   -1.040358
 C   -3.213908    1.530878   -0.586467
 C   -4.046371    1.629783    0.557138
 N   -4.543952    0.595503    1.193775
 C   -4.184578   -0.621686    0.712505
 C   -2.762507    2.791967   -1.270839
 N   -1.971128    3.626869   -0.363582
 C   -1.770480    4.969969   -0.889451
 C    1.592730    1.603923    0.689074
 C    1.386049    2.017216   -0.628605
 C    0.230295    2.701195   -0.972894
 C   -0.739413    2.985922   -0.003022
 C   -0.511190    2.607026    1.319357
 C    0.651160    1.932725    1.664451
 C    2.790959    0.813538    1.103554
 O    3.207382    0.812588    2.253244
 N    3.353407    0.063694    0.113112
 C    4.467393   -0.798308    0.381672
 C    5.777035   -0.020834    0.266340
 O    5.885952    1.157476    0.049520
 O    6.838470   -0.829200    0.470133
 C    4.454269   -2.046725   -0.513999
 C    3.208348   -2.915417   -0.327381
 C    1.961647   -2.398469   -1.023695
 O    1.934134   -1.522222   -1.864906
 O    0.875886   -3.042296   -0.604337
 H   -4.714638   -4.864100    0.866466
 H   -5.635774   -3.894779    1.968693
 H   -2.036491   -3.067937   -2.231123
 H   -1.813282   -1.376824   -2.283463
 H   -4.311248    2.618646    0.928380
 H   -2.199883    2.509585   -2.173054
 H   -3.638533    3.374533   -1.587457
 H   -1.147692    5.002641   -1.800664
 H   -2.745120    5.412944   -1.124484
 H   -1.295773    5.592729   -0.126029
 H    2.136221    1.824228   -1.394328
 H    0.068965    2.993964   -2.008817
 H   -1.269432    2.834704    2.066584
 H    0.843293    1.641977    2.693268
 H    2.863917   -0.063712   -0.763986
 H    4.403300   -1.104097    1.435555
 H    7.622348   -0.260051    0.397991
 H    4.535788   -1.748391   -1.566314
 H    5.342967   -2.635894   -0.274794
 H    3.386853   -3.919188   -0.732516
 H    2.968714   -3.052650    0.733481
 H    0.091555   -2.648036   -1.049064
