20 
2dri_ligand_xtb.xyz
 C   -1.492073   -0.470666    0.350121
 C   -0.130681   -1.161474    0.171545
 C    0.717480   -0.409981   -0.868067
 C    0.786684    1.089778   -0.495690
 C   -0.616762    1.638668   -0.239825
 O   -2.218650   -0.636337   -0.829800
 O    0.564459   -1.237010    1.388062
 O    2.017758   -0.951446   -0.898484
 O    1.572256    1.277660    0.662739
 O   -1.342142    0.876668    0.705191
 H   -2.009725   -0.922924    1.211308
 H   -0.299654   -2.190676   -0.159446
 H    0.271746   -0.517014   -1.861636
 H    1.230620    1.643417   -1.337035
 H   -0.548804    2.637399    0.192163
 H   -1.157170    1.677741   -1.194024
 H   -3.082265   -0.218056   -0.725947
 H    0.676803   -0.326768    1.713139
 H    2.147013   -1.412918   -0.054706
 H    2.434103    0.875567    0.486026
