8 
2dua_ligand_xtb.xyz
 C   -0.756664    0.175741    0.000000
 C    0.756453   -0.175325    0.000001
 O   -1.530657   -0.885366    0.000274
 O    1.531713    0.884871    0.000337
 O   -1.101319    1.327664   -0.000266
 O    1.100093   -1.327536   -0.000302
 H   -0.971164   -1.691279    0.000066
 H    0.973796    1.691708   -0.000419
