45 
2duv_ligand_dft.xyz
 O    0.178725    0.505254    0.293418
 C   -0.641152    1.592677    0.179706
 C   -0.115155    2.835616    0.051680
 C    1.323871    3.049742   -0.077335
 C    3.536488    1.877189   -0.219079
 C    4.292982    0.720860   -0.183024
 C    3.632462   -0.499161    0.064538
 C    2.265128   -0.569308    0.246976
 C    1.511894    0.617323    0.156934
 C    2.143195    1.841259   -0.047840
 O    1.748088    4.195209   -0.237355
 C   -2.053361    1.202013    0.148694
 C   -3.062173    1.980601    0.715767
 C   -4.387268    1.557992    0.658120
 C   -4.717852    0.365000    0.028283
 C   -3.702284   -0.409750   -0.553537
 C   -2.384803   -0.002276   -0.493123
 C    5.785887    0.739981   -0.388878
 O   -0.871436    3.947386   -0.040217
 O   -4.123070   -1.564218   -1.162354
 O   -6.006003   -0.041813   -0.033347
 C    0.217483   -3.224848    1.894692
 C    1.097407   -1.970346    1.937454
 N    1.645204   -1.802155    0.585595
 S    0.795052   -2.677103   -0.587261
 C   -0.507143   -3.167019    0.554438
 O    1.555713   -3.853726   -0.975134
 O    0.308757   -1.783538   -1.632966
 H    3.996869    2.846872   -0.384431
 H    4.197432   -1.425155    0.126942
 H   -2.814199    2.917584    1.200296
 H   -5.183294    2.151066    1.095195
 H   -1.604926   -0.590926   -0.972259
 H    6.064200    0.179341   -1.288089
 H    6.156436    1.762208   -0.501729
 H    6.308659    0.281730    0.457726
 H   -0.219484    4.661679   -0.187148
 H   -3.422713   -1.899665   -1.735060
 H   -6.030503   -0.857494   -0.554976
 H   -0.487332   -3.236964    2.728745
 H    0.833933   -4.126845    1.946167
 H    1.919420   -2.079295    2.650062
 H    0.499351   -1.093734    2.217152
 H   -1.271349   -2.384483    0.537866
 H   -0.919575   -4.118867    0.217397
