16 
2dw7_ligand_ani.xyz
 O   -1.946167    0.445473    1.284242
 O   -2.345114    0.224146   -0.916304
 C   -1.685055   -0.030768    0.064581
 C   -0.494956   -0.973956    0.033693
 O   -0.200514   -1.302554   -1.293638
 C    0.749355   -0.397093    0.737792
 O    1.723560   -1.389909    0.862696
 C    1.324629    0.767164   -0.056427
 O    2.402038    0.727962   -0.602079
 O    0.521354    1.837488   -0.078074
 H   -2.707579    1.043511    1.199130
 H   -0.761191   -1.875443    0.605058
 H   -0.940495   -0.966526   -1.827588
 H    0.451596   -0.039584    1.731183
 H    2.383729   -1.208215    0.174310
 H    0.968842    2.513328   -0.614660
