45 
2e1w_ligand_dft.xyz
 C    2.119731   -0.327622    0.584700
 N    1.669036    0.835071    0.019651
 C    2.661288    1.277465   -0.810159
 N    3.696942    0.473887   -0.812957
 C    3.365845   -0.537811    0.058510
 C    4.256917   -1.683134    0.351957
 O    3.931706   -2.587380    1.109087
 N    5.448418   -1.624746   -0.296972
 C    0.370868    1.460960    0.266820
 C    0.551544    2.751231    1.078916
 O    1.130488    3.713512    0.211212
 C   -0.406657    1.661038   -1.037472
 C   -0.652766    0.358979   -1.821937
 C   -1.301747   -0.733406   -1.001563
 C   -0.562462   -1.832523   -0.629869
 C   -1.085717   -2.830314    0.223901
 C   -2.360335   -2.718201    0.707597
 C   -3.176596   -1.618893    0.332150
 C   -2.655273   -0.622028   -0.543362
 C   -4.507632   -1.498171    0.810286
 C   -3.517207    0.439775   -0.933474
 C   -5.303014   -0.449034    0.430959
 C   -4.802197    0.525077   -0.461256
 C   -0.753610    3.259742    1.685122
 H    1.529833   -0.905772    1.278466
 H    2.570366    2.200933   -1.362060
 H    6.117428   -2.364569   -0.161707
 H    5.648920   -0.851736   -0.913171
 H   -0.178738    0.753714    0.896137
 H    1.252116    2.509223    1.892619
 H    1.433169    4.457459    0.743969
 H   -1.362877    2.125201   -0.780016
 H    0.124182    2.375447   -1.673680
 H    0.304628   -0.011859   -2.203154
 H   -1.259571    0.599412   -2.703582
 H    0.460986   -1.928633   -0.982177
 H   -0.461306   -3.674484    0.500124
 H   -2.768004   -3.470062    1.378323
 H   -4.887608   -2.261614    1.484536
 H   -3.162630    1.187886   -1.634860
 H   -6.319319   -0.368329    0.804650
 H   -5.442674    1.342332   -0.779541
 H   -1.224071    2.494273    2.311125
 H   -1.460352    3.559961    0.906577
 H   -0.558672    4.133891    2.316019
