45 
2e1w_ligand_ani.xyz
 C    2.278555   -0.392259    0.570125
 N    1.818824    0.806470    0.076876
 C    2.774801    1.251490   -0.787108
 N    3.787234    0.423866   -0.884571
 C    3.485254   -0.610364   -0.037734
 C    4.356059   -1.792939    0.163971
 O    4.033276   -2.698027    0.918118
 N    5.507746   -1.767670   -0.548910
 C    0.538780    1.451440    0.379497
 C    0.782037    2.799632    1.074800
 O    1.170145    3.740764    0.079161
 C   -0.342066    1.578517   -0.869846
 C   -0.597837    0.238048   -1.588476
 C   -1.377231   -0.768786   -0.774110
 C   -0.733374   -1.848018   -0.215277
 C   -1.391254   -2.741956    0.660572
 C   -2.712461   -2.556277    0.958815
 C   -3.439861   -1.487760    0.367589
 C   -2.781651   -0.601084   -0.529609
 C   -4.819179   -1.295062    0.650734
 C   -3.561215    0.420559   -1.147146
 C   -5.530718   -0.290972    0.055283
 C   -4.894538    0.572618   -0.862180
 C   -0.436764    3.302727    1.836241
 H    1.745493   -0.974757    1.309089
 H    2.673872    2.199382   -1.301326
 H    6.148492   -2.540284   -0.461394
 H    5.713941   -0.990713   -1.159091
 H    0.056386    0.777226    1.095800
 H    1.616709    2.638265    1.770375
 H    1.360229    4.572064    0.530773
 H   -1.295268    2.028713   -0.569748
 H    0.131224    2.276306   -1.566196
 H    0.374957   -0.196516   -1.852055
 H   -1.112096    0.435068   -2.537852
 H    0.316648   -2.018743   -0.443515
 H   -0.836983   -3.569924    1.096069
 H   -3.229780   -3.227856    1.639757
 H   -5.301912   -1.972466    1.352052
 H   -3.090981    1.092576   -1.859229
 H   -6.586179   -0.156486    0.278390
 H   -5.465274    1.362435   -1.342546
 H   -0.760052    2.569833    2.582160
 H   -1.270596    3.504721    1.156287
 H   -0.196839    4.233254    2.363334
