46 
2e27_ligand_dft.xyz
 C   -5.677409   -0.796680   -0.535877
 O   -4.754114   -0.965004    0.520695
 C   -3.870479   -2.026455    0.320349
 O   -2.847958   -1.733454   -0.587332
 C   -1.776411   -0.962499   -0.056481
 C   -0.491802   -1.787948   -0.120717
 C    0.689100   -0.920335    0.276020
 O    1.893701   -1.620121    0.068206
 C    3.036868   -0.904678    0.519341
 C    4.204067   -1.800051    0.241242
 C    5.470229   -1.421929    0.020501
 C    6.039313   -0.080978    0.070278
 C    5.416538    1.081948    0.318709
 O    4.097870    1.312856    0.470316
 C    3.161444    0.475406   -0.183987
 C    1.846693    1.247350   -0.161711
 O    1.958726    2.356174   -1.021459
 C    0.705476    0.339189   -0.579838
 O   -0.496276    1.069479   -0.448655
 C   -1.632432    0.334480   -0.873390
 C   -2.835107    1.261641   -0.800392
 C   -3.295059    1.632415    0.590800
 O   -2.710097    1.446963    1.629415
 O   -4.486770    2.263004    0.540254
 H   -6.439762   -1.588025   -0.519694
 H   -5.178754   -0.808679   -1.513369
 H   -6.154328    0.173804   -0.388842
 H   -3.459483   -2.263583    1.308109
 H   -4.392599   -2.898530   -0.093543
 H   -1.985416   -0.679335    0.980313
 H   -0.344944   -2.151372   -1.145313
 H   -0.572356   -2.661907    0.533660
 H    0.595848   -0.624605    1.335636
 H    2.934314   -0.708172    1.600508
 H    3.946239   -2.854189    0.190139
 H    6.189527   -2.212273   -0.181615
 H    7.116621   -0.009412   -0.043590
 H    5.977441    2.002452    0.449651
 H    3.472704    0.322101   -1.224053
 H    1.662186    1.572378    0.875462
 H    1.081497    2.761128   -1.045006
 H    0.851042    0.040695   -1.632227
 H   -1.499331    0.044477   -1.929778
 H   -2.589330    2.193491   -1.322921
 H   -3.677893    0.819746   -1.334476
 H   -4.720045    2.465390    1.460355
