58 
2e7f_ligand_xtb.xyz
 N   -5.741197    1.020878    1.764843
 C   -5.544473    2.273041    1.492642
 N   -5.907800    3.222278    2.403633
 N   -5.046302    2.691366    0.302561
 C   -4.667882    1.822926   -0.737448
 O   -4.212237    2.306285   -1.763012
 C   -4.893132    0.444860   -0.427825
 N   -4.483341   -0.542139   -1.348484
 C   -4.387314   -1.873196   -0.793284
 C   -5.594718   -2.189662    0.114178
 N   -5.631842   -1.193541    1.147627
 C   -5.434624    0.111083    0.801583
 C   -3.071798   -1.998488   -0.005714
 N   -1.991150   -1.540824   -0.842016
 C   -5.025727   -0.438435   -2.686276
 C    2.054319   -1.534845    0.212650
 C    1.588495   -0.802978   -0.882050
 C    0.250188   -0.799004   -1.199612
 C   -0.682978   -1.521731   -0.442441
 C   -0.214404   -2.251089    0.656065
 C    1.127308   -2.256645    0.964119
 C    3.472273   -1.611700    0.627253
 O    3.882231   -2.435091    1.431218
 N    4.315364   -0.722705    0.035212
 C    5.703223   -0.657817    0.405080
 C    6.610260   -0.486192   -0.832357
 C    6.942841    0.970248   -1.170834
 C    5.731474    1.862750   -1.307412
 O    6.020173    3.125059   -0.994989
 O    4.640471    1.520206   -1.681199
 C    5.939651    0.469677    1.401210
 O    7.071345    0.298464    2.090212
 O    5.220828    1.419805    1.553760
 H   -6.103917    2.867971    3.324863
 H   -5.456698    4.120760    2.359260
 H   -4.910469    3.676647    0.113021
 H   -4.362155   -2.584008   -1.624321
 H   -6.505744   -2.176374   -0.504031
 H   -5.493923   -3.178038    0.566826
 H   -6.156177   -1.357180    1.990394
 H   -2.912701   -3.048178    0.258602
 H   -3.143193   -1.412768    0.922357
 H   -2.272735   -0.792516   -1.463498
 H   -4.920736    0.592748   -3.015616
 H   -4.452234   -1.080788   -3.354157
 H   -6.085429   -0.726264   -2.738812
 H    2.265580   -0.239408   -1.506509
 H   -0.101233   -0.230233   -2.048910
 H   -0.902354   -2.813184    1.267841
 H    1.492393   -2.823508    1.807556
 H    3.956864    0.039855   -0.518879
 H    5.929320   -1.603587    0.913621
 H    7.548768   -1.014485   -0.664451
 H    6.097205   -0.950328   -1.675598
 H    7.603097    1.410796   -0.422675
 H    7.469022    1.001483   -2.129381
 H    5.228765    3.683338   -1.060033
 H    7.192195    1.015432    2.733822
