58 
2e7f_ligand_ani.xyz
 N   -6.030186    0.806101    1.801118
 C   -5.903779    2.081248    1.592224
 N   -6.409017    2.982357    2.495496
 N   -5.321417    2.609419    0.470794
 C   -4.849910    1.841068   -0.613489
 O   -4.410196    2.401577   -1.603695
 C   -4.964912    0.414927   -0.376438
 N   -4.499177   -0.490228   -1.335238
 C   -4.273838   -1.857946   -0.848357
 C   -5.427739   -2.319490    0.041253
 N   -5.622288   -1.347998    1.105204
 C   -5.538883   -0.016780    0.828524
 C   -2.918729   -1.954461   -0.134044
 N   -1.889762   -1.383284   -0.972377
 C   -5.119042   -0.392096   -2.651111
 C    2.191381   -1.487988    0.000274
 C    1.715367   -0.672482   -1.031569
 C    0.365174   -0.634035   -1.334123
 C   -0.557942   -1.407503   -0.608933
 C   -0.080257   -2.213341    0.434696
 C    1.274835   -2.254531    0.719858
 C    3.630513   -1.626597    0.370191
 O    4.014143   -2.507337    1.130893
 N    4.482387   -0.732543   -0.198779
 C    5.858640   -0.697902    0.207785
 C    6.773410   -0.086365   -0.870051
 C    6.942629    1.434625   -0.835296
 C    5.688122    2.245245   -1.049302
 O    5.928176    3.555964   -0.906782
 O    4.583905    1.828213   -1.337050
 C    6.014695    0.022347    1.540852
 O    7.290615   -0.041335    1.971895
 O    5.146968    0.599885    2.142941
 H   -6.669889    2.545210    3.369780
 H   -5.897135    3.845149    2.615162
 H   -5.310365    3.608560    0.304822
 H   -4.217803   -2.493138   -1.739258
 H   -6.334840   -2.441800   -0.573425
 H   -5.195719   -3.292702    0.488680
 H   -6.222334   -1.575748    1.884841
 H   -2.694228   -3.014418    0.039855
 H   -2.972800   -1.472081    0.855522
 H   -2.186702   -0.554389   -1.471817
 H   -4.999603    0.627868   -3.021397
 H   -4.599215   -1.068194   -3.335819
 H   -6.190137   -0.648092   -2.637742
 H    2.389887   -0.060294   -1.631239
 H    0.015737   -0.001640   -2.147923
 H   -0.766636   -2.809293    1.029550
 H    1.649707   -2.894966    1.513152
 H    4.120912    0.113129   -0.623437
 H    6.168220   -1.733031    0.383054
 H    7.768449   -0.526370   -0.755236
 H    6.388533   -0.405435   -1.844654
 H    7.391921    1.754629    0.111567
 H    7.649266    1.740986   -1.615541
 H    5.084782    4.012702   -1.064984
 H    7.308917    0.433207    2.819684
