57 
2e9o_ligand_ani.xyz
 C   -7.337539   -2.770745    1.809466
 C   -5.709236   -0.418760   -0.660611
 C   -5.702511   -1.945632   -0.774300
 C   -7.111137   -2.541654   -0.718551
 C   -7.883407   -2.110365    0.539422
 C   -7.888168   -0.576356    0.638496
 C   -6.485488    0.037428    0.585507
 N   -4.308134    0.054098   -0.663650
 C   -4.075825    1.496424   -0.645243
 C   -2.608372    1.765733   -0.446407
 C   -1.641297    0.763894   -0.562719
 C   -0.312190    1.074608   -0.356761
 C    0.060919    2.383820   -0.022675
 C   -0.882616    3.399444    0.087911
 C   -2.210531    3.072885   -0.128691
 C    0.902734    0.151404   -0.424977
 C    2.017823    1.098738   -0.070083
 C    1.495448    2.383757    0.157159
 C    3.389442    1.301777    0.166684
 N    3.604035    2.571721    0.497524
 N    2.414897    3.265060    0.491556
 C    4.510184    0.357197    0.099839
 C    5.782503    0.776048    0.500010
 C    6.846526   -0.108246    0.463916
 C    6.657211   -1.419664    0.018712
 C    5.394186   -1.822211   -0.416322
 C    4.325668   -0.943511   -0.365299
 C    7.773343   -2.416488   -0.067846
 O    8.826319   -2.224389    0.758357
 O    7.763102   -3.353073   -0.823008
 H   -6.296417   -2.493401    2.005329
 H   -7.924024   -2.475434    2.686827
 H   -7.375311   -3.863107    1.730251
 H   -6.221075   -0.007654   -1.541155
 H   -5.095158   -2.350918    0.046948
 H   -5.204062   -2.226650   -1.710027
 H   -7.059668   -3.636955   -0.764539
 H   -7.670564   -2.215403   -1.607396
 H   -8.925038   -2.442492    0.425626
 H   -8.397058   -0.267526    1.560579
 H   -8.479329   -0.171729   -0.196007
 H   -6.567769    1.129516    0.594064
 H   -5.910370   -0.243645    1.478758
 H   -3.845011   -0.323259   -1.519896
 H   -3.830392   -0.354046    0.174377
 H   -4.640748    1.961149    0.167417
 H   -4.443490    1.960917   -1.569070
 H   -1.895022   -0.260898   -0.819709
 H   -0.588438    4.414312    0.341208
 H   -2.965748    3.852198   -0.043116
 H    1.007782   -0.279204   -1.432091
 H    0.805011   -0.682132    0.285977
 H    5.910547    1.798850    0.842492
 H    7.833143    0.253278    0.750218
 H    5.271789   -2.831728   -0.794948
 H    3.342882   -1.265282   -0.696039
 H    8.626560   -1.532361    1.403309
