57 
2e9o_ligand_dft.xyz
 C   -8.645070   -0.839129    1.907207
 C   -5.652714   -0.866464   -0.384842
 C   -5.829504   -1.810520    0.804213
 C   -7.171926   -2.545840    0.710302
 C   -8.364785   -1.582256    0.596973
 C   -8.144007   -0.625786   -0.586125
 C   -6.807423    0.124785   -0.508152
 N   -4.344032   -0.140881   -0.246759
 C   -3.832603    0.696321   -1.429715
 C   -2.475662    1.186796   -1.083289
 C   -1.359275    0.341392   -1.268144
 C   -0.129506    0.725316   -0.790357
 C    0.023734    1.968355   -0.104952
 C   -1.080901    2.811832    0.064000
 C   -2.318653    2.410832   -0.420331
 C    1.206602   -0.007511   -0.867660
 C    2.105038    0.942855   -0.132918
 C    1.396853    2.072242    0.285725
 C    3.391497    1.195472    0.332070
 N    3.393930    2.409032    0.979360
 N    2.182457    2.948502    0.954811
 C    4.608814    0.403865    0.228739
 C    5.815997    0.873064    0.772726
 C    6.972604    0.117356    0.688499
 C    6.971790   -1.134457    0.057393
 C    5.779656   -1.594311   -0.508332
 C    4.620016   -0.843096   -0.417680
 C    8.179897   -1.997219   -0.061958
 O    9.193273   -1.746481    0.804797
 O    8.295890   -2.892079   -0.863437
 H   -7.810274   -0.202358    2.221253
 H   -9.525378   -0.196108    1.806546
 H   -8.838767   -1.546695    2.719829
 H   -5.563002   -1.448748   -1.309616
 H   -5.782369   -1.231371    1.736266
 H   -5.008000   -2.536810    0.835914
 H   -7.287316   -3.194670    1.584502
 H   -7.152743   -3.203138   -0.168908
 H   -9.251717   -2.185187    0.368773
 H   -8.958934    0.103091   -0.643400
 H   -8.169590   -1.198348   -1.522687
 H   -6.688794    0.749182   -1.399172
 H   -6.800766    0.796444    0.361427
 H   -3.592883   -0.807455   -0.036643
 H   -4.367049    0.483284    0.566915
 H   -4.560286    1.496861   -1.573745
 H   -3.857589    0.020099   -2.289370
 H   -1.473424   -0.604109   -1.801153
 H   -0.960799    3.764891    0.567864
 H   -3.181932    3.063875   -0.291495
 H    1.499898   -0.168656   -1.914199
 H    1.137683   -1.001100   -0.402877
 H    5.815231    1.845530    1.252839
 H    7.892481    0.542446    1.087790
 H    5.784544   -2.554167   -1.015063
 H    3.702112   -1.224683   -0.856280
 H    8.897070   -1.113554    1.471582
