56 
2e9v_ligand_ani.xyz
 C   -1.792480    0.371351    0.003375
 C   -0.448423    0.052926    0.109785
 C   -0.025294   -1.284493    0.230336
 C   -0.987501   -2.279189    0.329937
 C   -2.329809   -1.951643    0.264135
 C   -2.772587   -0.630582    0.078348
 N   -4.116531   -0.361360   -0.051614
Cl   -3.507564   -3.232171    0.389302
 C    7.201596    1.102905   -0.784303
 N    7.974208    1.943720   -0.967708
 N    1.358314   -1.524804    0.241464
 C    1.958824   -2.752400    0.228124
 N    3.355339   -2.747337    0.067930
 O    1.404062   -3.833478    0.332545
 C    4.292368   -1.748215   -0.110977
 N    4.008364   -0.486441    0.211517
 C    4.969006    0.404135    0.023391
 C    6.212851    0.079472   -0.539267
 N    6.490987   -1.189853   -0.848501
 C    5.555406   -2.098433   -0.628793
 O    0.547426    0.993286    0.015083
 C    0.354869    2.242847    0.683492
 C    3.254346    3.426353    0.839150
 C    3.719403    2.036595    1.241155
 O    4.762097    1.688980    0.321867
 C    0.878855    3.385684   -0.167512
 C    2.389304    3.411720   -0.431746
 C   -4.618572    0.995669   -0.099180
 C   -6.122853    1.011160   -0.224610
 C   -6.878883    2.030147    0.345588
 C   -8.258984    2.021631    0.174160
 N   -8.918038    1.088888   -0.514460
 C   -8.184619    0.118251   -1.062998
 C   -6.801436    0.032960   -0.947642
 H   -2.088597    1.401173   -0.167235
 H   -0.684201   -3.309771    0.452573
 H   -4.713199   -1.020984    0.428485
 H    1.948132   -0.703125    0.146314
 H    3.690109   -3.694946   -0.030866
 H    5.792264   -3.129378   -0.884777
 H    0.862928    2.199225    1.656929
 H   -0.707259    2.397313    0.891705
 H    4.153421    4.032116    0.687269
 H    2.701837    3.881542    1.670992
 H    2.913832    1.301881    1.173761
 H    4.127972    2.020023    2.259569
 H    0.588822    4.321257    0.331324
 H    0.347043    3.369727   -1.126835
 H    2.682256    2.553455   -1.050278
 H    2.602312    4.307779   -1.026926
 H   -4.173471    1.504557   -0.964792
 H   -4.323020    1.578581    0.789074
 H   -6.404652    2.823755    0.916986
 H   -8.868422    2.809574    0.615679
 H   -8.733959   -0.639990   -1.620339
 H   -6.255065   -0.779950   -1.416789
