39 
2ea2_ligand_ani.xyz
 C    4.593352    1.239998   -1.893426
 C    4.733337    0.357475   -0.648252
 C    3.405311   -0.196225   -0.175928
 C    2.993628   -1.444583   -0.633999
 C    1.765928   -1.976206   -0.273564
 C    0.918440   -1.236978    0.543045
 C    1.265894    0.059538    0.969394
 C    2.557604    0.545494    0.665153
 C    3.107256    1.822519    1.266016
 C    0.259430    0.950949    1.694047
 O   -0.682438    0.355941    2.430086
 O    0.304317    2.158792    1.646387
 N   -0.313857   -1.857698    0.961910
 S   -1.557491   -2.073630   -0.216905
 O   -2.577978   -2.828389    0.486841
 O   -0.984381   -2.555504   -1.465677
 C   -2.126497   -0.422107   -0.475747
 C   -3.212973    0.042043    0.259130
 C   -3.648098    1.350732    0.084828
 C   -2.989381    2.152595   -0.835976
 C   -1.920422    1.695387   -1.593183
 C   -1.488914    0.385617   -1.412837
 F   -3.406580    3.420318   -1.003696
 H    4.165647    0.671702   -2.726955
 H    3.929555    2.091397   -1.704873
 H    5.565653    1.630660   -2.211752
 H    5.220956    0.923841    0.154316
 H    5.399296   -0.481497   -0.876371
 H    3.652553   -2.022474   -1.277896
 H    1.443865   -2.945687   -0.641991
 H    3.904993    1.592053    1.984449
 H    3.547889    2.445695    0.480743
 H    2.341166    2.404625    1.769136
 H   -0.718755   -0.598412    2.214616
 H   -0.127820   -2.801246    1.303435
 H   -3.710410   -0.625538    0.958202
 H   -4.483827    1.755927    0.646442
 H   -1.446739    2.362239   -2.307706
 H   -0.667491   -0.008393   -2.006713
