19 
2eg7_ligand_ani.xyz
 N   -1.189351    1.195534    0.194498
 N    1.124810    1.186517    0.002414
 C    1.163993   -0.194848    0.104216
 C    0.053374   -0.904615    0.329972
 C   -1.235225   -0.200066    0.591025
 O   -3.449362   -0.129031   -0.286614
 C   -2.405757   -0.945827   -0.063783
 O   -2.433931   -2.127723   -0.289216
 C    2.486201   -0.873358   -0.048044
 O    3.490375    0.005777   -0.237786
 O    2.656213   -2.066560   -0.005990
 C   -0.050563    1.926924   -0.001968
 O   -0.047836    3.129055   -0.177785
 H   -2.042546    1.732759    0.225602
 H    1.972329    1.710053   -0.166623
 H    0.063404   -1.982501    0.377960
 H   -1.482465   -0.267456    1.672971
 H   -4.154545   -0.684956   -0.656502
 H    4.299810   -0.523650   -0.321173
