38 
2esm_ligand_dft.xyz
 O    0.602922   -0.710004    2.011422
 S    0.622009    0.304383    0.973841
 O    1.405698    1.526155    1.162943
 N    1.215823   -0.484115   -0.392456
 C    1.497920    0.317404   -1.566998
 C    2.788290    1.138729   -1.528079
 N    3.998049    0.308523   -1.163429
 C    4.036755   -0.193057    0.273533
 C    3.368451   -1.549711    0.458409
 C    1.984037   -1.711018   -0.205791
 C   -1.008240    0.786015    0.472512
 C   -1.275666    2.135776    0.432316
 C   -2.545067    2.600314    0.031570
 C   -3.512933    1.699279   -0.329539
 C   -3.259491    0.306503   -0.287530
 C   -1.997184   -0.187710    0.134240
 C   -1.839761   -1.594295    0.176859
 C   -4.256287   -0.637541   -0.658588
 N   -4.089423   -1.934935   -0.630865
 C   -2.886347   -2.394582   -0.203499
 H    0.677070    1.023918   -1.730248
 H    1.499880   -0.354851   -2.432755
 H    2.725226    1.925567   -0.775820
 H    2.988048    1.578707   -2.508616
 H    4.825688    0.889447   -1.321120
 H    4.089511   -0.483441   -1.808170
 H    3.550120    0.582937    0.867632
 H    5.089940   -0.246519    0.555503
 H    3.266866   -1.676505    1.540544
 H    4.029020   -2.351326    0.108856
 H    2.083648   -2.151316   -1.204303
 H    1.394065   -2.413983    0.383832
 H   -0.501571    2.840496    0.716162
 H   -2.741861    3.666254    0.011857
 H   -4.493055    2.042650   -0.648706
 H   -0.925623   -2.045613    0.538970
 H   -5.228131   -0.272751   -0.989677
 H   -2.787957   -3.475959   -0.169555
