63 
2euf_ligand_xtb.xyz
 O   -7.014251   -0.138977   -1.214204
 C   -6.348476    0.254858   -0.288866
 C   -6.871974    1.162689    0.782343
 C   -4.908799   -0.150922   -0.132334
 C   -4.535748   -1.459370   -0.127124
 C   -5.509026   -2.589572   -0.207662
 C   -3.139851   -1.765394   -0.013724
 C   -2.609232   -3.059518    0.045041
 N   -1.322518   -3.304403    0.110875
 C   -0.501856   -2.245523    0.101743
 N   -0.875034   -0.977443    0.077060
 C   -2.187881   -0.718978    0.033985
 N   -2.592065    0.576751    0.039218
 C   -1.590629    1.636629    0.142449
 C   -1.615099    2.635487   -1.034320
 C   -1.752721    4.019900   -0.393670
 C   -1.174702    3.840993    1.007431
 C   -1.725035    2.480219    1.421186
 C   -3.941087    0.938891   -0.031924
 O   -4.249757    2.115103   -0.021807
 N    0.817288   -2.591862    0.140402
 C    1.960690   -1.843429    0.068989
 N    3.079933   -2.553025    0.223592
 C    4.241292   -1.942174    0.161187
 C    4.383248   -0.572530   -0.050824
 C    3.214095    0.169990   -0.219902
 C    1.991392   -0.464657   -0.165308
 N    5.683462   -0.018917   -0.124926
 C    6.534761   -0.157650    1.033031
 C    7.990582   -0.139929    0.572086
 N    8.243307    1.147712   -0.130886
 C    7.314217    1.314648   -1.281705
 C    5.873357    1.254491   -0.772089
 H   -6.367847    2.123488    0.688106
 H   -7.943662    1.296533    0.665097
 H   -6.643964    0.758664    1.766586
 H   -5.461524   -3.190236    0.700443
 H   -6.522865   -2.229016   -0.340374
 H   -5.263056   -3.231204   -1.052191
 H   -3.247299   -3.931251    0.041238
 H   -0.635650    1.113205    0.163036
 H   -2.438551    2.430126   -1.714267
 H   -0.685244    2.558467   -1.600108
 H   -2.807832    4.276811   -0.316072
 H   -1.242960    4.792514   -0.966956
 H   -1.476327    4.633665    1.688957
 H   -0.083109    3.811502    0.968912
 H   -1.189026    2.032541    2.257839
 H   -2.774174    2.585014    1.689881
 H    0.971386   -3.589529    0.233428
 H    5.105306   -2.582805    0.280968
 H    3.248482    1.235338   -0.392551
 H    1.070468    0.071672   -0.302608
 H    6.321864   -1.102243    1.531556
 H    6.371865    0.655211    1.764272
 H    8.163755   -0.955296   -0.131547
 H    8.672376   -0.236350    1.417579
 H    9.217563    1.199451   -0.447389
 H    8.078841    1.916326    0.533378
 H    7.486776    0.496124   -1.982026
 H    7.513485    2.265450   -1.777245
 H    5.684434    2.112406   -0.101964
 H    5.198843    1.327834   -1.625354
