63 
2euf_ligand_ani.xyz
 O   -7.131157   -0.084486   -0.425240
 C   -6.241059    0.560720    0.101003
 C   -6.554853    1.886783    0.747713
 C   -4.837977    0.053408    0.115048
 C   -4.562718   -1.296256    0.181423
 C   -5.645271   -2.327521    0.386164
 C   -3.206312   -1.744983    0.052530
 C   -2.770747   -3.082912   -0.005802
 N   -1.508935   -3.448479   -0.124313
 C   -0.612396   -2.441926   -0.200400
 N   -0.886171   -1.149464   -0.173746
 C   -2.164916   -0.789753   -0.036896
 N   -2.446247    0.555194    0.019134
 C   -1.334268    1.530475    0.013455
 C   -1.268238    2.425437   -1.250056
 C   -1.309654    3.876645   -0.738935
 C   -0.716792    3.787291    0.671367
 C   -1.340968    2.495870    1.215564
 C   -3.760349    1.045844   -0.020694
 O   -3.953194    2.246610   -0.174124
 N    0.693980   -2.851732   -0.308520
 C    1.858915   -2.086061   -0.291404
 N    2.935006   -2.733408    0.163039
 C    4.085298   -2.074476    0.230776
 C    4.266181   -0.751162   -0.179251
 C    3.137912   -0.109205   -0.710538
 C    1.926164   -0.773898   -0.769853
 N    5.537856   -0.161511   -0.084342
 C    6.107013   -0.079578    1.262529
 C    7.608619    0.175496    1.183646
 N    7.901515    1.431748    0.406614
 C    7.259649    1.340229   -0.951647
 C    5.761541    1.065027   -0.839372
 H   -6.293336    2.684476    0.048468
 H   -7.619932    1.919410    0.979997
 H   -5.953513    2.044691    1.645955
 H   -6.506511   -1.898948    0.901261
 H   -6.003861   -2.707526   -0.576533
 H   -5.279858   -3.175383    0.971526
 H   -3.502007   -3.891128    0.043532
 H   -0.432221    0.924729    0.063828
 H   -2.084372    2.201770   -1.939007
 H   -0.324967    2.225260   -1.775611
 H   -2.356951    4.188460   -0.670301
 H   -0.779851    4.573402   -1.395872
 H   -0.945895    4.659219    1.293625
 H    0.377596    3.695398    0.622699
 H   -0.811617    2.073293    2.076898
 H   -2.375309    2.689631    1.505984
 H    0.839369   -3.837442   -0.131358
 H    4.939799   -2.632738    0.612485
 H    3.202832    0.915860   -1.063211
 H    1.051663   -0.306458   -1.205292
 H    5.932020   -1.020257    1.788636
 H    5.618510    0.716035    1.857159
 H    8.076908   -0.662603    0.667235
 H    8.041150    0.261799    2.178306
 H    8.924368    1.551802    0.304573
 H    7.465972    2.241667    0.918808
 H    7.720725    0.513985   -1.492796
 H    7.442321    2.263417   -1.497251
 H    5.259043    1.937014   -0.374580
 H    5.355045    0.944793   -1.847527
