128 
2evl_ligand_dft.xyz
 C    0.969733    1.350818    0.297494
 C    2.411433    1.205201    0.776654
 C    2.572774    2.009534    2.066627
 C    2.165511    3.465377    1.862040
 C    0.785706    3.533200    1.196349
 C    0.383301    4.951420    0.790055
 O    0.808396    0.650516   -0.884691
 O    2.861893   -0.113677    0.996377
 O    3.921755    1.997170    2.487613
 O    3.127320    4.115122    1.052993
 O    0.715672    2.715980    0.046228
 O    1.137168    5.485475   -0.261041
 C   -0.529118    0.573537   -1.345274
 C   -1.312674   -0.555216   -0.651410
 N   -0.571007   -1.799883   -0.716449
 C   -2.697404   -0.764080   -1.276340
 O   -2.468171   -1.202779   -2.606160
 C   -3.551373    0.475905   -1.186883
 C   -3.897879    1.228723   -2.228780
 C   -4.709480    2.496600   -2.201813
 C   -5.368115    2.864313   -0.870509
 C   -6.543793    1.962116   -0.487703
 C   -7.152677    2.328266    0.866864
 C   -8.254464    1.373589    1.335962
 C   -9.479789    1.336879    0.418427
 C  -10.661404    0.548979    0.991412
 C  -10.369495   -0.934121    1.228095
 C  -11.611226   -1.719861    1.651497
 C  -11.331042   -3.177340    2.036144
 C  -10.648302   -4.019479    0.952058
 C  -11.417488   -4.090189   -0.368197
 C  -10.761824   -5.028564   -1.379875
 C    0.391554   -2.106360    0.183329
 C    1.379895   -3.168907   -0.242115
 C    2.391353   -2.571928   -1.241780
 C    3.663182   -3.407520   -1.404126
 C    4.459066   -3.550923   -0.101128
 C    5.912046   -3.996323   -0.294766
 C    6.801206   -2.912265   -0.905096
 C    8.292493   -3.275361   -0.894901
 C    9.145540   -2.163151   -1.438639
 C   10.082323   -1.456983   -0.801062
 C   10.541579   -1.611913    0.628101
 C   10.380212   -0.331610    1.423628
 C    9.273404    0.060652    2.056289
 C    7.957252   -0.663210    2.088090
 C    6.798050    0.195372    1.555974
 C    7.047600    0.771152    0.159737
 C    5.774885    1.310806   -0.488002
 C    6.008161    1.895418   -1.878300
 O    0.488108   -1.521144    1.266556
 H    0.271016    0.984609    1.073011
 H    3.045457    1.639460   -0.000537
 H    1.926686    1.561508    2.840178
 H    2.100304    3.966236    2.841021
 H    0.057933    3.181059    1.951678
 H   -0.658711    4.932398    0.454911
 H    0.428622    5.578324    1.698512
 H    2.111149   -0.657139    1.311287
 H    4.253310    1.109210    2.281701
 H    3.988161    3.780413    1.348335
 H    2.065981    5.283838   -0.071663
 H   -0.465421    0.365765   -2.415835
 H   -1.037794    1.532582   -1.210346
 H   -1.445645   -0.323016    0.408646
 H   -0.544652   -2.244312   -1.624265
 H   -3.182300   -1.569143   -0.701090
 H   -3.323551   -1.413558   -2.999593
 H   -3.873098    0.732755   -0.178405
 H   -3.531159    0.934256   -3.212154
 H   -5.481368    2.432800   -2.982220
 H   -4.047317    3.314241   -2.519806
 H   -4.614763    2.859333   -0.070883
 H   -5.726104    3.899494   -0.935532
 H   -6.223103    0.912226   -0.468343
 H   -7.307761    2.032198   -1.273154
 H   -7.551555    3.351707    0.820451
 H   -6.353927    2.345361    1.621047
 H   -7.832101    0.364260    1.431669
 H   -8.576151    1.668917    2.344190
 H   -9.801853    2.367885    0.216429
 H   -9.203666    0.904924   -0.552972
 H  -10.982780    1.009462    1.936541
 H  -11.513098    0.636130    0.303160
 H   -9.951075   -1.364663    0.307227
 H   -9.594960   -1.046527    1.998964
 H  -12.354379   -1.681928    0.843603
 H  -12.075757   -1.216248    2.509951
 H  -12.279602   -3.656662    2.313309
 H  -10.704389   -3.191628    2.938101
 H  -10.510211   -5.038661    1.337710
 H   -9.638304   -3.632442    0.759267
 H  -12.446486   -4.420304   -0.170563
 H  -11.496406   -3.086807   -0.806043
 H  -10.705411   -6.051065   -0.988952
 H   -9.739498   -4.704932   -1.608425
 H  -11.321476   -5.059275   -2.320483
 H    0.867847   -4.032932   -0.683825
 H    1.882437   -3.503162    0.667594
 H    2.669981   -1.569525   -0.899386
 H    1.903683   -2.444896   -2.216386
 H    3.423336   -4.404299   -1.800564
 H    4.283960   -2.915906   -2.162701
 H    4.449136   -2.587582    0.429306
 H    3.955967   -4.269810    0.557198
 H    5.947910   -4.904729   -0.912966
 H    6.326714   -4.274092    0.683686
 H    6.491927   -2.692137   -1.935167
 H    6.655779   -1.983715   -0.340483
 H    8.591188   -3.538072    0.126351
 H    8.442976   -4.181208   -1.499597
 H    8.934992   -1.894129   -2.474698
 H   10.576913   -0.657725   -1.352630
 H   10.013036   -2.433938    1.118561
 H   11.603508   -1.890372    0.628047
 H   11.251119    0.321254    1.459000
 H    9.295478    1.012868    2.588382
 H    8.017110   -1.581964    1.495441
 H    7.728474   -0.966304    3.119263
 H    5.890430   -0.426200    1.534845
 H    6.599777    1.019730    2.255918
 H    7.801755    1.566753    0.220966
 H    7.488902   -0.000225   -0.484234
 H    5.035359    0.500348   -0.547460
 H    5.333833    2.075280    0.165326
 H    6.417797    1.137028   -2.555911
 H    5.076246    2.269710   -2.314746
 H    6.721155    2.727307   -1.842168
