22 
2evm_ligand_xtb.xyz
 O    1.506043   -0.432232   -0.103749
 C    2.786475   -0.032408    0.100328
 C    3.890850   -0.968136   -0.164459
 O    3.511045   -2.171765   -0.626630
 C    2.804952    1.267005    0.543222
 C    1.463987    1.682417    0.603227
 C    0.700220    0.611572    0.195622
 O    5.043998   -0.688994    0.015000
 C   -0.733400    0.398394    0.082022
 C   -1.661615    1.427550   -0.114381
 C   -3.017185    1.150358   -0.207872
 C   -3.479882   -0.148156   -0.114641
 C   -2.567236   -1.177734    0.067333
 C   -1.214967   -0.911240    0.164411
Cl   -1.165971    3.066621   -0.294329
Cl   -3.122184   -2.806507    0.178685
 H    2.549844   -2.230273   -0.725837
 H    3.678623    1.834295    0.787880
 H    1.112047    2.638729    0.926975
 H   -3.711374    1.961674   -0.360206
 H   -4.534250   -0.360468   -0.186053
 H   -0.518128   -1.719723    0.317342
