29 
2evo_ligand_ani.xyz
 O   -0.405677   -1.153111   -0.021572
 C   -0.459388    0.062316   -0.021152
 N   -1.585899    0.818219    0.008778
 C   -2.897753    0.362853    0.018293
 N   -3.881441    1.208572    0.047202
 S   -3.332451   -1.315447   -0.012083
 C   -4.991334   -0.825046    0.014507
 C   -5.076597    0.526459    0.045244
 O    0.767770    2.157171   -0.050782
 C    0.813385    0.936579   -0.059739
 N    1.923111    0.175531   -0.108071
 C    3.264249    0.730020   -0.119509
 C    4.033235    0.369595    1.159953
 C    4.116006    0.084143   -1.219167
 C    4.614550   -1.246691   -0.614540
 C    4.546725   -1.066565    0.925931
 H   -1.455353    1.824750    0.012965
 H   -5.798713   -1.545415    0.005133
 H   -6.002762    1.089984    0.067377
 H    1.781280   -0.826745   -0.094122
 H    3.142593    1.807495   -0.247432
 H    3.401054    0.468196    2.047942
 H    4.876505    1.063274    1.274749
 H    4.965962    0.741286   -1.444704
 H    3.546455   -0.042857   -2.145540
 H    5.628224   -1.478112   -0.957696
 H    3.983114   -2.082959   -0.932045
 H    3.865378   -1.801200    1.368102
 H    5.519871   -1.221264    1.403143
