39 
2ew6_ligand_xtb.xyz
 C    4.509620    2.275628    0.123794
 O    4.723772    3.613084   -0.013878
 C    3.390839    1.855969    0.836148
 C    3.140728    0.507322    0.994243
 C    3.990379   -0.450695    0.450465
 C    3.669927   -1.912515    0.567578
 C    2.846562   -2.380585   -0.647005
 N    1.614135   -1.644919   -0.773280
 C    0.426551   -2.137523   -0.324927
 C   -0.683436   -1.167261   -0.382352
 C   -1.908474   -1.525937    0.021471
 C   -3.110767   -0.722572    0.053031
 C   -4.303509   -1.303882    0.487567
 C   -5.478300   -0.581315    0.536246
 C   -5.496784    0.751580    0.152049
 O   -6.645689    1.465279    0.198166
 C   -4.303817    1.349215   -0.285022
 O   -4.381845    2.673197   -0.650632
 C   -3.134319    0.622548   -0.332950
 O    0.301167   -3.285725    0.060971
 C    5.102485   -0.020252   -0.260327
 C    5.366204    1.327498   -0.421966
 H    5.539036    3.764397   -0.506846
 H    2.735869    2.600607    1.260030
 H    2.273170    0.191155    1.556249
 H    3.088794   -2.099519    1.471765
 H    4.586384   -2.502170    0.613129
 H    2.574373   -3.431372   -0.527627
 H    3.431581   -2.255256   -1.563430
 H    1.698668   -0.658355   -0.962703
 H   -0.451999   -0.178963   -0.752448
 H   -2.015689   -2.546877    0.368620
 H   -4.304339   -2.339787    0.789900
 H   -6.399046   -1.030994    0.870852
 H   -6.452566    2.363663   -0.104967
 H   -3.512860    2.980884   -0.928493
 H   -2.229685    1.106838   -0.672593
 H    5.776032   -0.747560   -0.690215
 H    6.240758    1.647729   -0.973542
