39 
2ew6_ligand_ani.xyz
 C    4.772069    2.188543   -0.404629
 O    4.999855    3.481914   -0.766402
 C    4.213537    1.961154    0.852653
 C    3.960687    0.659344    1.265225
 C    4.250303   -0.437077    0.449316
 C    3.909110   -1.844393    0.877377
 C    2.728932   -2.416589    0.088157
 N    1.551306   -1.592883    0.260052
 C    0.310450   -2.112273    0.029113
 C   -0.806500   -1.133315    0.097342
 C   -2.054048   -1.518603   -0.185959
 C   -3.268174   -0.691033   -0.160776
 C   -4.456843   -1.233789   -0.654256
 C   -5.636520   -0.499870   -0.664969
 C   -5.646754    0.798989   -0.171372
 O   -6.792694    1.520945   -0.175354
 C   -4.460079    1.352382    0.331356
 O   -4.577087    2.638923    0.797827
 C   -3.287142    0.620131    0.336366
 O    0.140074   -3.302340   -0.205253
 C    4.807685   -0.186432   -0.805380
 C    5.073929    1.109387   -1.233783
 H    5.381438    3.498132   -1.653153
 H    3.981868    2.810768    1.487330
 H    3.520791    0.487201    2.247121
 H    3.658134   -1.857409    1.944716
 H    4.774172   -2.506461    0.744678
 H    2.475048   -3.419088    0.437907
 H    2.983966   -2.510016   -0.977458
 H    1.681255   -0.591311    0.273395
 H   -0.571778   -0.108001    0.374370
 H   -2.198526   -2.557669   -0.482138
 H   -4.460613   -2.249450   -1.043297
 H   -6.559438   -0.921058   -1.052411
 H   -6.594978    2.388499    0.208819
 H   -3.721012    2.941006    1.126236
 H   -2.383753    1.071285    0.743073
 H    5.037498   -1.022293   -1.464409
 H    5.511745    1.281171   -2.216386
