40 
2ewb_ligand_ani.xyz
 C   -3.823979   -0.911964   -0.831164
 C   -2.963433   -0.466641    0.174155
 C   -2.612850   -1.331046    1.213637
 C   -3.122328   -2.625045    1.247699
 C   -3.980888   -3.066346    0.245572
 C   -4.329265   -2.206785   -0.792607
 C    0.690240    2.402021   -0.661710
 C    0.532328    2.922936    0.763209
 C   -0.611648    2.545118   -1.469359
 C   -1.299145    1.182845   -1.332218
 C   -0.130253    0.188053   -1.261596
 C    1.856593   -1.447710    1.242241
 C    2.377453   -0.964927   -0.119174
 C    2.155815    0.539141   -0.211294
 C    3.874838   -1.227309   -0.292735
 O    0.509823    4.100080    1.024528
 O    0.377003    1.959123    1.686409
 O    2.982550    1.333603    0.217856
 N    0.982862    0.984522   -0.744839
 S   -2.341452    1.201908    0.173567
 S    4.191575   -3.018761   -0.309274
 H   -4.096938   -0.241926   -1.643837
 H   -1.932864   -0.988745    1.991428
 H   -2.846094   -3.290476    2.060922
 H   -4.378289   -4.077444    0.273622
 H   -4.998508   -2.544545   -1.579351
 H    1.497958    2.996082   -1.096764
 H   -0.360998    2.721098   -2.521682
 H   -1.228809    3.374598   -1.118965
 H   -1.949424    0.978696   -2.184419
 H   -0.350837   -0.665818   -0.612407
 H    0.100080   -0.196507   -2.263330
 H    1.913017   -2.537106    1.319095
 H    2.460472   -1.014277    2.047885
 H    0.816589   -1.143563    1.406992
 H    1.830471   -1.472375   -0.924470
 H    4.223506   -0.786726   -1.229715
 H    4.412331   -0.746059    0.527225
 H    0.257074    2.420478    2.532989
 H    5.513380   -2.943869   -0.518312
