40 
2ewb_ligand_xtb.xyz
 C   -2.467434   -2.012048   -1.078150
 C   -2.480312   -1.147697    0.008886
 C   -2.360672   -1.648069    1.299117
 C   -2.216693   -3.008723    1.498841
 C   -2.182563   -3.871547    0.415644
 C   -2.309683   -3.370265   -0.869368
 C   -0.092684    2.531933   -0.499148
 C   -0.679038    2.748611    0.897911
 C   -1.204514    2.464596   -1.546846
 C   -1.528362    0.974133   -1.588882
 C   -0.166437    0.312295   -1.403105
 C    1.825959   -1.107804    1.075721
 C    2.386742   -0.317319   -0.109906
 C    1.811219    1.094087   -0.054161
 C    3.905721   -0.223283   -0.034829
 O   -1.374073    3.686689    1.176215
 O   -0.331471    1.805229    1.765976
 O    2.390908    2.016869    0.483808
 N    0.594340    1.261385   -0.617990
 S   -2.672061    0.608000   -0.187156
 S    4.653020   -1.874550   -0.313884
 H   -2.580131   -1.628380   -2.080780
 H   -2.380117   -0.964888    2.134078
 H   -2.121135   -3.394094    2.502751
 H   -2.060039   -4.932427    0.571759
 H   -2.292922   -4.039475   -1.716637
 H    0.606607    3.358562   -0.669353
 H   -0.838005    2.794753   -2.519548
 H   -2.058286    3.076031   -1.259075
 H   -2.022507    0.673792   -2.512697
 H   -0.246268   -0.656826   -0.906461
 H    0.307475    0.162010   -2.383706
 H    2.238202   -2.114488    1.079802
 H    2.096591   -0.612018    2.005162
 H    0.741570   -1.176279    1.030345
 H    2.110351   -0.805923   -1.048613
 H    4.284195    0.447687   -0.806317
 H    4.216430    0.138467    0.943975
 H   -0.699180    2.005231    2.641286
 H    5.911037   -1.480323   -0.141740
