51 
2f10_ligand_ani.xyz
 C   -1.186870    0.682490   -0.868094
 N   -2.005004    1.537142   -0.021575
 C   -1.502904    2.524534    0.773866
 N   -2.489461    3.200880    1.490969
 N   -0.238791    2.758973    0.858043
 C   -0.356956   -0.383367   -0.064181
 C    1.159644   -0.387466   -0.366617
 C    1.969060   -1.315687    0.587986
 C    3.468910   -1.265320    0.243547
 C    4.264481   -2.469670    0.748574
 C    1.707456   -1.130996    2.097196
 C    1.944415    0.259199    2.693723
 N    1.661945    0.974645   -0.384920
 C    2.400337    1.453794   -1.423155
 C    2.707388    2.936592   -1.341592
 O    2.805508    0.749610   -2.339361
 C   -1.041220   -1.751072   -0.323487
 O   -0.220117   -2.525829   -1.187490
 C   -2.386263   -1.439077   -1.034255
 C   -3.540943   -1.331852   -0.059483
 O   -4.269515   -0.375719    0.104812
 O   -3.712741   -2.470020    0.638197
 C   -2.091036   -0.139263   -1.797048
 H   -0.525304    1.339180   -1.439820
 H   -2.950853    1.227540    0.162518
 H   -3.352320    3.351693    0.983435
 H   -2.158709    4.056978    1.913764
 H   -0.046630    3.536775    1.481493
 H   -0.482962   -0.115577    0.994041
 H    1.332375   -0.774097   -1.375897
 H    1.626652   -2.330996    0.338084
 H    3.912949   -0.346280    0.645927
 H    3.570323   -1.198911   -0.847028
 H    4.265737   -2.541150    1.842314
 H    3.858293   -3.407250    0.351285
 H    5.308280   -2.398367    0.425784
 H    2.355270   -1.843381    2.623123
 H    0.684067   -1.455511    2.328881
 H    1.170559    0.975651    2.400309
 H    2.916541    0.668836    2.398035
 H    1.932685    0.203846    3.788182
 H    1.167441    1.648287    0.208087
 H    3.145477    3.253237   -2.288687
 H    3.421823    3.136462   -0.534758
 H    1.803804    3.521914   -1.139183
 H   -1.207309   -2.291202    0.619492
 H   -0.521534   -3.440505   -1.132592
 H   -2.633608   -2.266772   -1.709995
 H   -4.476542   -2.317628    1.220510
 H   -1.538476   -0.381955   -2.711911
 H   -2.996925    0.406316   -2.074159
