54 
2f2c_ligand_ani.xyz
 O   -4.177747    1.581374   -1.132450
 C   -3.367555    2.721226   -1.024936
 C   -2.424063    2.690410    0.190246
 C   -2.121355    4.092820    0.737855
 C   -1.325409    4.010833    2.040584
 C   -1.429196    4.998931   -0.285885
 N   -1.177020    2.001135   -0.122140
 C   -1.034553    0.657199   -0.088452
 N   -2.164643   -0.075011   -0.038041
 C   -1.921907   -1.383490    0.000135
 C   -0.673258   -1.984155   -0.035389
 N   -0.784363   -3.362395   -0.000602
 C   -2.075493   -3.566221    0.057801
 N   -2.829179   -2.414248    0.067530
 C   -4.288312   -2.286912    0.146891
 C   -4.827152   -2.936581    1.417948
 C   -4.954274   -2.852064   -1.104041
 C    0.438433   -1.110478   -0.096294
 N    0.243669    0.202589   -0.125581
 N    1.671795   -1.692792   -0.119788
 C    2.967611   -1.153203   -0.076105
 C    4.017067   -2.043438    0.159359
 C    5.338405   -1.597969    0.206485
 N    6.375384   -2.479037    0.497604
 C    5.606971   -0.236880    0.015048
 C    4.546653    0.622261   -0.219774
Cl    4.888878    2.312576   -0.456766
 C    3.224059    0.204570   -0.273786
 H   -3.609311    0.812756   -0.934582
 H   -4.044360    3.581512   -0.934899
 H   -2.753235    2.872382   -1.929976
 H   -2.938982    2.110581    0.968050
 H   -3.097526    4.541263    0.973157
 H   -1.813481    3.349157    2.764813
 H   -1.224303    5.001726    2.495378
 H   -0.314726    3.623187    1.867980
 H   -2.027495    5.120960   -1.195696
 H   -1.261163    5.994755    0.137731
 H   -0.450859    4.602520   -0.582704
 H   -0.308193    2.510135   -0.054047
 H   -2.543805   -4.542600    0.091433
 H   -4.480936   -1.209655    0.197976
 H   -4.666673   -4.021086    1.407320
 H   -5.904232   -2.756142    1.500084
 H   -4.338369   -2.522869    2.303852
 H   -4.549014   -2.386791   -2.006114
 H   -6.032460   -2.662703   -1.069881
 H   -4.801833   -3.935341   -1.175071
 H    1.610303   -2.705161   -0.087117
 H    3.807302   -3.098265    0.322301
 H    7.287072   -2.179907    0.183194
 H    6.196832   -3.446036    0.265620
 H    6.624838    0.139160    0.056671
 H    2.416125    0.898830   -0.459868
