61 
2f4j_ligand_ani.xyz
 N    7.817664   -0.189022   -0.242737
 C    6.961161   -1.416891   -0.103775
 C    5.584372   -1.142946   -0.684167
 N    4.968984    0.011267   -0.036519
 C    5.785927    1.217977   -0.010248
 C    7.180156    0.931890    0.528110
 C    9.212327   -0.420155    0.153148
 C    3.604668    0.124393   -0.067847
 C    2.941537    1.360057    0.002626
 C    1.547061    1.323688    0.059649
 N    0.854463    0.183697    0.030216
 C    1.593407   -0.912518   -0.090699
 N    2.911474   -1.024035   -0.151043
 N    0.841144    2.490249    0.168026
 C   -0.538778    2.622199    0.139048
 C   -1.552937    1.711433    0.482575
 C   -2.727011    2.462754    0.257784
 N   -2.396197    3.687542   -0.155292
 N   -1.043996    3.795881   -0.221388
 C   -4.167915    2.078812    0.384456
 S    0.765160   -2.467070   -0.194996
 C   -0.932114   -2.007792    0.035376
 C   -1.571801   -2.349593    1.226388
 C   -2.918098   -2.077736    1.400652
 C   -3.662716   -1.473181    0.379663
 C   -3.017775   -1.107450   -0.806900
 C   -1.664631   -1.373382   -0.969508
 N   -5.036794   -1.273396    0.604984
 C   -5.995632   -0.801131   -0.257357
 O   -5.767502   -0.425874   -1.397431
 C   -7.367878   -0.709176    0.329905
 C   -8.094457    0.594773    0.091809
 C   -8.510020   -0.630739   -0.646121
 H    7.803516    0.080880   -1.245219
 H    6.889577   -1.659708    0.959991
 H    7.446020   -2.248706   -0.620544
 H    4.934462   -2.004927   -0.549553
 H    5.687708   -0.960019   -1.767339
 H    5.317548    1.944611    0.650697
 H    5.870188    1.661324   -1.016205
 H    7.811712    1.820359    0.454487
 H    7.127329    0.628930    1.577952
 H    9.799261    0.489714    0.007510
 H    9.255234   -0.697183    1.212664
 H    9.641686   -1.233576   -0.436524
 H    3.460236    2.310549   -0.020057
 H    1.314744    3.366005   -0.003025
 H   -1.411193    0.712848    0.836743
 H   -4.469744    1.437365   -0.452784
 H   -4.361637    1.528413    1.312096
 H   -4.785352    2.979112    0.369644
 H   -1.003205   -2.826777    2.020778
 H   -3.398934   -2.349380    2.338399
 H   -3.580612   -0.605312   -1.583197
 H   -1.164582   -1.061792   -1.883727
 H   -5.355563   -1.526225    1.527464
 H   -7.532324   -1.219986    1.275592
 H   -7.538181    1.340618   -0.469998
 H   -8.730230    0.975993    0.884825
 H   -9.441657   -1.113038   -0.366993
 H   -8.238883   -0.696945   -1.695406
