49 
2f6t_ligand_dft.xyz
 O   -6.069987   -1.722678    0.714642
 S   -4.750714   -1.155202    0.772252
 O   -3.688403   -1.678898    1.597567
 O   -4.955880    0.398387    1.194119
 N   -4.208323   -1.089082   -0.801736
 C   -3.050342   -0.297819   -1.083543
 C   -3.169548    0.925176   -1.745029
 C   -1.802491   -0.748866   -0.674481
 C   -0.664740    0.022593   -0.908773
 C    0.657200   -0.511097   -0.407253
 N    1.784388    0.377544   -0.675651
 C    3.061191   -0.029905   -0.408897
 O    4.009226    0.741451   -0.314919
 O    3.123637   -1.356995   -0.264588
 C    4.376908   -2.028311    0.071700
 C    5.394251   -1.833571   -1.050082
 C    4.895726   -1.529085    1.418955
 C    3.951275   -3.490789    0.167573
 C    1.541110    1.813966   -0.789373
 C    1.193686    2.440882    0.579864
 O    0.114713    2.966782    0.805908
 N    2.195313    2.332900    1.488571
 C    2.080767    2.858570    2.830840
 C    0.456543    2.074178   -1.824841
 C   -0.773615    1.243852   -1.572271
 C   -2.031846    1.676308   -1.993963
 H   -4.118636    0.728083    1.559749
 H   -4.998479   -0.913683   -1.415025
 H   -4.148063    1.291245   -2.043347
 H   -1.726577   -1.702116   -0.160658
 H    0.863490   -1.473713   -0.880319
 H    0.576976   -0.698734    0.673061
 H    6.284380   -2.435802   -0.840983
 H    4.972657   -2.165711   -2.004232
 H    5.689230   -0.787035   -1.136124
 H    4.112903   -1.611752    2.180186
 H    5.742746   -2.147873    1.732401
 H    5.225030   -0.491329    1.354796
 H    4.815368   -4.115397    0.413534
 H    3.533779   -3.833668   -0.783908
 H    3.194077   -3.621554    0.946673
 H    2.482525    2.252318   -1.128256
 H    3.084185    1.966469    1.168074
 H    2.463483    2.134210    3.555940
 H    1.024992    3.046058    3.030104
 H    2.630350    3.800081    2.944901
 H    0.198892    3.136410   -1.812444
 H    0.867855    1.841847   -2.814786
 H   -2.122285    2.634466   -2.498039
