49 
2f6t_ligand_ani.xyz
 O   -6.063624   -1.523452    0.739705
 S   -4.633928   -1.404838    0.602836
 O   -3.801785   -2.566908    0.416525
 O   -4.062524   -0.572264    1.872079
 N   -4.374650   -0.306948   -0.596051
 C   -3.118795    0.291751   -0.864696
 C   -3.113692    1.582143   -1.400838
 C   -1.917903   -0.382412   -0.669239
 C   -0.712047    0.242512   -0.990056
 C    0.587542   -0.507673   -0.816003
 N    1.724523    0.370636   -0.541467
 C    2.924515   -0.155285   -0.169217
 O    3.874148    0.529841    0.189001
 O    2.928165   -1.494006   -0.248189
 C    4.169404   -2.240775   -0.041375
 C    5.229671   -1.806016   -1.049156
 C    4.655485   -2.073760    1.394310
 C    3.756450   -3.684467   -0.296553
 C    1.643085    1.817075   -0.735112
 C    1.310020    2.572078    0.577803
 O    0.300779    3.253165    0.683676
 N    2.217795    2.423835    1.572479
 C    2.045266    3.085832    2.846458
 C    0.631984    2.158642   -1.824034
 C   -0.698264    1.529666   -1.520701
 C   -1.909748    2.191827   -1.717921
 H   -4.340685   -1.024859    2.687131
 H   -5.185350    0.288194   -0.712985
 H   -4.053727    2.103620   -1.561432
 H   -1.932979   -1.392454   -0.274722
 H    0.800467   -1.107848   -1.712668
 H    0.470222   -1.215327    0.011283
 H    6.094909   -2.473690   -0.976311
 H    4.829750   -1.863438   -2.066451
 H    5.554247   -0.782002   -0.852849
 H    3.849774   -2.315126    2.094445
 H    5.494080   -2.754466    1.576328
 H    4.984983   -1.048122    1.572171
 H    4.614106   -4.353274   -0.171403
 H    3.374727   -3.800285   -1.315669
 H    2.975236   -3.990384    0.406107
 H    2.646729    2.129772   -1.052678
 H    3.069987    1.913936    1.371235
 H    2.256138    2.390154    3.664930
 H    1.009855    3.424956    2.920451
 H    2.703509    3.957822    2.940738
 H    0.538026    3.244382   -1.900180
 H    1.024327    1.792182   -2.781954
 H   -1.908241    3.203176   -2.120001
