50 
2f6v_ligand_dft.xyz
 O    5.116975    1.517243    1.087129
 S    5.262311    1.282166   -0.513023
 O    4.195682    2.025296   -1.141550
 O    6.654704    1.472247   -0.814323
 N    4.964052   -0.342174   -0.720999
 C    3.734395   -0.877018   -0.223022
 C    3.719859   -1.671716    0.924005
 C    2.549100   -0.589895   -0.886489
 C    1.336888   -1.086730   -0.408175
 C    0.082472   -0.724903   -1.168958
 N   -1.125774   -1.292464   -0.583462
 C   -1.156743   -1.514269    0.856087
 C   -1.135125   -0.202071    1.672337
 O   -0.626632   -0.159228    2.782284
 N   -1.733966    0.866969    1.093756
 C   -1.877847    2.114793    1.813766
 C    0.002521   -2.420189    1.257703
 C    1.312763   -1.888351    0.734806
 C    2.514227   -2.176474    1.385301
 C   -2.230240   -1.320253   -1.379484
 O   -2.247539   -0.936371   -2.533458
 O   -3.313627   -1.813346   -0.730107
 C   -4.574271   -1.331968   -1.227243
 C   -4.807109    0.064350   -0.707489
 C   -4.419802    1.177318   -1.459548
 C   -4.548885    2.460460   -0.931523
 C   -5.317500    0.255399    0.578604
 C   -5.451001    1.535647    1.104567
 C   -5.066716    2.641068    0.348347
 H    4.198751    1.772077    1.272168
 H    5.792176   -0.867758   -0.458394
 H    4.644354   -1.875226    1.457089
 H    2.578112    0.029525   -1.777562
 H    0.150941   -1.082528   -2.199310
 H   -0.008146    0.369241   -1.221764
 H   -2.099763   -2.009847    1.089474
 H   -2.268662    0.745564    0.246199
 H   -0.945675    2.333624    2.337875
 H   -2.688006    2.067118    2.550443
 H   -2.095313    2.910334    1.099061
 H    0.033928   -2.493156    2.346882
 H   -0.186822   -3.421504    0.852667
 H    2.496846   -2.786516    2.284260
 H   -5.310976   -2.036080   -0.837238
 H   -4.571417   -1.369901   -2.317965
 H   -4.003121    1.030431   -2.451363
 H   -4.248816    3.319655   -1.524056
 H   -5.608790   -0.607647    1.172186
 H   -5.854826    1.672340    2.103135
 H   -5.170347    3.641377    0.758164
