47 
2f70_ligand_ani.xyz
 O   -6.670036   -1.099844   -1.498317
 S   -6.038757   -1.940882   -0.511497
 O   -7.141012   -2.930149    0.140046
 O   -4.877449   -2.720122   -0.874801
 N   -5.822289   -1.099140    0.904692
 C   -4.785688   -0.135702    1.016124
 C   -4.288355    0.149182    2.288743
 C   -3.307227    1.118594    2.444585
 C   -4.307980    0.561065   -0.091514
 C   -3.326967    1.535666    0.071978
 C   -2.821947    1.813533    1.341379
 C   -2.802578    2.297058   -1.126194
 N   -1.383209    2.089983   -1.358618
 C   -0.448109    2.972646   -0.897422
 O   -0.748404    4.017792   -0.340911
 C    0.995802    2.549226   -1.079371
 C    1.557123    2.018217    0.254715
 C    3.015110    1.630920    0.182459
 C    3.377638    0.341764   -0.201512
 C    4.718645   -0.020402   -0.319726
 N    5.018663   -1.338068   -0.762529
 S    6.169061   -2.293990   -0.042006
 O    5.741907   -2.288902    1.512182
 O    5.916139   -3.618976   -0.529173
 O    7.454995   -1.644884   -0.131745
 C    5.721751    0.910159   -0.065390
 C    5.362044    2.194108    0.328703
 C    4.025481    2.556077    0.455646
 H   -7.395379   -3.603371   -0.513624
 H   -5.932952   -1.704001    1.710395
 H   -4.675332   -0.386856    3.151890
 H   -2.919864    1.335879    3.436191
 H   -4.706237    0.355216   -1.081347
 H   -2.058795    2.580327    1.455326
 H   -2.928132    3.373433   -0.978697
 H   -3.353089    2.005354   -2.027033
 H   -1.080224    1.167664   -1.630897
 H    1.558322    3.434584   -1.388415
 H    1.083578    1.798991   -1.873255
 H    0.968095    1.148295    0.570872
 H    1.406569    2.794713    1.012879
 H    2.612554   -0.409475   -0.391959
 H    4.214406   -1.903815   -1.009583
 H    6.237791   -1.587766    1.966646
 H    6.762760    0.632567   -0.188769
 H    6.142436    2.920400    0.538586
 H    3.768902    3.564402    0.774581
