55 
2f71_ligand_ani.xyz
 O   -5.861424   -1.705793   -0.771407
 S   -4.706400   -0.901286   -0.502773
 O   -4.419702    0.033547   -1.729917
 O   -4.654832   -0.092011    0.713156
 N   -3.403803   -1.943549   -0.561417
 C   -2.137592   -1.586965    0.027792
 C   -2.006478   -1.415140    1.406713
 C   -1.032771   -1.449425   -0.795306
 C    0.213120   -1.118877   -0.255386
 C    0.372757   -0.995897    1.122996
 C    1.720314   -0.698971    1.745337
 C   -0.757890   -1.125739    1.938489
 C    1.389464   -0.909466   -1.183357
 N    2.457039   -0.172912   -0.524424
 C    2.879639   -0.730792    0.761349
 C    3.477639   -2.141983    0.580891
 N    4.665223   -2.150565   -0.074466
 C    5.341866   -3.382751   -0.411669
 O    2.912906   -3.152110    0.972218
 C    3.325116    0.690378   -1.145888
 O    4.501022    0.773729   -0.801391
 C    2.776678    1.637177   -2.193907
 C    2.501502    3.017108   -1.551123
 C    1.537089    2.943628   -0.383453
 C    0.227209    2.503181   -0.569375
 C   -0.643028    2.365536    0.510297
 C   -2.000943    1.820829    0.227871
 O   -2.747457    1.612284    1.295853
 O   -2.367847    1.571585   -0.917056
 C   -0.213024    2.680086    1.800939
 C    1.081287    3.145093    1.994402
 C    1.953835    3.259022    0.912758
 H   -3.665345    0.641639   -1.512366
 H   -3.737265   -2.859936   -0.278092
 H   -2.880852   -1.478637    2.050602
 H   -1.165169   -1.589237   -1.865012
 H    1.681920    0.304896    2.181775
 H    1.925991   -1.392216    2.564695
 H   -0.663536   -0.987107    3.013111
 H    1.049349   -0.365842   -2.067828
 H    1.760427   -1.883916   -1.538142
 H    3.681225   -0.070630    1.109748
 H    5.042878   -1.260980   -0.379221
 H    4.722331   -4.214029   -0.069039
 H    6.319625   -3.443393    0.078682
 H    5.481255   -3.467241   -1.495641
 H    1.858499    1.259296   -2.647376
 H    3.534350    1.737270   -2.976690
 H    3.453571    3.434810   -1.207163
 H    2.113679    3.690891   -2.324880
 H   -0.144051    2.247312   -1.557398
 H   -3.541031    1.073696    1.036350
 H   -0.890863    2.558164    2.641079
 H    1.423473    3.396953    2.997099
 H    2.976663    3.591935    1.078351
