25 
2f7i_ligand_ani.xyz
 O   -4.826494    1.057572   -0.132667
 C   -4.159034   -0.107523    0.026798
 O   -4.766329   -1.134556    0.181145
 C   -2.662274   -0.033774    0.000127
 C   -1.966508    0.970066   -0.675129
 C   -1.948632   -1.046290    0.639341
 C   -0.563477   -1.042409    0.633754
 C    0.140600   -0.020269   -0.014075
 C   -0.580502    0.982664   -0.674493
 C    1.632158   -0.001529   -0.005610
 C    2.410828   -1.145535   -0.219452
 F    1.793518   -2.318721   -0.469730
 C    3.795817   -1.154638   -0.211464
 C    4.472015    0.035062    0.025404
 C    3.760380    1.207534    0.244203
 C    2.376350    1.162912    0.220111
 F    1.723562    2.320626    0.451648
 H   -4.213796    1.804443   -0.090652
 H   -2.495390    1.740645   -1.233721
 H   -2.501238   -1.842516    1.127582
 H   -0.020626   -1.837455    1.135250
 H   -0.050850    1.781605   -1.184691
 H    4.315677   -2.090746   -0.384756
 H    5.556896    0.048615    0.039651
 H    4.251879    2.156494    0.429156
