75 
2f80_ligand_dft.xyz
 N   -6.621681    2.929055   -0.893059
 C   -5.928283    1.736011   -0.989731
 C   -6.123274    0.718666   -0.040027
 C   -5.372640   -0.442011   -0.090581
 C   -4.413902   -0.605607   -1.090425
 C   -4.215574    0.388783   -2.044564
 C   -4.972710    1.548340   -1.999356
 S   -3.365129   -2.033679   -1.063318
 O   -4.160462   -3.213884   -0.773701
 O   -2.542445   -1.968831   -2.271142
 N   -2.329653   -1.807922    0.218689
 C   -2.677755   -2.370505    1.524848
 C   -1.474770   -3.036749    2.203156
 C   -0.945903   -4.200942    1.366748
 C   -1.874123   -3.489827    3.608816
 C   -1.552409   -0.563758    0.223185
 C   -0.119793   -0.734884   -0.285475
 O   -0.046722   -0.830496   -1.690265
 C    0.787040    0.433573    0.120040
 N    2.113348    0.114014   -0.374867
 C    3.207056    0.705230    0.157033
 O    3.206964    1.430154    1.135702
 O    4.317550    0.366643   -0.540791
 C    5.529844    0.963904   -0.096150
 C    6.079282    0.391275    1.213994
 O    7.448945    0.749214    1.169123
 C    7.900942    0.580325   -0.142738
 O    8.463137   -0.700630   -0.321036
 C    8.044474   -1.215036   -1.571119
 C    6.606437   -0.727406   -1.735400
 C    6.663329    0.662190   -1.082350
 C    0.322971    1.820500   -0.385085
 C   -0.563807    2.715622    1.795585
 C   -1.580878    3.245712    2.583152
 C   -2.828349    3.519287    2.025870
 C   -3.048281    3.273006    0.673987
 C   -2.025990    2.743853   -0.109478
 C   -0.778507    2.444307    0.440602
 H   -7.482842    2.908945   -0.366800
 H   -6.689130    3.479204   -1.736739
 H   -6.865647    0.849193    0.742385
 H   -5.535429   -1.226880    0.641794
 H   -3.465904    0.246252   -2.815635
 H   -4.814715    2.325735   -2.742071
 H   -3.083059   -1.576933    2.171983
 H   -3.459255   -3.118685    1.372556
 H   -0.677849   -2.285568    2.304714
 H   -0.673546   -3.874887    0.358502
 H   -1.710318   -4.981111    1.267217
 H   -0.062896   -4.648065    1.835148
 H   -2.673597   -4.239482    3.562814
 H   -2.230499   -2.650963    4.217367
 H   -1.022644   -3.943156    4.126050
 H   -2.058783    0.198884   -0.374087
 H   -1.543031   -0.183671    1.250123
 H    0.298709   -1.641730    0.179173
 H   -0.750052   -1.426529   -2.001913
 H    0.852503    0.455597    1.212534
 H    2.178320   -0.334983   -1.277605
 H    5.378725    2.040582    0.017278
 H    5.943895   -0.700025    1.241292
 H    5.632744    0.836655    2.101744
 H    8.664756    1.345842   -0.316789
 H    8.142342   -2.302671   -1.534247
 H    8.687566   -0.836419   -2.381344
 H    6.277132   -0.692618   -2.776371
 H    5.923844   -1.383787   -1.189012
 H    6.774665    1.449134   -1.831891
 H    0.021447    1.726241   -1.433409
 H    1.198860    2.476999   -0.350504
 H    0.414125    2.516051    2.228700
 H   -1.398215    3.448124    3.634684
 H   -3.623339    3.928383    2.642584
 H   -4.016710    3.486520    0.230056
 H   -2.206525    2.542152   -1.162884
