61 
2fb8_ligand_dft.xyz
 C    0.961873    0.194921   -0.564464
 C   -1.125995    0.295903   -0.902664
 C   -2.500835   -0.128033   -1.108022
 C   -2.830729   -1.487903   -1.244052
 C   -7.162335   -1.009078    0.045326
 C    6.495987   -1.276121    1.736124
 C    6.059744   -2.145718    0.567888
 O    6.287167   -3.796462   -0.906156
 N    6.840791   -3.070401    0.155195
 C    5.515602   -0.082877    1.734266
 C    4.399055   -0.524523    0.816869
 C    3.183600    0.105376    0.604759
 C    4.729834   -1.700305    0.131653
 C    3.825159   -2.248864   -0.783837
 C    2.613243   -1.609263   -0.996740
 C    2.273931   -0.422999   -0.321893
 C    0.537355    1.545104   -0.512040
 C    1.283230    2.796371   -0.342729
 C    2.619493    2.961353   -0.729700
 C    3.239259    4.189974   -0.542298
 N    2.644274    5.266132   -0.018495
 C    1.361200    5.111308    0.326089
 C    0.650044    3.928550    0.187836
 N   -0.111781   -0.585991   -0.822740
 N   -0.801804    1.586733   -0.713744
 C   -4.156663   -1.901311   -1.276668
 C   -5.174906   -0.956895   -1.193795
 C   -4.874098    0.405498   -1.177957
 C   -3.546713    0.813343   -1.124319
 O   -6.487508   -1.408651   -1.108024
 C   -6.622106   -1.598168    1.361098
 N   -5.576450   -0.829359    2.168003
 C   -4.132694   -1.119254    1.858124
 C   -5.808238    0.646117    2.212457
 H   -2.018086   -2.206469   -1.275615
 H   -8.175353   -1.409332   -0.057887
 H   -7.260423    0.082096    0.117840
 H    7.543650   -0.979273    1.645990
 H    6.399851   -1.851342    2.664117
 H    6.995788   -4.414505   -1.117393
 H    5.993001    0.821381    1.337658
 H    5.154782    0.164428    2.737998
 H    2.929591    1.005039    1.157935
 H    4.071324   -3.159123   -1.315151
 H    1.891052   -2.020194   -1.694455
 H    3.168454    2.142584   -1.182019
 H    4.278877    4.320141   -0.839668
 H    0.873828    5.992223    0.742704
 H   -0.393343    3.866366    0.477308
 H   -4.417040   -2.954349   -1.340379
 H   -5.674645    1.142057   -1.211799
 H   -3.282010    1.865131   -1.081031
 H   -6.205091   -2.589683    1.173845
 H   -7.465070   -1.696546    2.051192
 H   -5.717079   -1.169127    3.120987
 H   -4.010418   -2.186712    1.685070
 H   -3.825229   -0.559089    0.978244
 H   -3.544410   -0.803283    2.721317
 H   -5.533658    1.061680    1.242884
 H   -6.856120    0.843043    2.443618
 H   -5.164484    1.068929    2.984720
