29 
2fhy_ligand_xtb.xyz
 C    2.344125    1.388492   -1.925925
 C    2.017157    2.563625   -1.276603
 C    1.748997    2.553834    0.088309
 C    1.806835    1.369503    0.807001
 C    2.129400    0.201811    0.146085
 C    2.402228    0.197075   -1.210917
 S    2.172366   -1.314854    1.086674
 O    1.710126   -1.067948    2.411567
 O    3.399300   -2.017854    0.913086
 N    1.004735   -2.256112    0.259178
 C   -0.250594   -1.761380    0.184559
 N   -0.539796   -0.502937    0.203256
 C   -1.911449   -0.464167    0.068257
 C   -2.791932    0.604386    0.022637
 C   -4.131222    0.291607   -0.133534
Cl   -5.283089    1.575251   -0.198434
 C   -4.593271   -1.019529   -0.242616
 C   -3.715838   -2.089792   -0.197797
 C   -2.380061   -1.787962   -0.039719
 O   -1.291006   -2.613940    0.039906
Cl    1.336249    4.014730    0.887081
Cl    2.790810   -1.271809   -1.987408
 H    2.549944    1.384310   -2.984236
 H    1.964443    3.490277   -1.826406
 H    1.587895    1.322623    1.861225
 H    1.101112   -3.259403    0.285370
 H   -2.445836    1.620206    0.106804
 H   -5.649987   -1.196113   -0.362624
 H   -4.061122   -3.106902   -0.279891
