46 
2fie_ligand_xtb.xyz
 C    4.364585   -0.319309   -2.015649
 C    4.853863    0.826709   -1.418632
 C    4.641170    1.049281   -0.062310
 C    3.943601    0.126650    0.701385
 C    3.454388   -1.010768    0.092112
 C    3.657429   -1.245812   -1.256603
 S    2.531182   -2.172129    1.086094
 O    2.356498   -1.639722    2.397228
 O    3.033579   -3.499599    0.954858
 N    1.026905   -2.177100    0.277592
 C    0.371517   -0.988954    0.236175
 N    0.958420    0.158722    0.181049
 C   -0.077210    1.070974    0.130695
 C   -0.042367    2.455111    0.055638
 C   -1.267850    3.105342   -0.002241
 C   -2.470950    2.384639    0.005879
 C   -2.523341    0.998671    0.081224
 C   -1.287629    0.363421    0.154277
 O   -0.976261   -0.974704    0.224420
Cl    5.239199    2.481694    0.670108
Cl    3.025116   -2.660511   -1.969440
 O   -1.417000    4.455501   -0.069865
 C   -0.260339    5.258513   -0.057202
 C   -5.143382   -1.588548    0.795966
 C   -6.190414   -1.038247    0.043646
 N   -6.057702    0.078698   -0.655045
 C   -4.893169    0.704660   -0.631104
 C   -3.788680    0.262867    0.087906
 C   -3.938600   -0.927635    0.811508
 O   -7.368836   -1.678684    0.036144
 C   -8.397910   -1.085089   -0.733006
 H    4.519845   -0.500674   -3.066990
 H    5.397006    1.553363   -2.002600
 H    3.747570    0.274549    1.750784
 H    0.455363   -3.003061    0.367915
 H    0.904300    2.965547    0.047300
 H   -3.384748    2.955275   -0.026587
 H    0.317443    5.114395    0.860872
 H    0.377380    5.057203   -0.923596
 H   -0.616640    6.286305   -0.102204
 H   -5.307812   -2.502706    1.342011
 H   -4.843964    1.598157   -1.238490
 H   -3.112794   -1.313671    1.389047
 H   -8.615328   -0.077157   -0.373408
 H   -8.107548   -1.025639   -1.784082
 H   -9.267819   -1.727370   -0.614283
