37 
2fj0_ligand_ani.xyz
 C    7.464761   -1.411871    0.322650
 C    6.254091   -1.130627   -0.564243
 C    5.202694   -0.262924    0.126201
 C    3.988408    0.029680   -0.751160
 C    2.933571    0.886338   -0.055074
 C    1.730475    1.180189   -0.949399
 C    0.710145    2.137825   -0.328643
 C    0.144523    1.699405    1.025270
 S   -0.635064    0.058920    1.062211
 C   -2.140154    0.403647    0.104465
 C   -3.118359   -0.763475    0.276868
 O   -3.527665   -0.927711    1.606183
 C   -4.389755   -0.521133   -0.528258
 F   -4.995660    0.619312   -0.168559
 F   -5.261901   -1.522074   -0.372936
 F   -4.098434   -0.433695   -1.843915
 H    7.962681   -0.479339    0.613936
 H    8.201175   -2.039367   -0.189821
 H    7.165948   -1.928215    1.242653
 H    5.791650   -2.079368   -0.870763
 H    6.580818   -0.634520   -1.488770
 H    4.874163   -0.761158    1.050424
 H    5.662586    0.686315    0.439335
 H    3.530817   -0.919078   -1.069758
 H    4.318420    0.532797   -1.672557
 H    3.388592    1.833461    0.272712
 H    2.603968    0.371738    0.858046
 H    2.083371    1.614414   -1.894271
 H    1.239246    0.231780   -1.208352
 H    1.179137    3.120529   -0.179834
 H   -0.114397    2.300251   -1.034943
 H    0.933733    1.677160    1.784124
 H   -0.594943    2.428578    1.377069
 H   -1.897330    0.530334   -0.953665
 H   -2.602613    1.321340    0.479026
 H   -2.672050   -1.684045   -0.132581
 H   -2.731073   -1.098838    2.129786
