110 
2fm2_ligand_ani.xyz
 C    4.730398   -1.391313    0.628786
 O    4.212454   -2.368560    0.124788
 O    5.988523   -0.966295    0.418106
 C    6.834097   -1.652464   -0.550492
 C    8.127593   -0.844761   -0.527519
 C    7.093255   -3.084737   -0.096542
 C    6.195941   -1.599693   -1.936412
 N    4.105282   -0.542500    1.519780
 C    2.659327   -0.621482    1.565571
 C    2.070309   -0.156360    2.927590
 C    0.553818   -0.392113    2.931846
 C    2.710534   -0.993798    4.042170
 C    2.342668    1.330466    3.190990
 C    2.118215    0.190490    0.375997
 O    2.614048    1.285615    0.112974
 N    1.095279   -0.329386   -0.356621
 C    0.739789   -1.759133   -0.395111
 C    0.506449    0.446881   -1.469310
 C   -0.220650   -0.573711   -2.319279
 C   -0.085696   -1.921898   -1.657493
 C    0.572270   -1.661522   -2.992500
 C   -0.070245   -2.317483   -4.200486
 C    2.085285   -1.582652   -3.097619
 C   -0.450209    1.543898   -0.931360
 O   -1.676090    1.385228   -0.939113
 N    0.188253    2.636638   -0.468947
 C   -0.350287    3.945813   -0.087170
 C   -0.445675    4.892737   -1.291076
 C    0.885070    5.130289   -1.965716
 C    1.175176    6.447570   -2.623236
 C    1.876506    6.071008   -1.346141
 O   -2.821987    3.683814   -0.113097
 C   -1.686639    3.919667    0.685447
 O   -0.615817    2.848923    2.576054
 N   -2.760626    2.266347    2.076894
 C   -2.911016    1.283480    3.125518
 C   -3.645121    0.021690    2.685326
 O   -4.195794   -0.703996    3.498003
 C   -1.613885    2.952496    1.876247
 N   -3.648636   -0.232506    1.347085
 C   -4.138689   -1.499912    0.863747
 C   -4.656277   -1.312240   -0.553448
 C   -3.745361   -1.144563   -1.595223
 C   -6.021246   -1.227229   -0.827203
 C   -4.187526   -0.918984   -2.895087
 C   -6.468890   -0.997557   -2.127318
 C   -5.552274   -0.846700   -3.165250
 C   -3.024206   -2.580182    0.967372
 O   -1.919409   -2.303699    1.418115
 N   -3.329623   -3.844052    0.548608
 C   -2.248387   -4.802536    0.387833
 C   -4.631284   -4.246861    0.051376
 H    7.936934    0.194219   -0.814860
 H    8.854123   -1.268859   -1.227956
 H    8.567782   -0.854437    0.474729
 H    7.477018   -3.090680    0.928741
 H    7.840793   -3.544448   -0.751938
 H    6.176969   -3.677494   -0.134575
 H    5.936263   -0.568538   -2.197932
 H    6.905643   -1.980495   -2.678319
 H    5.291246   -2.211861   -1.966402
 H    4.467617    0.399244    1.426739
 H    2.410111   -1.679335    1.450981
 H    0.138065   -0.114347    3.908823
 H    0.040438    0.208451    2.172448
 H    0.303189   -1.445833    2.759274
 H    3.795397   -0.856739    4.061610
 H    2.304148   -0.697412    5.015522
 H    2.501144   -2.062333    3.906233
 H    1.962808    1.603949    4.182238
 H    3.413782    1.563382    3.165666
 H    1.831332    1.965328    2.461686
 H    0.144707   -2.015661    0.486778
 H    1.642642   -2.381760   -0.418953
 H    1.315129    0.936208   -2.028987
 H   -1.142386   -0.254405   -2.796732
 H   -0.902602   -2.641685   -1.635445
 H    0.271353   -3.353953   -4.309752
 H   -1.164777   -2.331589   -4.122825
 H    0.189399   -1.778866   -5.119816
 H    2.375395   -1.072023   -4.023986
 H    2.518012   -2.591080   -3.126913
 H    2.549824   -1.048771   -2.261923
 H    1.195351    2.537641   -0.363765
 H    0.390723    4.341716    0.615814
 H   -1.173959    4.491581   -2.004629
 H   -0.851059    5.852272   -0.937122
 H    1.301427    4.255691   -2.464853
 H    0.410139    7.218702   -2.576722
 H    1.748393    6.448454   -3.546282
 H    1.577028    6.590963   -0.438235
 H    2.932362    5.818258   -1.389646
 H   -2.637786    2.840192   -0.578415
 H   -1.818945    4.923745    1.110856
 H   -3.532234    2.490986    1.464916
 H   -3.431925    1.679593    4.004315
 H   -1.902489    0.999083    3.444893
 H   -3.005704    0.270336    0.742547
 H   -4.963076   -1.793991    1.523660
 H   -2.679002   -1.178679   -1.378310
 H   -6.747100   -1.329190   -0.020151
 H   -3.463409   -0.796407   -3.698744
 H   -7.535320   -0.936245   -2.328627
 H   -5.903872   -0.668438   -4.177994
 H   -1.982410   -4.945197   -0.669166
 H   -2.545141   -5.773049    0.800753
 H   -1.378502   -4.430553    0.929422
 H   -5.433473   -3.785872    0.633096
 H   -4.729587   -5.330046    0.161546
 H   -4.767679   -3.989360   -1.006519
