56 
2fm5_ligand_ani.xyz
 F   -6.078902   -1.904406   -0.699745
 F   -7.976281   -0.926639   -1.133735
 C   -6.822779   -0.795199   -0.470161
 O   -6.223700    0.328956   -0.990001
 C   -3.413772   -1.654616    3.004902
 C   -4.795507   -2.249842    2.871709
 C   -4.148805   -1.585762    1.710199
 O   -4.704345   -0.340537    1.360847
 C   -4.880826    0.574625   -0.853364
 C   -4.115999    0.252931    0.276733
 C   -2.759833    0.556981    0.305762
 C   -2.157469    1.236135   -0.748778
 C   -2.930620    1.581298   -1.856368
 C   -4.280431    1.251669   -1.906045
 C   -0.702998    1.669927   -0.672275
 C    0.224533    0.513439   -0.415470
 C    1.342560   -0.945674    0.794272
 N    0.226676   -0.159963    0.697737
 S    1.507056    0.089424   -1.521568
 C    2.217465   -0.880049   -0.256499
 C    3.651754   -1.342221   -0.338681
 O    4.551093   -0.288462   -0.540996
 C    3.830312   -2.264789   -1.569919
 F    5.091202   -2.662282   -1.714136
 F    3.048156   -3.349151   -1.457407
 F    3.470096   -1.609427   -2.678850
 C    4.080648   -2.089093    0.942677
 F    5.312947   -2.578226    0.875687
 F    3.237776   -3.096220    1.216364
 F    4.037523   -1.226150    1.982664
 C   -0.502879    2.759969    0.423869
 C    0.887383    3.352071    0.473594
 C    1.191901    4.547487   -0.182791
 C    2.499611    5.025536   -0.141790
 C    1.901924    2.705018    1.158119
 C    3.482788    4.321697    0.527172
 O    4.094473    2.474748    1.731879
 N    3.187760    3.160306    1.166810
 H   -7.013264   -0.703242    0.603546
 H   -2.561777   -2.324234    3.092525
 H   -3.336058   -0.721002    3.557783
 H   -5.615080   -1.714210    3.342934
 H   -4.901077   -3.330674    2.856262
 H   -3.818523   -2.192429    0.866874
 H   -2.158795    0.237137    1.153007
 H   -2.475363    2.110456   -2.691172
 H   -4.900936    1.510438   -2.758730
 H   -0.434737    2.101407   -1.639402
 H    1.477301   -1.545520    1.681506
 H    4.421006    0.359438    0.171366
 H   -1.232748    3.554040    0.240002
 H   -0.761222    2.310189    1.390673
 H    0.420315    5.101097   -0.713251
 H    2.772462    5.950812   -0.636665
 H    1.764236    1.781284    1.708159
 H    4.523719    4.607464    0.595237
