116 
2fmb_ligand_dft.xyz
 C    6.065626    4.838541    0.194685
 C    6.030221    3.348302   -0.077279
 O    7.018222    2.743337   -0.476883
 N    4.843233    2.736198    0.151631
 C    4.635708    1.331879   -0.108565
 C    5.278059    0.451210    0.999107
 C    5.429172   -1.011980    0.652206
 C    4.618005   -1.943152    1.260329
 C    4.730801   -3.322804    0.972165
 C    5.652395   -3.761126    0.061173
 C    6.410088   -1.448632   -0.300214
 C    6.509327   -2.839648   -0.597065
 C    7.296148   -0.551110   -0.958984
 C    7.470558   -3.282536   -1.542052
 C    8.213687   -1.014956   -1.868331
 C    8.303781   -2.392447   -2.167362
 C    3.123242    1.125903   -0.201648
 O    2.348096    2.027129    0.130400
 N    2.705845   -0.058159   -0.677250
 C    1.299751   -0.410497   -0.690025
 C    0.790742   -0.604846    0.746697
 O    1.546062   -1.012051    1.635467
 C    1.076375   -1.659201   -1.574374
 C    1.682826   -2.935942   -0.983917
 C   -0.406391   -1.867177   -1.889018
 N   -0.503487   -0.311314    0.923449
 C   -1.227893   -0.451184    2.191962
 C   -1.460289   -1.930089    2.516914
 C   -2.559632   -2.552044    1.637493
 C   -2.313043   -4.038734    1.382558
 C   -3.942404   -2.327247    2.254336
 C   -0.593126    0.341432    3.360355
 C   -0.017587    1.701969    2.907670
 O    0.375644   -0.384648    4.072426
 C   -0.926841    2.441896    1.947157
 O   -2.124085    2.615248    2.164716
 N   -0.339092    2.876552    0.801257
 C   -1.144000    3.433794   -0.261982
 C   -0.245674    3.847454   -1.430692
 C   -1.015731    4.509845   -2.570397
 C   -2.166573    2.390683   -0.726479
 O   -1.808150    1.264283   -1.099716
 N   -3.448952    2.771241   -0.731254
 C   -4.526435    1.835251   -0.951004
 C   -4.625852    0.846308    0.241384
 C   -5.605398   -0.280396    0.045303
 C   -6.798276   -0.280809    0.729949
 C   -7.738155   -1.324512    0.580515
 C   -7.473941   -2.368241   -0.264730
 C   -5.305695   -1.364295   -0.842713
 C   -6.256798   -2.415331   -0.993714
 C   -4.083078   -1.449518   -1.567146
 C   -5.962552   -3.500391   -1.860223
 C   -3.832309   -2.512558   -2.397331
 C   -4.779537   -3.549897   -2.548810
 C   -5.805446    2.665135   -1.088406
 O   -5.869544    3.803545   -0.652304
 N   -6.832782    2.049112   -1.723398
 H    6.855451    5.042383    0.922253
 H    6.329476    5.356916   -0.731087
 H    5.120420    5.237458    0.572485
 H    4.016359    3.253464    0.418824
 H    5.091037    1.076766   -1.072384
 H    4.682228    0.556413    1.911609
 H    6.259444    0.889825    1.201035
 H    3.850550   -1.611653    1.951566
 H    4.071782   -4.024343    1.474426
 H    5.745797   -4.819387   -0.169324
 H    7.258043    0.514539   -0.747773
 H    7.537388   -4.346257   -1.756619
 H    8.881099   -0.312808   -2.358929
 H    9.036928   -2.742474   -2.888014
 H    3.385886   -0.806127   -0.729075
 H    0.752854    0.427576   -1.135663
 H    1.590573   -1.433522   -2.518104
 H    1.213227   -3.187358   -0.026869
 H    2.760473   -2.860232   -0.808503
 H    1.522624   -3.772201   -1.672155
 H   -0.512109   -2.650582   -2.646938
 H   -0.872854   -0.951236   -2.267579
 H   -0.962817   -2.188060   -1.002052
 H   -0.986326    0.147281    0.152089
 H   -2.193446    0.028541    2.005855
 H   -0.509645   -2.459463    2.392029
 H   -1.722307   -2.030723    3.576789
 H   -2.541170   -2.048289    0.660146
 H   -3.094411   -4.459852    0.739784
 H   -1.346100   -4.198457    0.890712
 H   -2.306565   -4.601655    2.324351
 H   -4.134608   -1.263864    2.440178
 H   -4.020885   -2.851847    3.214782
 H   -4.737739   -2.696896    1.598862
 H   -1.407490    0.527405    4.067941
 H    0.968226    1.540091    2.460387
 H    0.128410    2.318329    3.800420
 H    0.998791   -0.716604    3.399974
 H    0.597429    2.554235    0.568924
 H   -1.678821    4.310946    0.121454
 H    0.516561    4.530546   -1.039876
 H    0.280344    2.957897   -1.795595
 H   -1.561879    5.392795   -2.220062
 H   -1.741483    3.822250   -3.017288
 H   -0.330494    4.830661   -3.360174
 H   -3.729847    3.645903   -0.302719
 H   -4.338164    1.284043   -1.877131
 H   -4.876291    1.423265    1.137161
 H   -3.621950    0.444327    0.400888
 H   -7.019949    0.538668    1.408696
 H   -8.666783   -1.293578    1.142144
 H   -8.189559   -3.177253   -0.385893
 H   -3.329545   -0.673217   -1.461196
 H   -6.695992   -4.295878   -1.964376
 H   -2.894468   -2.557918   -2.941297
 H   -4.564045   -4.384863   -3.208604
 H   -7.734592    2.501518   -1.688590
 H   -6.815511    1.052606   -1.882778
