48 
2fme_ligand_xtb.xyz
 C   -1.763369   -0.698635   -0.239630
 C   -0.782788   -1.810630    0.006223
 C   -2.322049    1.435459   -1.184349
 C   -3.590377    1.339296   -0.652866
 C   -3.977822    0.221692    0.076109
 C   -3.061053   -0.811900    0.275513
 C    0.670083    1.609094    0.627461
 C    1.447037    2.487653    1.371240
 C    2.366626    3.312758    0.731208
 C    2.494847    3.250663   -0.642247
 O    1.340804    2.567371    2.724784
 C   -3.436795   -2.045784    1.043989
 N    0.587159   -1.443654   -0.311835
 C    0.676692   -0.809651   -1.608781
 C   -0.013946    0.561248   -1.557040
 C   -1.400320    0.417767   -0.985319
 C    0.802025    1.545811   -0.753282
 C    1.720241    2.374986   -1.383857
 C   -5.371953    0.162197    0.630925
 C    1.516918   -2.393349    0.094611
 N    2.836635   -2.069262   -0.069717
 C    3.354958   -0.723282   -0.013532
 C    3.811903   -3.096537    0.220805
 O    1.169843   -3.456337    0.579335
 H   -1.084426   -2.695676   -0.580442
 H   -0.798986   -2.111255    1.056773
 H   -2.034657    2.306630   -1.755058
 H   -4.296114    2.142443   -0.808513
 H   -0.043786    0.968939    1.127643
 H    2.959893    3.990472    1.323385
 H    3.204680    3.893860   -1.140465
 H    0.666934    1.950235    3.035009
 H   -4.505841   -2.100358    1.216241
 H   -3.131384   -2.939853    0.503712
 H   -2.934861   -2.059676    2.012062
 H    0.160541   -1.431120   -2.358562
 H    1.716361   -0.704980   -1.913593
 H   -0.090011    0.938310   -2.583191
 H    1.828263    2.335954   -2.457937
 H   -5.356982    0.017464    1.710138
 H   -5.899690    1.088537    0.418167
 H   -5.933962   -0.657503    0.184021
 H    2.550151   -0.007611    0.122841
 H    4.041807   -0.632576    0.833917
 H    3.909565   -0.478503   -0.924694
 H    3.326179   -4.066687    0.150706
 H    4.623965   -3.034591   -0.505494
 H    4.225480   -2.983449    1.228166
