48 
2fme_ligand_ani.xyz
 C   -1.790869   -0.712662   -0.236241
 C   -0.846149   -1.873859    0.005079
 C   -2.270891    1.424335   -1.225046
 C   -3.559302    1.373204   -0.716034
 C   -3.991030    0.285497    0.046756
 C   -3.096368   -0.768291    0.285496
 C    0.656678    1.852397    0.591843
 C    1.476682    2.760983    1.262050
 C    2.511770    3.409472    0.592128
 C    2.721884    3.134099   -0.752569
 O    1.298374    3.052138    2.581984
 C   -3.520481   -1.966727    1.106296
 N    0.544139   -1.528201   -0.257930
 C    0.726519   -0.850381   -1.540092
 C    0.045210    0.519235   -1.512278
 C   -1.370204    0.383055   -0.990335
 C    0.871970    1.570711   -0.756511
 C    1.914203    2.223270   -1.425016
 C   -5.403044    0.277201    0.584316
 C    1.437512   -2.533647    0.117341
 N    2.782696   -2.238930   -0.040706
 C    3.294758   -0.921041    0.304125
 C    3.692114   -3.323371    0.283653
 O    1.060273   -3.614109    0.549209
 H   -1.151101   -2.737762   -0.609675
 H   -0.916632   -2.209780    1.042528
 H   -1.952553    2.284394   -1.810330
 H   -4.249651    2.192622   -0.908353
 H   -0.158152    1.359922    1.122908
 H    3.130672    4.117685    1.135297
 H    3.524458    3.638464   -1.285264
 H    0.557190    2.528219    2.912393
 H   -4.585661   -1.951154    1.346661
 H   -3.320690   -2.906433    0.577995
 H   -2.975177   -2.015079    2.058484
 H    0.280617   -1.455330   -2.346780
 H    1.790377   -0.750749   -1.767467
 H   -0.011782    0.879083   -2.546682
 H    2.098935    2.009966   -2.476340
 H   -5.424011    0.212882    1.678711
 H   -5.924574    1.195376    0.299161
 H   -5.985931   -0.565568    0.193161
 H    2.519513   -0.163065    0.208233
 H    3.663501   -0.894644    1.340811
 H    4.128667   -0.668520   -0.360460
 H    3.314586   -4.260990   -0.124963
 H    4.668533   -3.107649   -0.158596
 H    3.816086   -3.447086    1.369701
