33 
2fqx_ligand_dft.xyz
 O    2.356043   -1.556631    1.606942
 C    3.491372   -1.554767    0.766367
 C    3.350290   -0.433327   -0.247603
 O    2.249709   -0.704604   -1.126135
 C    3.077842    0.950461    0.346579
 O    3.566434    1.925373   -0.542888
 C    1.549457    0.998921    0.380860
 O    1.109994    2.328927    0.291341
 C    1.184010    0.153058   -0.858704
 N   -0.024730   -0.634781   -0.637421
 C   -0.188082   -2.001102   -0.681184
 N   -1.413109   -2.380455   -0.433921
 C   -2.095013   -1.206145   -0.212086
 C   -3.474198   -0.972877    0.122464
 O   -4.400698   -1.734396    0.292456
 N   -3.698853    0.438010    0.268065
 C   -2.774068    1.432352    0.137273
 N   -3.196952    2.710853    0.392840
 N   -1.521083    1.212187   -0.169883
 C   -1.245897   -0.117856   -0.329827
 H    2.332499   -2.382423    2.101347
 H    3.584448   -2.501359    0.216147
 H    4.419365   -1.398795    1.338401
 H    4.256827   -0.392910   -0.859318
 H    3.517441    1.062792    1.346800
 H    2.939541    2.663811   -0.487515
 H    1.176434    0.498877    1.280138
 H    0.144019    2.280645    0.155791
 H    1.003882    0.812196   -1.717178
 H    0.645754   -2.647655   -0.905954
 H   -4.639399    0.662110    0.567291
 H   -4.161747    2.935874    0.200260
 H   -2.542108    3.424485    0.107472
