33 
2fqx_ligand_ani.xyz
 O    2.871319   -1.489404    1.633871
 C    3.837092   -1.409869    0.604327
 C    3.403707   -0.343326   -0.384628
 O    2.201410   -0.771734   -1.034974
 C    3.088622    1.015138    0.246188
 O    3.430068    2.019409   -0.684622
 C    1.573466    0.961184    0.423999
 O    1.035722    2.255466    0.402931
 C    1.144335    0.126860   -0.787131
 N   -0.065968   -0.641480   -0.552813
 C   -0.237850   -2.014022   -0.625449
 N   -1.461986   -2.389682   -0.404558
 C   -2.153322   -1.223588   -0.175603
 C   -3.550000   -1.002130    0.129567
 O   -4.452772   -1.795406    0.283254
 N   -3.801621    0.393813    0.248781
 C   -2.876644    1.397423    0.141116
 N   -3.330822    2.670943    0.345867
 N   -1.605009    1.186098   -0.089202
 C   -1.305738   -0.129568   -0.260093
 H    3.027921   -2.291480    2.145334
 H    3.938367   -2.362407    0.065320
 H    4.826257   -1.135053    1.004820
 H    4.178701   -0.220116   -1.149606
 H    3.609352    1.170865    1.203906
 H    2.779507    2.728355   -0.561580
 H    1.314760    0.419453    1.341634
 H    0.067520    2.164536    0.298728
 H    0.993180    0.779486   -1.657978
 H    0.601843   -2.658592   -0.849165
 H   -4.754719    0.604440    0.520145
 H   -4.280890    2.866111    0.065432
 H   -2.671941    3.381302    0.059030
