32 
2fqy_ligand_dft.xyz
 O    1.968992   -1.713201    1.557211
 C    3.105592   -1.824892    0.725642
 C    3.110099   -0.669110   -0.258484
 O    1.981252   -0.776909   -1.138460
 C    3.020514    0.724861    0.366986
 O    3.640904    1.643222   -0.499894
 C    1.513093    0.979592    0.400811
 O    1.257331    2.355376    0.349040
 C    1.047666    0.220894   -0.860895
 N   -0.263430   -0.387453   -0.659299
 C   -0.642152   -1.701316   -0.784059
 N   -1.908233   -1.912603   -0.526150
 C   -2.389956   -0.659459   -0.206856
 C   -3.658894   -0.183850    0.172204
 N   -4.723362   -1.001176    0.298374
 N   -3.813840    1.124561    0.431970
 C   -2.748647    1.925149    0.334519
 N   -1.500898    1.608516   -0.009335
 C   -1.384453    0.296630   -0.279716
 H    1.903465   -2.504082    2.102511
 H    4.039893   -1.794857    1.307757
 H    3.090523   -2.762426    0.151623
 H    4.013838   -0.731667   -0.872548
 H    3.466905    0.754206    1.370085
 H    3.125565    2.461846   -0.424177
 H    1.073477    0.505833    1.284778
 H    0.286768    2.449565    0.255934
 H    0.972191    0.916957   -1.705334
 H    0.078235   -2.452338   -1.070280
 H   -5.627797   -0.594785    0.474445
 H   -4.652744   -1.962107    0.006006
 H   -2.926978    2.972031    0.566182
