72 
2ftd_ligand_ani.xyz
 N    4.255471    0.314069    1.788043
 C    4.866778    0.350853    0.612731
 C    5.849403    1.264589    0.250772
 C    6.225042    2.208099    1.196516
 C    0.229753   -2.779741   -0.899865
 C    0.599193   -0.332313   -1.695193
 C   -2.174354   -2.604638   -0.468779
 C   -3.232807   -2.019684    0.489229
 C   -5.619016   -2.514413    1.365832
 C   -6.059375   -1.078660    1.659925
 C   -2.272386    0.208872    0.884578
 C    5.602913    2.193122    2.441931
 C    4.632593    1.231839    2.684421
 S    4.395421   -0.885867   -0.597216
 O    4.862334   -0.405137   -1.883300
 O    4.802892   -2.191102   -0.084668
 N    2.749235   -0.868979   -0.577212
 C    2.064191   -1.622101    0.466589
 C    1.475134   -2.954051   -0.031390
 C    0.433660   -1.807582   -2.078199
 C    2.039678    0.109231   -1.405009
 O    2.395868   -3.691701   -0.797357
 C    2.077219    1.501792   -0.778357
 N   -0.894601   -2.415618   -0.060239
 O   -2.467851   -3.176816   -1.507876
 C   -4.603727   -2.630670    0.218518
 C   -6.842911   -3.378302    1.050629
 N   -3.248373   -0.569611    0.365666
 O   -1.352685   -0.215619    1.586228
 C   -2.360535    1.631873    0.516562
 C   -1.577641    2.680978    0.847945
 C   -2.114196    3.814788    0.134557
 C   -3.207371    3.319729   -0.586353
 O   -3.361682    1.984159   -0.359423
 C   -1.785973    5.174661    0.028956
 C   -2.563513    5.975105   -0.790490
 C   -3.653929    5.447580   -1.500466
 C   -4.000129    4.105450   -1.413448
 H    6.286004    1.217716   -0.741948
 H    6.990533    2.943638    0.965811
 H    0.014149   -3.762328   -1.327316
 H    0.242067    0.291496   -2.523395
 H   -0.043170   -0.084564   -0.841164
 H   -2.916626   -2.233141    1.517616
 H   -5.141179   -2.919539    2.271717
 H   -6.470094   -0.609066    0.756620
 H   -5.238017   -0.457438    2.027285
 H   -6.851093   -1.073678    2.418165
 H    5.864759    2.911905    3.212023
 H    4.125845    1.193382    3.646048
 H    2.784363   -1.832712    1.261469
 H    1.282449   -0.990991    0.906488
 H    1.166447   -3.534623    0.856211
 H   -0.450963   -1.914583   -2.714463
 H    1.301599   -2.154005   -2.655242
 H    2.586887    0.116848   -2.355054
 H    3.286289   -3.542016   -0.439555
 H    3.080016    1.938337   -0.829560
 H    1.783376    1.453718    0.276332
 H    1.392403    2.174057   -1.305604
 H   -0.743734   -1.820000    0.747480
 H   -4.448476   -3.691793   -0.006490
 H   -5.018787   -2.192683   -0.701424
 H   -7.350531   -3.009334    0.150023
 H   -7.567099   -3.357203    1.872790
 H   -6.565121   -4.423670    0.872930
 H   -3.846366   -0.160825   -0.339204
 H   -0.737806    2.648141    1.530010
 H   -0.942689    5.587610    0.576488
 H   -2.328068    7.031980   -0.888874
 H   -4.241270    6.106886   -2.134590
 H   -4.842115    3.694618   -1.961647
