29 
2fu8_ligand_ani.xyz
 O   -1.496490   -0.420415    1.738468
 C   -2.358842   -0.801322    0.773598
 O   -3.289468   -1.538486    0.980849
 C   -2.093064   -0.130110   -0.566801
 C   -2.855112    1.204258   -0.665460
 C   -1.832696    2.238043   -0.182368
 C   -0.501171    1.707218   -0.719595
 N   -0.705349    0.258302   -0.753273
 C    0.244507   -0.720658   -0.739231
 O   -0.081628   -1.898512   -0.671384
 C    1.704426   -0.288603   -0.744161
 C    2.551627   -1.345194   -1.452110
 C    2.114364   -0.088618    0.727235
 S    3.676625    0.805308    0.965796
 H   -1.772626   -0.896131    2.539305
 H   -2.417200   -0.844774   -1.326311
 H   -3.122294    1.386505   -1.711604
 H   -3.779109    1.190975   -0.079624
 H   -1.805403    2.257264    0.910382
 H   -2.050690    3.247585   -0.538940
 H    0.342667    1.975670   -0.074754
 H   -0.286881    2.087510   -1.727130
 H    1.802505    0.671229   -1.265687
 H    2.232935   -1.462183   -2.492032
 H    3.611134   -1.066937   -1.453831
 H    2.437720   -2.312980   -0.955398
 H    1.363158    0.504423    1.262277
 H    2.155766   -1.058757    1.235080
 H    4.496216   -0.163229    0.528332
