59 
2fv5_ligand_xtb.xyz
 C    7.252346   -0.985108    0.453261
 C    6.837575   -2.137682    1.059298
 C    5.478056   -2.342712    1.336860
 C    4.548279   -1.394204    1.009138
 C    4.939798   -0.193840    0.384857
 C    6.318925    0.010907    0.100958
 N    6.780280    1.127287   -0.497366
 C    6.489631    3.283270   -1.505865
 C    5.938643    2.064156   -0.836610
 C    4.549576    1.958387   -0.595756
 C    4.042753    0.842813    0.014068
 C    2.566594    0.721020    0.283924
 C    0.743891   -0.670549   -0.375229
 O    2.065719   -0.368519   -0.467543
 C    0.311835   -1.748576   -1.150175
 C   -1.008880   -2.135191   -1.133911
 C   -1.946273   -1.469476   -0.345833
 C   -1.506444   -0.406597    0.425203
 C   -0.180484   -0.003223    0.416704
 C   -3.985931   -1.748992   -1.787058
 C   -3.395845   -1.926419   -0.375043
 C   -3.512765   -3.352981    0.163943
 C   -4.270597   -0.993962    0.458580
 O   -4.351953   -0.954381    1.674312
 C   -4.580368   -0.340781   -1.759047
 C   -5.763534    0.903999    0.150453
 C   -4.792074    2.028141    0.531752
 N   -4.241818    1.854478    1.741535
 O   -3.218254    2.730743    2.122596
 O   -4.514385    2.985088   -0.171527
 C   -6.811096    1.400474   -0.831929
 N   -4.964974   -0.192052   -0.372171
 H    8.291078   -0.803185    0.226263
 H    7.553813   -2.900372    1.328243
 H    5.167585   -3.260947    1.813788
 H    3.504335   -1.569583    1.217197
 H    6.053592    3.396126   -2.497261
 H    6.247815    4.173317   -0.927159
 H    7.567760    3.193457   -1.595801
 H    3.899872    2.767458   -0.897095
 H    2.058751    1.649734   -0.010402
 H    2.397507    0.555346    1.358887
 H    1.037416   -2.265443   -1.758363
 H   -1.313718   -2.971641   -1.745588
 H   -2.191144    0.125573    1.064826
 H    0.108402    0.831886    1.035058
 H   -3.239366   -1.858432   -2.569968
 H   -4.777356   -2.482132   -1.950416
 H   -4.548654   -3.685193    0.132667
 H   -2.904180   -4.039786   -0.417630
 H   -3.177588   -3.373005    1.198196
 H   -3.835950    0.417792   -2.032390
 H   -5.443486   -0.239325   -2.417302
 H   -6.238343    0.526427    1.064153
 H   -4.242541    0.972893    2.247610
 H   -3.211408    3.393016    1.401801
 H   -6.333914    1.922170   -1.657641
 H   -7.407094    0.573667   -1.209276
 H   -7.468291    2.101505   -0.324356
