67 
2fv9_ligand_ani.xyz
 C    1.344899    1.780271   -0.902802
 C    1.825164    2.772166    0.180242
 C    0.937525    4.022664    0.269075
 C    0.853572    4.851446   -1.011516
 C   -0.718150    0.958504    0.240935
 C    2.228328    0.518465   -0.947618
 C    2.821033   -1.612216    0.090790
 C    3.656907   -1.802247    1.369864
 C   -1.680661   -0.996037   -1.896653
 C   -2.232346   -0.885214   -0.494924
 C    1.861816   -2.784651   -0.047011
 C    3.295198    3.131408   -0.064324
 N   -0.081989    1.470382   -0.837498
 O    3.035104    0.367156   -1.856757
 O    0.660528   -2.736671    0.099427
 O   -0.598092   -2.303818   -3.485215
 C    4.568049   -0.619893    1.723477
 C    5.550207   -0.285986    0.600473
 C    5.313553   -0.909848    3.025718
 N   -1.238778   -2.225323   -2.254134
 O   -1.672329   -0.076485   -2.722054
 C   -2.179219    0.564172    0.024850
 C   -2.955568    0.742072    1.339126
 O   -0.169015    0.782240    1.330032
 N    2.101506   -0.363661    0.077164
 O    2.511840   -3.923924   -0.315398
 C   -4.395927    0.292310    1.257117
 C   -5.299262    0.930891    0.402823
 C   -6.621524    0.505629    0.315284
 C   -7.062756   -0.572850    1.077353
 C   -6.173434   -1.220740    1.928708
 C   -4.852304   -0.788604    2.015675
 H    1.506732    2.234450   -1.883951
 H    1.745788    2.265509    1.146799
 H    1.334686    4.652139    1.075765
 H   -0.070389    3.729475    0.582944
 H    1.838481    5.215983   -1.324891
 H    0.211949    5.725704   -0.860234
 H    0.427870    4.274019   -1.839721
 H    3.470269   -1.613141   -0.790805
 H    2.974149   -1.995614    2.210430
 H    4.258261   -2.712009    1.247917
 H   -3.277644   -1.219414   -0.531171
 H   -1.695539   -1.560389    0.180754
 H    3.940684    2.249683    0.011600
 H    3.441302    3.555634   -1.064835
 H    3.642441    3.865176    0.670888
 H   -0.549536    1.328458   -1.726566
 H   -0.710014   -1.391949   -3.824229
 H    3.929519    0.260055    1.889535
 H    5.039707   -0.032822   -0.336246
 H    6.222712   -1.131671    0.402057
 H    6.173006    0.571324    0.882036
 H    4.616615   -1.119562    3.845378
 H    5.937560   -0.059110    3.322275
 H    5.969644   -1.782378    2.910966
 H   -0.747593   -2.791200   -1.565801
 H   -2.601738    1.207195   -0.756320
 H   -2.913179    1.799645    1.629203
 H   -2.432622    0.188549    2.124971
 H    1.387256   -0.194648    0.781747
 H    1.844291   -4.629479   -0.354817
 H   -4.965362    1.776299   -0.198345
 H   -7.310019    1.017647   -0.353052
 H   -8.095291   -0.905876    1.007641
 H   -6.505935   -2.064634    2.528941
 H   -4.158122   -1.301098    2.680160
