51 
2fvd_ligand_ani.xyz
 N    5.990322   26.163110    7.001068
 C    5.441172   26.391305    5.662341
 C    4.717489   27.730896    5.635820
 C    3.650536   27.816955    6.726681
 C    4.273045   27.518568    8.097038
 C    5.000706   26.180319    8.081588
 N    3.020309   29.125404    6.662507
 C    1.819209   29.422062    7.225857
 N    1.087818   28.408287    7.726649
 C   -0.081588   28.763992    8.253624
 C   -0.563667   30.063884    8.304525
 C    0.290580   31.045283    7.714617
 N    1.477709   30.718239    7.202589
 C   -1.868866   30.437373    8.888015
 O   -2.483176   31.427929    8.513163
 C   -2.469725   29.575041    9.966676
 C   -3.824222   29.267957    9.912952
 C   -4.433334   28.481496   10.884818
 C   -3.702131   28.013850   11.955828
 C   -2.351882   28.341181   12.064810
 C   -1.741766   29.127252   11.090369
 O   -0.445273   29.526784   11.143903
 C    0.331347   29.086804   12.235665
 F   -4.573909   29.700855    8.898727
 F   -5.736262   28.197020   10.760216
 N   -0.055064   32.341277    7.678560
 S    7.309712   25.175321    7.154043
 C    6.684487   23.525515    6.893983
 O    7.752008   25.262268    8.533701
 O    8.203177   25.482630    6.052309
 H    4.744737   25.579945    5.393274
 H    6.264473   26.383920    4.945591
 H    4.255400   27.885878    4.655005
 H    5.449075   28.536886    5.789022
 H    2.865542   27.073042    6.536865
 H    3.490487   27.501895    8.862440
 H    4.980824   28.315079    8.361429
 H    5.520509   26.017040    9.027619
 H    4.276821   25.359651    7.942971
 H    3.582827   29.932621    6.437091
 H   -0.678881   27.949922    8.663076
 H   -4.196378   27.402305   12.703584
 H   -1.790262   27.975711   12.916573
 H   -0.070584   29.453643   13.188900
 H    1.328570   29.501426   12.082244
 H    0.392856   27.991127   12.265607
 H    0.548550   32.954065    7.153218
 H   -1.022076   32.586253    7.845285
 H    5.938404   23.290108    7.657661
 H    7.532998   22.842972    6.986299
 H    6.257349   23.447652    5.890606
