46 
2fxs_ligand_dft.xyz
 C   -0.158472    2.659587    0.350169
 O    0.971165    1.871246   -0.036682
 C    2.052820    2.002133    0.756780
 O    2.099716    2.768227    1.686364
 C    3.164865    1.083719    0.350687
 C    4.405411    1.645973    0.016358
 O    4.492418    2.995207   -0.006811
 C    5.485487    0.836772   -0.310468
 C    5.345906   -0.547109   -0.295366
 O    6.426462   -1.283252   -0.613624
 C    4.106584   -1.104751    0.040255
Cl    3.987685   -2.858445    0.041721
 C    3.007991   -0.308720    0.367875
 C    1.673430   -0.926777    0.707067
 C    0.860424   -1.228197   -0.567458
 C   -0.591590   -1.470864   -0.195401
 O   -0.922851   -2.389403    0.534467
 N   -1.457185   -0.541531   -0.711901
 C   -2.842537   -0.435851   -0.514793
 C   -3.599916   -1.336187    0.231211
 C   -4.971651   -1.137914    0.367207
 O   -5.707629   -2.015440    1.093420
 C   -5.586612   -0.046327   -0.243277
 O   -6.951384    0.081353   -0.086827
 C   -7.328269    1.102180    0.827960
 C   -4.838092    0.851950   -0.997435
 C   -3.473591    0.657599   -1.132468
 O   -2.660635    1.500557   -1.855517
 H   -0.501449    2.367109    1.346012
 H    0.104372    3.719669    0.361080
 H   -0.930844    2.457584   -0.391481
 H    5.394072    3.254717   -0.230768
 H    6.449492    1.256248   -0.581833
 H    6.197360   -2.222980   -0.562640
 H    1.105950   -0.245727    1.345707
 H    1.803337   -1.849859    1.275968
 H    1.247691   -2.131576   -1.048475
 H    0.965443   -0.397080   -1.269423
 H   -1.062707    0.175347   -1.303114
 H   -3.124217   -2.183612    0.704285
 H   -6.633724   -1.754887    0.972191
 H   -6.888814    0.925663    1.817652
 H   -7.013644    2.090067    0.470362
 H   -8.417257    1.073575    0.896516
 H   -5.335046    1.690037   -1.479730
 H   -3.201588    2.148747   -2.319980
