46 
2fxs_ligand_ani.xyz
 C   19.954840   35.887654    7.763617
 O   19.823939   35.125458    6.550713
 C   18.626530   34.549549    6.367224
 O   17.750799   34.662583    7.219360
 C   18.452979   33.766779    5.118444
 C   17.368569   32.847289    5.096351
 O   16.469431   32.740877    6.078064
 C   17.198531   31.975323    4.022441
 C   18.058250   32.013515    2.943563
 O   17.847463   31.129016    1.946382
 C   19.089309   32.966614    2.926172
Cl   20.128900   32.954774    1.512972
 C   19.278053   33.872936    3.966381
 C   20.377305   34.901477    3.843091
 C   21.730479   34.332056    4.310518
 C   22.782538   35.421766    4.367083
 O   23.277397   35.878814    3.349784
 N   23.073768   35.855201    5.635546
 C   23.996304   36.844365    6.024793
 C   24.746231   37.596763    5.126972
 C   25.633154   38.564102    5.584415
 O   26.393273   39.310003    4.728931
 C   25.783198   38.792563    6.957484
 O   26.687077   39.697921    7.439894
 C   26.356312   41.059841    7.199911
 C   25.039602   38.032654    7.855343
 C   24.152885   37.069422    7.400328
 O   23.395576   36.291420    8.243697
 H   19.184711   36.662173    7.817295
 H   20.946706   36.340592    7.728319
 H   19.863144   35.234419    8.635682
 H   16.668202   33.437233    6.741391
 H   16.382006   31.263652    4.042385
 H   18.510037   31.262780    1.252303
 H   20.109657   35.784763    4.423316
 H   20.471236   35.216063    2.800016
 H   22.072654   33.579065    3.595171
 H   21.617483   33.848090    5.285538
 H   22.596679   35.399957    6.400271
 H   24.628678   37.418197    4.063793
 H   26.192349   39.035888    3.824863
 H   26.304370   41.278404    6.129055
 H   27.154355   41.650681    7.655782
 H   25.400216   41.316012    7.675541
 H   25.176124   38.210374    8.919754
 H   23.598700   36.536920    9.155049
