28 
2g01_ligand_dft.xyz
 C   -3.239806    2.818589   -0.081715
 C   -2.841935    1.381769   -0.037477
 N   -3.731320    0.410928   -0.066226
 N   -3.023291   -0.765439   -0.008006
 C   -3.752667   -2.016296   -0.011726
 C   -1.703127   -0.520030    0.043219
 N   -0.670489   -1.414682    0.184419
 O   -0.907880   -2.727893   -0.201005
 C    0.644916   -0.944542    0.075307
 C    1.711553   -1.847734    0.013092
 C    3.011953   -1.377480   -0.032529
 C    3.257686   -0.003291   -0.011123
Cl    4.907082    0.571283   -0.057793
 C    2.212313    0.897133    0.036695
 C    0.892187    0.441588    0.073563
 C   -0.209144    1.456236    0.066826
 O    0.014946    2.659582    0.070835
 C   -1.521361    0.856159    0.031312
 H   -4.327033    2.904130   -0.139970
 H   -2.879920    3.343282    0.808133
 H   -2.788249    3.314691   -0.945788
 H   -3.572253   -2.576492    0.910818
 H   -4.807553   -1.750366   -0.066107
 H   -3.478807   -2.629342   -0.871768
 H   -0.957408   -3.220872    0.631914
 H    1.517563   -2.912610   -0.018782
 H    3.840284   -2.075401   -0.085935
 H    2.376751    1.969389    0.037341
