44 
2gbg_ligand_xtb.xyz
 C   14.365644   38.976633  -82.973638
 C   16.388644   37.697140  -83.271314
 C   14.769431   36.857875  -81.666831
 C   14.846489   39.150299  -84.421344
 C   14.644608   40.171345  -82.187239
 C   16.329696   38.813613  -84.316102
 C   17.629800   37.790699  -82.376166
 C   13.443190   37.001046  -80.905070
 N   15.146317   37.839615  -82.508329
 O   15.464595   35.867207  -81.495564
 C   14.927327   41.148187  -81.551199
 N   17.770379   39.128537  -81.818776
 C   13.581210   38.077391  -79.809726
 N   13.038305   35.731817  -80.326920
 C   15.248351   42.319763  -80.768390
 C   12.402075   38.046853  -78.813445
 C   14.852570   37.907770  -78.958435
 C   13.014654   37.704997  -77.454108
 C   14.425667   38.276227  -77.540861
 H   13.293636   38.756955  -82.924166
 H   16.385865   36.700022  -83.730172
 H   14.665023   40.156834  -84.792933
 H   14.332376   38.433508  -85.064105
 H   16.758498   38.503077  -85.266155
 H   16.883072   39.671079  -83.933089
 H   17.559098   37.000807  -81.615172
 H   18.511156   37.593159  -82.993589
 H   12.645323   37.300862  -81.596266
 H   16.937429   39.366989  -81.288289
 H   18.561546   39.154684  -81.185344
 H   13.614843   39.049783  -80.306711
 H   12.959775   35.035148  -81.061215
 H   13.771333   35.403305  -79.704893
 H   14.994441   42.151413  -79.721901
 H   16.313823   42.533900  -80.846620
 H   14.685936   43.177885  -81.134672
 H   11.923708   39.026221  -78.775515
 H   11.662064   37.308779  -79.113251
 H   15.192989   36.871961  -78.981911
 H   15.667049   38.534202  -79.323915
 H   12.442463   38.119961  -76.625285
 H   13.063926   36.622819  -77.332126
 H   15.095385   37.870565  -76.783394
 H   14.395290   39.362070  -77.429857
