35 
2gc8_ligand_xtb.xyz
 C    2.714582    2.648236   -0.306474
 C    2.391568    1.191912   -0.205464
 C    1.143612    0.695273   -0.541582
 C    0.843156   -0.650243   -0.440198
 C    1.780909   -1.578049    0.023406
 C    3.054555   -1.084530    0.344989
 C    3.338135    0.259583    0.228386
Cl    4.925790    0.797738    0.640120
 N    1.470437   -2.886743    0.227580
 S   -0.804934   -1.092043   -0.943247
 O   -0.979060   -2.528860   -0.892338
 O   -1.134181   -0.440235   -2.175849
 N   -1.725024   -0.367071    0.243856
 C   -1.915332   -1.103105    1.481341
 C   -3.204597   -0.531521    2.070125
 C   -4.021611   -0.189402    0.824677
 C   -2.943945    0.311816   -0.146433
 C   -2.729769    1.816792   -0.086841
 O   -3.868067    2.487415   -0.299085
 O   -1.679604    2.365692    0.096532
 H    1.829369    3.208027   -0.591632
 H    3.495603    2.814619   -1.047969
 H    3.080381    3.023811    0.648149
 H    0.365448    1.356876   -0.885660
 H    3.814326   -1.768186    0.691874
 H    2.228929   -3.543488    0.293502
 H    0.600422   -3.204139   -0.181017
 H   -2.014769   -2.172461    1.258409
 H   -1.049324   -0.957151    2.130743
 H   -2.982398    0.376119    2.631852
 H   -3.708059   -1.240551    2.723666
 H   -4.788417    0.560956    1.002690
 H   -4.488040   -1.087718    0.420428
 H   -3.180291    0.084318   -1.192422
 H   -3.700848    3.444125   -0.302428
