35 
2gc8_ligand_dft.xyz
 C    2.340334    2.767996    0.019414
 C    2.207112    1.270424   -0.029922
 C    0.976214    0.660329   -0.210267
 C    0.820312   -0.728884   -0.252815
 C    1.928718   -1.591548   -0.111886
 C    3.182927   -0.972569    0.061741
 C    3.302158    0.401507    0.095866
Cl    4.903849    1.071701    0.320402
 N    1.853316   -2.954803   -0.092390
 S   -0.809260   -1.319003   -0.624821
 O   -0.872594   -2.733699   -0.247633
 O   -1.211277   -0.932676   -1.969185
 N   -1.752302   -0.416902    0.388973
 C   -1.717965   -0.647697    1.836869
 C   -2.852098    0.251377    2.326084
 C   -3.889085    0.126346    1.204963
 C   -3.028169    0.110848   -0.078701
 C   -2.866881    1.516569   -0.643003
 O   -3.954487    1.867473   -1.347745
 O   -1.933501    2.260446   -0.462916
 H    1.361974    3.238743   -0.106785
 H    3.002789    3.135604   -0.771754
 H    2.762629    3.101931    0.973617
 H    0.088580    1.280361   -0.310128
 H    4.066175   -1.590847    0.184385
 H    2.695871   -3.479420   -0.257994
 H    0.969518   -3.396277   -0.303085
 H   -1.906720   -1.703537    2.068764
 H   -0.740773   -0.366713    2.239900
 H   -2.498995    1.284558    2.404976
 H   -3.238816   -0.060151    3.299114
 H   -4.631774    0.927190    1.197686
 H   -4.418748   -0.828085    1.283516
 H   -3.477917   -0.510459   -0.856519
 H   -3.804761    2.773640   -1.661704
