66 
2ggu_ligand_dft.xyz
 C   -5.695725    0.586688    1.589508
 C   -5.748542   -0.551482    0.573847
 C   -4.334699   -1.026957    0.298903
 C   -3.472755    0.150295   -0.124224
 C   -3.522544    1.245312    0.945078
 C   -2.699866    2.477637    0.574310
 O   -6.992467    1.052692    1.746461
 O   -6.480368   -1.661060    1.045757
 O   -4.292666   -2.002230   -0.727462
 O   -2.152421   -0.320984   -0.313556
 O   -4.881237    1.632325    1.117100
 O   -2.831371    2.828662   -0.779558
 C   -1.668720   -0.341726   -1.628333
 C   -0.876659   -1.634075   -1.815503
 C    0.354823   -1.606532   -0.914897
 C    1.186650   -0.358571   -1.189822
 C    0.282443    0.869437   -1.046312
 C    0.958634    2.172455   -1.406310
 O   -1.625223   -2.800031   -1.577390
 O    1.140146   -2.768514   -1.148561
 O    2.226552   -0.233903   -0.245929
 O   -0.848835    0.761038   -1.900500
 O    0.058968    3.205678   -1.039262
 C    3.457691   -0.828907   -0.571484
 C    3.912540   -1.702207    0.604260
 C    4.249784   -0.814195    1.791405
 C    5.277549    0.230987    1.394322
 C    4.762247    1.026784    0.196895
 C    5.804153    1.972124   -0.382113
 O    2.939536   -2.626288    1.022878
 O    4.790306   -1.559738    2.864401
 O    5.504450    1.143641    2.445962
 O    4.415812    0.145999   -0.878168
 O    6.908775    1.271649   -0.904243
 H   -5.284973    0.205408    2.544753
 H   -6.183953   -0.146424   -0.351586
 H   -3.920991   -1.450399    1.228279
 H   -3.858117    0.586425   -1.051566
 H   -3.134012    0.843818    1.897822
 H   -3.048073    3.299941    1.213866
 H   -1.652913    2.281961    0.830136
 H   -6.979140    1.769695    2.392908
 H   -7.379791   -1.355555    1.221680
 H   -4.956326   -2.670723   -0.506588
 H   -1.942837    2.790887   -1.168037
 H   -2.492407   -0.284704   -2.345374
 H   -0.535167   -1.662243   -2.858598
 H    0.037104   -1.579025    0.136194
 H    1.592134   -0.401569   -2.211762
 H   -0.044546    0.928115   -0.000196
 H    1.163695    2.184645   -2.485815
 H    1.907086    2.250926   -0.861865
 H   -2.437720   -2.565621   -1.090770
 H    0.508368   -3.504657   -1.164826
 H    0.389672    4.047203   -1.370984
 H    3.356236   -1.431997   -1.479470
 H    4.830985   -2.220036    0.284837
 H    3.329479   -0.300575    2.107827
 H    6.210813   -0.273631    1.103436
 H    3.879245    1.599514    0.512067
 H    5.324522    2.593862   -1.154464
 H    6.174919    2.625471    0.410535
 H    2.368864   -2.859267    0.267646
 H    4.155177   -2.263228    3.054107
 H    5.681094    0.606790    3.230110
 H    6.539869    0.601102   -1.494931
