76 
2gj5_ligand_ani.xyz
 O    5.582386    2.741481   -2.138589
 C    6.882882   -0.123057   -0.031911
 C    6.934940    1.048262   -1.017192
 C    5.532509    1.567152   -1.340987
 C    4.787462    1.937103   -0.061675
 C    4.712032    0.785931    0.957534
 C    3.753348   -0.349205    0.530385
 C    2.291025    0.089173    0.403893
 C    1.300088   -1.076613    0.254216
 C    1.580427   -1.907446   -1.009262
 C    6.114079    0.261083    1.212906
 C    0.528855   -2.990931   -1.282466
 C   -0.911810   -2.453068   -1.252515
 C   -1.208887   -1.696198    0.048267
 C   -0.143479   -0.577453    0.175528
 C   -0.677156    0.325990    1.287990
 C   -2.215215    0.263495    1.115860
 C   -2.506855   -0.838094    0.059582
 C   -1.185668   -2.652074    1.249789
 C    6.637914    0.172626    2.433327
 C   -3.849555   -1.546857    0.297026
 C   -4.143853   -2.633612   -0.745077
 C   -5.028356   -0.548939    0.379923
 C   -5.278608    0.280612   -0.883369
 C   -6.561189    1.119529   -0.836049
 C   -6.672934    2.147023    0.299368
 C   -8.036034    2.839331    0.235658
 C   -5.548992    3.184012    0.259846
 H    6.054556    2.524258   -2.952555
 H    6.390950   -0.979689   -0.515722
 H    7.893777   -0.451642    0.235818
 H    7.451582    0.751864   -1.940792
 H    7.509764    1.874107   -0.577234
 H    4.973245    0.779544   -1.877444
 H    3.784238    2.297311   -0.318342
 H    5.314955    2.785814    0.392668
 H    4.327766    1.189651    1.905214
 H    4.096510   -0.784299   -0.417402
 H    3.822747   -1.153038    1.276457
 H    2.026597    0.675019    1.296263
 H    2.177307    0.765683   -0.457265
 H    1.418807   -1.719280    1.141890
 H    1.611868   -1.217994   -1.867602
 H    2.572776   -2.370027   -0.949710
 H    0.725692   -3.454717   -2.256812
 H    0.634684   -3.796286   -0.543330
 H   -1.608363   -3.285161   -1.398352
 H   -1.054938   -1.766884   -2.100327
 H   -0.212568    0.000062   -0.764976
 H   -0.379679   -0.057084    2.272356
 H   -0.289754    1.348457    1.213730
 H   -2.628937    1.226664    0.794823
 H   -2.698347    0.022465    2.070684
 H   -2.551362   -0.361022   -0.933828
 H   -1.415000   -2.143438    2.193091
 H   -0.213170   -3.135915    1.372204
 H   -1.924648   -3.451272    1.122677
 H    7.646632   -0.203537    2.593015
 H    6.084124    0.471623    3.320562
 H   -3.799786   -2.026990    1.285382
 H   -5.193301   -2.946841   -0.694100
 H   -3.958892   -2.272156   -1.764246
 H   -3.536718   -3.530856   -0.594546
 H   -4.884193    0.126974    1.234022
 H   -5.937855   -1.123871    0.608270
 H   -4.417552    0.935334   -1.072459
 H   -5.343591   -0.386386   -1.752548
 H   -7.425179    0.441245   -0.769077
 H   -6.670260    1.654237   -1.792029
 H   -6.615461    1.614869    1.259996
 H   -8.139037    3.396286   -0.704417
 H   -8.158955    3.550957    1.059720
 H   -8.857797    2.115763    0.286778
 H   -5.674820    3.926601    1.055885
 H   -4.561617    2.727122    0.388078
 H   -5.547695    3.717983   -0.699331
