54 
2gtk_ligand_ani.xyz
 C    4.632861    3.061216    2.242392
 C    5.443158    2.059320    1.443840
 O    4.686552    1.729813    0.289578
 C    5.213830    0.683773   -0.473529
 C    6.445199    1.145425   -1.256383
 O    6.970588    2.228671   -1.197217
 O    6.914119    0.149245   -2.031361
 C    4.112999    0.150231   -1.409982
 C    2.979914   -0.511820   -0.658811
 C    2.030322    0.279621    0.024865
 C    2.882812   -1.894268   -0.624308
 C    1.839185   -2.501586    0.092691
 C    1.441848   -3.861105    0.336893
 C    0.326355   -3.808634    1.122473
 C    0.906593   -1.681077    0.762921
 C    0.983274   -0.283540    0.731528
 N   -0.002310   -2.499860    1.400706
 C   -1.209602   -2.040271    2.053999
 C   -2.200719   -1.415701    1.116091
 C   -2.588525   -1.844827   -0.115211
 C   -2.278183   -3.018199   -0.972295
 O   -3.468220   -0.914870   -0.593601
 N   -2.831580   -0.223179    1.408364
 C   -3.577875    0.020418    0.374154
 C   -4.462543    1.176534    0.181584
 C   -5.476683    1.256130   -0.784185
Cl   -5.843010   -0.058090   -1.859729
 C   -6.252889    2.405728   -0.901611
 C   -6.033175    3.483675   -0.053612
 C   -5.043588    3.414727    0.921839
 C   -4.274999    2.266544    1.036562
 H    3.676160    2.622291    2.542415
 H    4.434158    3.952455    1.640529
 H    5.175059    3.362067    3.145078
 H    5.627331    1.146004    2.032314
 H    6.414754    2.473342    1.148570
 H    5.550668   -0.139874    0.178879
 H    7.692905    0.501963   -2.493668
 H    4.568797   -0.556464   -2.109068
 H    3.736765    0.996839   -1.996240
 H    2.139080    1.359242   -0.001937
 H    3.608935   -2.508129   -1.154299
 H    1.928302   -4.755391   -0.030478
 H   -0.285089   -4.607711    1.527578
 H    0.245759    0.334231    1.238682
 H   -0.956119   -1.301113    2.821122
 H   -1.644287   -2.906819    2.567769
 H   -3.018080   -3.127710   -1.769569
 H   -2.253743   -3.936583   -0.375144
 H   -1.286693   -2.916113   -1.425782
 H   -7.029038    2.443241   -1.660245
 H   -6.641956    4.377489   -0.153488
 H   -4.873263    4.252663    1.591376
 H   -3.503735    2.186121    1.796881
