54 
2gtk_ligand_dft.xyz
 C    4.883352    3.478742    1.687853
 C    5.602979    2.217731    1.255245
 O    4.978743    1.752425    0.073038
 C    5.489148    0.559232   -0.432977
 C    6.797077    0.803205   -1.185579
 O    7.298761    1.876013   -1.406342
 O    7.351270   -0.359804   -1.587499
 C    4.426410   -0.063189   -1.354807
 C    3.218526   -0.535952   -0.580587
 C    2.264049    0.398516   -0.116316
 C    3.060930   -1.882809   -0.293492
 C    1.957389   -2.310816    0.459372
 C    1.481254   -3.590157    0.903147
 C    0.327083   -3.361232    1.595100
 C    1.032715   -1.349695    0.921714
 C    1.168054    0.011554    0.631547
 N    0.047625   -2.011210    1.623277
 C   -1.155589   -1.404152    2.141014
 C   -2.117532   -0.967501    1.073899
 C   -2.146171   -1.213121   -0.263428
 C   -1.304245   -1.936589   -1.253401
 O   -3.244344   -0.563435   -0.755317
 N   -3.195190   -0.172987    1.419636
 C   -3.826632    0.029001    0.303178
 C   -5.026373    0.858528    0.137272
 C   -5.963812    0.747615   -0.898476
Cl   -5.832639   -0.463751   -2.150919
 C   -7.070961    1.591079   -0.952119
 C   -7.264627    2.552786    0.030190
 C   -6.352298    2.669894    1.075339
 C   -5.250036    1.832210    1.122063
 H    3.825466    3.268404    1.871450
 H    4.956469    4.241073    0.907258
 H    5.326697    3.875519    2.606451
 H    5.534588    1.443563    2.035972
 H    6.665298    2.422796    1.068292
 H    5.708438   -0.157425    0.375984
 H    8.166318   -0.124289   -2.059111
 H    4.879017   -0.900503   -1.893836
 H    4.146256    0.696411   -2.093672
 H    2.411611    1.448017   -0.348118
 H    3.787746   -2.607207   -0.654324
 H    1.947223   -4.551709    0.741812
 H   -0.337217   -4.056377    2.090578
 H    0.435663    0.738801    0.968784
 H   -0.890826   -0.535311    2.755075
 H   -1.636415   -2.123451    2.811954
 H   -1.935247   -2.334243   -2.052897
 H   -0.770066   -2.764380   -0.782228
 H   -0.559414   -1.268164   -1.699217
 H   -7.780032    1.478890   -1.764818
 H   -8.130174    3.205709   -0.022000
 H   -6.495904    3.416705    1.849407
 H   -4.527254    1.909434    1.926879
