35 
2gz7_ligand_dft.xyz
 C   -3.992639   -0.885008    0.975476
 C   -4.090189    0.414020    0.498000
 C   -3.064624    0.958404   -0.269015
 C   -1.941947    0.173206   -0.539179
 C   -1.878030   -1.135821   -0.066841
 C   -2.889505   -1.700253    0.702457
 C   -2.787343   -3.115421    1.197943
 S   -0.544450    0.701369   -1.526475
 O   -0.450908    2.144021   -1.621002
 O   -0.493350   -0.130260   -2.716116
 C    0.935181    0.223234   -0.544309
 C    1.445414    1.064074    0.451931
 C    2.705262    0.900764    0.995248
 C    3.505234   -0.146164    0.550745
 C    3.042288   -1.002758   -0.431413
 C    1.769653   -0.810689   -0.957906
 N    1.383222   -1.823678   -1.964528
 O    2.040312   -1.854644   -2.982145
 O    0.512487   -2.612042   -1.638993
 C    4.886414   -0.308861    1.142190
 F    5.485663   -1.419918    0.700504
 F    5.660764    0.735752    0.826790
 F    4.820910   -0.373920    2.478832
 N    0.645213    2.161903    1.029185
 O    1.228452    3.202069    1.261404
 O   -0.517297    1.912503    1.289875
Cl   -3.284016    2.577260   -0.843469
Cl   -5.307499   -1.502476    1.937645
 H   -4.965671    1.012468    0.719546
 H   -1.016381   -1.748001   -0.314907
 H   -2.810969   -3.151646    2.292132
 H   -3.625778   -3.719001    0.835708
 H   -1.858786   -3.577776    0.855098
 H    3.052694    1.594295    1.752339
 H    3.658212   -1.813909   -0.801195
