49 
2h02_ligand_xtb.xyz
 O   -5.710539    0.854247    0.817292
 S   -5.794153   -0.287676   -0.016728
 O   -6.932260   -1.144395    0.035400
 O   -5.623315    0.203338   -1.523241
 N   -4.476323   -1.276617    0.153841
 C   -3.241149   -0.726133    0.503505
 C   -2.896277    0.530579    0.022790
 C   -2.341542   -1.425664    1.299222
 C   -1.104601   -0.881986    1.590588
 C   -0.742913    0.369027    1.108002
 C   -1.662485    1.068542    0.334526
 C    0.618622    0.946795    1.379190
 C    1.654904    0.442220    0.344531
 C    2.952153    1.239754    0.462622
 O    3.579024    1.684658   -0.459198
 O    3.328803    1.355813    1.737664
 C    4.570534    2.012307    1.956688
 C    1.062538    0.665457   -1.047342
 O    0.917415    1.962640   -1.295933
 C    0.376149    2.298490   -2.566882
 O    0.730114   -0.204980   -1.805906
 C    2.004365   -1.049446    0.550734
 C    3.371401   -1.374321    0.008070
 C    3.566745   -1.592283   -1.349667
 C    4.834238   -1.840853   -1.844445
 C    5.922570   -1.877319   -0.989472
 C    5.735660   -1.672953    0.366340
 C    4.467234   -1.425173    0.860830
 H   -6.041326   -0.420890   -2.118368
 H   -4.716558   -2.145434    0.601291
 H   -3.602945    1.076730   -0.578516
 H   -2.611165   -2.398464    1.683940
 H   -0.420193   -1.437958    2.213280
 H   -1.410505    2.053894   -0.028306
 H    0.963725    0.675131    2.377435
 H    0.572773    2.035271    1.312974
 H    5.375916    1.461061    1.466979
 H    4.540181    3.025272    1.551554
 H    4.717124    2.033918    3.033444
 H    1.054484    1.977600   -3.359076
 H   -0.590275    1.808651   -2.705336
 H    0.267387    3.379888   -2.575158
 H    1.244878   -1.646091    0.042397
 H    1.982345   -1.268776    1.618744
 H    2.718963   -1.560696   -2.016559
 H    4.974247   -2.004674   -2.902794
 H    6.912795   -2.066111   -1.377379
 H    6.579410   -1.705313    1.041100
 H    4.326629   -1.266701    1.921519
