44 
2h15_ligand_dft.xyz
 C   -1.005545    3.457721    1.370648
 C   -0.615266    3.001960   -0.024023
 C   -0.895270    4.032777   -1.105729
 O   -1.320531    1.802104   -0.373787
 O    0.762703    2.650507   -0.015435
 C    0.901592    1.396174   -0.646977
 C    2.136174    0.709426   -0.100733
 O    2.470527   -0.377433   -0.942211
 C    3.287425   -1.252430   -0.171323
 C    4.762555   -0.936241   -0.385802
 C    2.937547   -2.684420   -0.539159
 O    2.966714   -0.986307    1.199927
 C    1.962253    0.009981    1.243669
 C    0.585802   -0.646919    1.365122
 O   -0.459234    0.255114    1.022354
 C   -0.439963    0.727714   -0.320523
 C   -0.896988   -0.327711   -1.329081
 N   -2.285751   -0.727705   -1.196346
 S   -2.748503   -1.845383   -0.066317
 O   -1.575562   -2.670059    0.186533
 O   -3.990600   -2.458145   -0.479810
 N   -3.146725   -0.873557    1.231185
 H   -0.792367    2.657273    2.081481
 H   -0.435864    4.349657    1.646845
 H   -2.072580    3.694204    1.403133
 H   -0.373685    4.966200   -0.878313
 H   -1.968665    4.231906   -1.169702
 H   -0.549738    3.659931   -2.074171
 H    1.007105    1.506625   -1.736300
 H    2.952801    1.443076   -0.053667
 H    5.042956   -1.131850   -1.424604
 H    4.964153    0.113646   -0.155488
 H    5.377040   -1.556688    0.272244
 H    3.161691   -2.865687   -1.594145
 H    3.524931   -3.376322    0.070084
 H    1.876069   -2.878348   -0.367548
 H    2.159638    0.677612    2.085504
 H    0.392500   -0.950302    2.395562
 H    0.536136   -1.545662    0.745238
 H   -0.774776    0.088057   -2.333269
 H   -0.268843   -1.217030   -1.267112
 H   -2.957242    0.029314   -1.270041
 H   -2.311453   -0.406394    1.585122
 H   -3.640452   -1.408687    1.939245
