67 
2h44_ligand_ani.xyz
 C   -3.178338    5.260382    0.898514
 O   -2.421420    4.844952   -0.215542
 C   -1.735681    3.677534   -0.106654
 C   -1.722247    2.865787    1.028712
 C   -1.009061    1.669156    1.016032
 C   -1.009184    3.290497   -1.241358
 C   -0.299434    2.107530   -1.237484
 C   -0.291573    1.269327   -0.108295
 C    0.518536    0.038691   -0.074663
 O    1.779958    0.208018   -0.556677
 C    0.068834   -1.153955    0.392429
 C    0.980045   -2.287996    0.538727
 C    2.360823   -2.014900    0.150950
 C    2.720303   -0.766232   -0.374912
 O    0.605412   -3.387957    0.960024
 C    3.375898   -2.990727    0.298825
 C    4.687929   -2.684286   -0.056618
 C    4.994695   -1.415987   -0.548083
 C    4.027025   -0.427003   -0.734402
 O    3.113245   -4.202572    0.777322
 O    6.274029   -1.074622   -0.863630
 C    4.394070    0.980302   -1.148841
 C    4.707317    1.818307    0.069244
 C    3.973371    2.787102    0.626255
 C    2.640568    3.256585    0.112009
 C    4.431809    3.454500    1.895207
 O   -1.250882   -1.362552    0.717611
 C   -1.996428   -1.924438   -0.353499
 O   -2.443450   -0.937993   -1.220391
 C   -3.089454   -2.784903    0.280758
 O   -3.658069   -3.667612   -0.680478
 C   -4.244272   -1.930274    0.781451
 O   -5.333581   -2.723785    1.202310
 C   -4.687600   -0.966946   -0.315166
 O   -5.711702   -0.133940    0.179275
 C   -3.499293   -0.105337   -0.718757
 C   -3.827092    0.890204   -1.812035
 H   -3.660867    6.194622    0.607371
 H   -2.540177    5.436058    1.775117
 H   -3.945945    4.519148    1.158873
 H   -2.262978    3.147731    1.925286
 H   -1.023087    1.040154    1.906395
 H   -1.041990    3.929261   -2.118734
 H    0.259044    1.812266   -2.124373
 H    5.454677   -3.444011    0.070054
 H    2.150675   -4.243690    0.975782
 H    6.855110   -1.827415   -0.699559
 H    5.288312    0.932236   -1.777835
 H    3.595151    1.433268   -1.744735
 H    5.623187    1.514738    0.580309
 H    1.830451    2.879792    0.748246
 H    2.438851    2.922453   -0.908636
 H    2.582019    4.350875    0.133328
 H    4.538776    4.536109    1.747495
 H    3.696537    3.318885    2.698155
 H    5.392936    3.059776    2.239953
 H   -1.337087   -2.560429   -0.949240
 H   -2.642811   -3.336130    1.119374
 H   -3.029048   -4.378429   -0.853431
 H   -3.923810   -1.343101    1.649457
 H   -5.423214   -3.421414    0.534060
 H   -5.032974   -1.543035   -1.190241
 H   -6.340031   -0.728431    0.614436
 H   -3.162922    0.421816    0.184861
 H   -4.134020    0.361659   -2.720975
 H   -2.943020    1.493300   -2.040143
 H   -4.639477    1.548913   -1.489325
