65 
2h5i_ligand_ani.xyz
 C   -0.758242    2.939165    1.627793
 O   -0.236436    3.958162    1.178083
 C   -2.058420    2.956950    2.398849
 N   -0.188849    1.718509    1.465295
 C    1.016611    1.544050    0.675385
 C    1.214398    0.027384    0.485858
 O    1.109902   -0.741805    1.442630
 C    2.241150    2.199194    1.351254
 C    3.526522    1.871462    0.640387
 O    4.558095    1.529899    1.189061
 O    3.407589    1.953802   -0.688630
 N    1.476675   -0.376047   -0.780485
 C    1.421884   -1.756950   -1.290097
 C   -0.009987   -2.316325   -1.149938
 O   -0.735117   -2.448119   -2.128253
 C    2.505252   -2.674428   -0.698280
 C    3.899225   -2.445903   -1.310210
 C    4.488937   -1.118750   -0.907440
 O    4.679000   -0.185457   -1.670524
 O    4.763911   -1.072458    0.391731
 N   -0.401457   -2.625526    0.116371
 C   -1.826151   -2.664154    0.415070
 C   -2.348736   -1.210218    0.375875
 O   -2.274656   -0.446635    1.340160
 C   -2.115522   -3.411811    1.725637
 C   -1.360559   -2.870297    2.943352
 C   -3.621371   -3.436242    1.990661
 N   -2.849452   -0.812852   -0.820337
 C   -3.167283    0.570705   -1.085535
 C   -4.306124    0.640676   -2.090087
 O   -4.527745   -0.261003   -2.861639
 C   -1.948901    1.338314   -1.630315
 C   -1.987503    2.804913   -1.276461
 O   -2.922252    3.370915   -0.756701
 O   -0.819952    3.410845   -1.550656
 H   -2.695909    3.734704    1.974658
 H   -1.864319    3.207396    3.447627
 H   -2.567253    1.989445    2.352389
 H   -0.706541    0.881216    1.724345
 H    0.879164    2.026916   -0.299005
 H    2.091312    3.282011    1.337245
 H    2.329048    1.871694    2.388229
 H    4.165147    1.474159   -1.097166
 H    1.726039    0.341346   -1.446285
 H    1.569331   -1.675688   -2.370448
 H    2.214895   -3.713531   -0.887088
 H    2.553641   -2.528720    0.384371
 H    3.866443   -2.486485   -2.401620
 H    4.575059   -3.232114   -0.957814
 H    5.022715   -0.152864    0.634008
 H    0.190476   -2.234986    0.845009
 H   -2.303215   -3.214869   -0.403147
 H   -1.774987   -4.440891    1.546327
 H   -0.271496   -2.881175    2.808078
 H   -1.586009   -3.487348    3.820639
 H   -1.663791   -1.841168    3.154643
 H   -3.849533   -4.060920    2.861087
 H   -4.175512   -3.837862    1.134535
 H   -3.993150   -2.425591    2.193816
 H   -2.770048   -1.414989   -1.633179
 H   -3.478420    1.048940   -0.153235
 H   -4.906427    1.571437   -2.104762
 H   -1.837734    1.224380   -2.715656
 H   -1.037136    0.926629   -1.182372
 H   -0.810006    4.248765   -1.053783
