69 
2h5j_ligand_ani.xyz
 C   -5.955556    1.575728   -0.441511
 O   -6.275667    0.567739    0.170593
 C   -6.937908    2.646323   -0.870256
 N   -4.661296    1.809408   -0.798752
 C   -3.594892    0.949977   -0.347244
 C   -2.318618    1.801923   -0.312794
 O   -2.203801    2.790220   -1.020703
 C   -3.417555   -0.261531   -1.284148
 C   -2.577421   -1.378392   -0.711276
 O   -2.237589   -1.447104    0.462149
 O   -2.286545   -2.296787   -1.616601
 N   -1.342858    1.369239    0.537294
 C    0.033071    1.709772    0.239996
 C    0.563335    0.724869   -0.825434
 O   -0.208705    0.022320   -1.476535
 C    0.877686    1.735091    1.521695
 C    0.318519    2.711968    2.554982
 S    1.130723    2.630309    4.171197
 C    2.777624    3.236292    3.746309
 N    1.903632    0.676564   -0.983373
 C    2.556923   -0.272904   -1.867663
 C    2.588037   -1.653240   -1.179267
 O    3.615771   -2.115185   -0.708110
 C    3.985510    0.170133   -2.184140
 C    4.118405    1.573732   -2.786370
 C    4.251330    2.696339   -1.759236
 O    3.882958    2.609022   -0.590951
 N    4.806664    3.837087   -2.236099
 N    1.392341   -2.306688   -1.108375
 C    1.276554   -3.465502   -0.234486
 C    0.420303   -4.567279   -0.867723
 O   -0.973200   -4.421947   -0.631489
 C    0.777661   -3.019974    1.154934
 C    0.590909   -4.190807    2.083506
 O    1.531661   -4.288400    3.026741
 O   -0.310795   -5.002899    1.985002
 H   -7.928450    2.380308   -0.500026
 H   -6.971946    2.728912   -1.962009
 H   -6.651415    3.624230   -0.467918
 H   -4.371907    2.670978   -1.245069
 H   -3.842410    0.567291    0.648090
 H   -4.411610   -0.686293   -1.468323
 H   -3.008210    0.030932   -2.256846
 H   -1.766606   -3.026633   -1.190891
 H   -1.485258    0.421820    0.876688
 H    0.016421    2.709894   -0.212685
 H    0.919869    0.725518    1.953632
 H    1.907762    2.026603    1.277816
 H   -0.735986    2.498076    2.746220
 H    0.376168    3.742097    2.180137
 H    3.346300    2.511864    3.156606
 H    3.307971    3.406442    4.686895
 H    2.722228    4.185669    3.204553
 H    2.513329    1.353325   -0.532847
 H    1.955942   -0.344180   -2.784939
 H    4.583716    0.097922   -1.271206
 H    4.405247   -0.561546   -2.880553
 H    5.004799    1.604844   -3.431774
 H    3.260865    1.803612   -3.434251
 H    5.166661    3.907761   -3.173215
 H    4.968372    4.597883   -1.594058
 H    0.551964   -1.800887   -1.379516
 H    2.294814   -3.851902   -0.134006
 H    0.572797   -4.551041   -1.950751
 H    0.748351   -5.546086   -0.499134
 H   -1.133314   -4.757570    0.269684
 H    1.497998   -2.317136    1.582114
 H   -0.196050   -2.526405    1.042692
 H    1.324439   -5.081437    3.550863
