44 
2h96_ligand_xtb.xyz
 C    3.310004    1.587060    0.583839
 C    2.433988    1.188425   -0.410792
 C    2.497172   -0.128848   -0.894392
 C    3.417448   -1.003652   -0.359967
 C    4.302777   -0.603642    0.644020
 C    4.240507    0.700616    1.109389
 C    1.533486   -0.565106   -1.968227
 N    0.177695   -0.554904   -1.471619
 C   -0.539228   -1.667567   -1.248045
 C   -1.851604   -1.393957   -0.571903
 N   -2.081163   -0.140589   -0.177968
 C   -3.207524    0.142414    0.445496
 C   -4.192676   -0.843199    0.707627
 C   -3.945263   -2.144116    0.284392
 C   -2.754184   -2.426720   -0.363971
 O    5.170407   -1.556521    1.085993
 C    6.073776   -1.216740    2.108711
 O    1.476316    1.993529   -0.977366
 C    1.473313    3.359143   -0.645613
 C   -5.380513   -0.495084    1.382101
 N   -6.350479   -0.224272    1.930074
 O   -3.445346    1.384180    0.867075
 C   -2.463232    2.375907    0.589216
 C   -2.520613    2.848391   -0.857172
 O   -0.198326   -2.791845   -1.565399
 H    3.285527    2.592449    0.973534
 H    3.470041   -2.021045   -0.713020
 H    4.903814    1.052451    1.883212
 H    1.751131   -1.584930   -2.290452
 H    1.601511    0.117265   -2.822680
 H   -0.180085    0.318660   -1.111660
 H   -4.679865   -2.914264    0.468253
 H   -2.505668   -3.416659   -0.709145
 H    6.749681   -0.412811    1.798859
 H    5.552065   -0.920219    3.024649
 H    6.653130   -2.118131    2.301570
 H    1.208772    3.520794    0.404976
 H    2.441410    3.825958   -0.851707
 H    0.714659    3.814749   -1.280499
 H   -1.470217    1.978031    0.823492
 H   -2.705333    3.193356    1.272265
 H   -2.257587    2.036377   -1.530216
 H   -3.523519    3.193924   -1.095910
 H   -1.822050    3.667718   -0.999622
