53 
2hai_ligand_ani.xyz
 F   -4.034189    1.583365   -0.698775
 C   -3.317456    0.454872   -0.461624
 C   -3.905138   -0.654581    0.155371
 O   -5.173466   -0.796418    0.614839
 C   -6.192079    0.190371    0.385910
 C   -7.305661   -0.158001    1.359861
 C   -6.672898    0.144504   -1.056323
 C   -3.077417   -1.764983    0.363581
 C   -1.745955   -1.762960   -0.016405
 C   -1.167996   -0.646442   -0.623430
 C   -1.985172    0.461392   -0.842605
 C    0.301559   -0.606572   -0.968800
 C    1.132069    0.027814    0.157095
 C    2.653049    0.149091   -0.101989
 C    2.985712    1.220665   -1.158080
 C    3.271386   -1.203327   -0.498127
 C    2.963996   -2.366479    0.454893
 C    4.811372   -1.234480   -0.574556
 C    5.223731   -2.716353   -0.392379
 C    3.935990   -3.465888    0.021233
 O    3.274507    0.502983    1.159894
 C    3.167743    1.764891    1.666631
 O    3.304985    1.933596    2.852478
 C    2.943136    2.848131    0.709929
 C    2.888919    2.607589   -0.606463
 O    2.803763    3.557922   -1.556553
 H   -5.790959    1.176695    0.632400
 H   -7.708131   -1.149793    1.129303
 H   -8.119811    0.571352    1.294138
 H   -6.927819   -0.166572    2.385965
 H   -7.046679   -0.858565   -1.289207
 H   -7.489879    0.861690   -1.193822
 H   -5.876798    0.394095   -1.760743
 H   -3.523120   -2.630598    0.842687
 H   -1.145378   -2.652498    0.165937
 H   -1.605944    1.363162   -1.316903
 H    0.436574   -0.032871   -1.895567
 H    0.649199   -1.625561   -1.176296
 H    0.730600    1.027550    0.357564
 H    0.983876   -0.542150    1.080722
 H    2.330808    1.125955   -2.028055
 H    4.009071    1.083768   -1.533885
 H    2.882894   -1.463310   -1.495154
 H    3.185570   -2.046357    1.480140
 H    1.915733   -2.683618    0.425302
 H    5.190778   -0.808876   -1.509794
 H    5.211523   -0.632916    0.244526
 H    5.997430   -2.800904    0.378220
 H    5.644534   -3.137458   -1.311532
 H    3.521886   -4.005900   -0.839067
 H    4.111420   -4.207804    0.807316
 H    2.876258    3.842705    1.142839
 H    2.732412    4.428310   -1.135672
