79 
2hb3_ligand_ani.xyz
 C   -2.016521   -2.661389    1.581203
 C   -2.901042   -3.742621    0.960845
 O   -4.840692   -0.941293    0.074307
 C   -5.742897   -1.873597   -0.521948
 C   -4.316189   -3.140007    0.912413
 C   -2.630664   -1.349950    1.081986
 C   -5.043672   -3.226643   -0.433603
 C   -4.134185   -1.606266    1.124372
 O   -0.665775   -2.854451    1.120603
 C    0.239842   -2.004188    1.648629
 C    2.538958   -1.245026    1.290254
 C    3.874268   -2.001218    1.215339
 C    4.155410   -2.602562   -0.141401
 C    4.740451   -1.839372   -1.157250
 C    4.968101   -2.387569   -2.415702
 C    4.614434   -3.708172   -2.679806
 C    4.035033   -4.478686   -1.676581
 C    3.807450   -3.927655   -0.417537
 O    0.005360   -1.222099    2.550159
 N    1.436811   -2.146798    1.018256
 C    2.503074   -0.000982    0.387357
 C    1.292432    0.894257    0.712331
 C    1.221112    3.346734    1.127727
 C    2.431226    3.535856    2.046471
 C    3.571433    4.227362    1.294290
 C    2.034372    4.327779    3.291264
 O    3.714037    0.710061    0.591625
 O    1.284829    3.863011   -1.758395
 O    1.508450    1.376526   -2.186678
 N    1.429407    2.252069    0.172882
 S    0.967593    2.486498   -1.417661
 C   -0.803097    2.314609   -1.412473
 C   -1.585175    3.383719   -0.989253
 C   -2.966158    3.251242   -0.965092
 C   -3.578199    2.069801   -1.385730
 C   -2.773464    1.005104   -1.800133
 C   -1.388203    1.120704   -1.821286
 C   -5.083865    1.943145   -1.337921
 O   -5.575435    1.805924   -0.018749
 H   -2.026983   -2.706075    2.675778
 H   -2.840232   -4.690033    1.503702
 H   -2.535882   -3.920640   -0.056054
 H   -6.691174   -1.873790    0.034071
 H   -5.935608   -1.548662   -1.550026
 H   -4.945603   -3.540710    1.716337
 H   -2.308154   -0.488093    1.674420
 H   -2.333825   -1.192781    0.039197
 H   -4.320213   -3.317318   -1.252929
 H   -5.743947   -4.063898   -0.504368
 H   -4.565791   -1.286900    2.083570
 H    2.404629   -0.899462    2.321388
 H    4.678683   -1.314852    1.498092
 H    3.835554   -2.798905    1.966219
 H    4.995036   -0.800002   -0.956268
 H    5.421209   -1.779903   -3.194128
 H    4.790705   -4.134813   -3.663613
 H    3.755001   -5.510265   -1.872887
 H    3.351930   -4.533953    0.365007
 H    1.469691   -2.755600    0.212880
 H    2.424770   -0.307420   -0.664743
 H    1.200430    0.985565    1.797621
 H    0.371765    0.421816    0.345976
 H    0.320801    3.133911    1.722459
 H    1.034138    4.266423    0.565538
 H    2.777683    2.539048    2.352522
 H    3.300567    5.262950    1.049223
 H    3.808288    3.723065    0.349426
 H    4.482233    4.255578    1.901937
 H    2.892296    4.468467    3.958033
 H    1.659457    5.322066    3.015456
 H    1.247458    3.816311    3.857460
 H    3.661902    1.480956    0.008734
 H   -1.116647    4.322338   -0.704384
 H   -3.586558    4.074220   -0.620876
 H   -3.243711    0.071976   -2.097966
 H   -0.758344    0.305202   -2.165913
 H   -5.405416    1.097248   -1.967394
 H   -5.546581    2.851278   -1.743205
 H   -5.356354    0.896909    0.248757
