79 
2hb3_ligand_dft.xyz
 C   -9.622965   15.920641   22.751041
 C   -8.475258   14.916735   22.902277
 O   -7.460949   17.836739   21.465148
 C   -6.215109   17.688045   22.116861
 C   -7.288980   15.549925   22.152550
 C   -9.444057   16.447738   21.329834
 C   -6.372520   16.454094   23.002162
 C   -7.927165   16.540632   21.128273
 O   -9.438255   17.051783   23.617603
 C   -9.563023   16.830347   24.938104
 C   -8.885489   17.795522   27.067993
 C   -7.724421   18.701676   27.492337
 C   -6.429052   18.309683   26.820712
 C   -5.815241   17.095483   27.145248
 C   -4.640057   16.707501   26.512318
 C   -4.055366   17.528964   25.549819
 C   -4.655378   18.740447   25.224547
 C   -5.837857   19.123784   25.854577
 O  -10.026938   15.816492   25.435668
 N   -9.095403   17.893232   25.636257
 C  -10.193317   18.059154   27.833727
 C  -10.102895   17.627338   29.307024
 C  -10.138621   15.129762   28.911789
 C  -11.524385   14.800216   29.512027
 C  -11.701457   13.280040   29.575456
 C  -12.670023   15.426799   28.708538
 O  -10.634330   19.399850   27.758614
 O   -7.785287   17.423850   30.934570
 O   -7.441479   15.032608   30.172902
 N   -9.472217   16.322596   29.452972
 S   -8.318881   16.104275   30.620985
 C   -9.197952   15.505728   32.048715
 C   -9.251536   14.137413   32.296527
 C  -10.045324   13.671846   33.336336
 C  -10.777877   14.558855   34.127377
 C  -10.702348   15.928023   33.872374
 C   -9.914763   16.405756   32.831602
 C  -11.613032   14.022998   35.265244
 O  -12.463674   15.037024   35.748755
 H  -10.604244   15.482651   22.948832
 H   -8.781768   13.982590   22.416598
 H   -8.261480   14.683502   23.947718
 H   -6.016711   18.605866   22.675215
 H   -5.406387   17.544351   21.380107
 H   -6.695455   14.786205   21.641740
 H   -9.936336   17.409518   21.169354
 H   -9.869320   15.718226   20.631122
 H   -6.852731   16.733228   23.944739
 H   -5.416687   15.983494   23.246067
 H   -7.637268   16.308188   20.093393
 H   -8.596159   16.762898   27.280686
 H   -7.605097   18.625391   28.579457
 H   -7.965723   19.746840   27.256637
 H   -6.256051   16.454873   27.906549
 H   -4.174109   15.763306   26.778219
 H   -3.133905   17.227158   25.060645
 H   -4.203913   19.391650   24.481367
 H   -6.299134   20.075803   25.599278
 H   -8.653791   18.629925   25.107807
 H  -10.970732   17.479363   27.328507
 H  -11.105842   17.646256   29.752239
 H   -9.490831   18.348787   29.853007
 H  -10.214687   15.252433   27.823828
 H   -9.448027   14.297995   29.070266
 H  -11.555971   15.187653   30.538972
 H  -12.689610   13.015613   29.966694
 H  -10.946479   12.821329   30.223370
 H  -11.607312   12.835773   28.576762
 H  -12.639663   15.081792   27.668035
 H  -12.626296   16.519842   28.693993
 H  -13.640171   15.143017   29.130945
 H  -10.017123   19.945976   28.262173
 H   -8.675129   13.455721   31.680312
 H  -10.095675   12.603435   33.532601
 H  -11.268468   16.612948   34.492613
 H   -9.846579   17.470790   32.634080
 H  -10.936550   13.660989   36.056193
 H  -12.187378   13.153639   34.908352
 H  -12.910326   14.705388   36.534664
