32 
2hd6_ligand_ani.xyz
 N   -5.594891   -0.522101   15.802348
 S   -5.735002    0.830309   16.756266
 O   -4.824656    0.622803   17.865883
 O   -7.158957    1.042067   16.931096
 C   -5.111434    2.198389   15.808011
 C   -3.756335    2.510542   15.860365
 C   -3.251134    3.560074   15.107036
 C   -4.117264    4.305974   14.302697
 C   -5.481866    3.991791   14.263882
 C   -5.983311    2.942641   15.018606
 N   -3.683683    5.378781   13.504377
 C   -2.437941    5.936804   13.432694
 O   -1.478872    5.554668   14.086517
 C   -2.296178    7.143077   12.531112
 C   -1.359751    8.087147   12.966313
 C   -1.153469    9.276305   12.284995
 C   -1.876937    9.524226   11.124498
 C   -2.776438    8.580657   10.649647
 C   -2.984189    7.374065   11.328280
 S   -4.047695    6.155457   10.579795
 H   -4.636745   -0.786645   15.606114
 H   -6.196607   -0.513785   14.987265
 H   -3.096555    1.938025   16.505839
 H   -2.200862    3.812707   15.136245
 H   -6.153412    4.576415   13.639963
 H   -7.042451    2.704032   15.009873
 H   -4.401621    5.809868   12.941808
 H   -0.801947    7.854054   13.868725
 H   -0.434508   10.001658   12.654724
 H   -1.735042   10.452188   10.576889
 H   -3.320202    8.786039    9.728427
 H   -4.574051    6.999765    9.683710
