70 
2hh5_ligand_ani.xyz
 O    0.220216    1.871935    1.481233
 S    0.334394    1.553095    0.049522
 O   -0.822898    1.731723   -0.827307
 C    1.698849    2.512793   -0.632613
 C    1.375439    3.980812   -0.572935
 C    0.707179    4.604368   -1.628058
 C    0.389003    5.956744   -1.559717
 C    0.736355    6.699627   -0.435455
 C    1.398744    6.083836    0.621974
 C    1.715716    4.731276    0.553363
 C    0.870668   -0.144816   -0.094637
 C    2.023807   -0.509110    0.873126
 N    2.953044   -1.412377    0.242037
 C    3.910769   -0.888033   -0.588367
 O    3.892999    0.292837   -0.921270
 N    4.891627   -1.761118   -1.028898
 C    5.814350   -1.207079   -2.012544
 C    7.088439   -2.034297   -2.023388
 O    6.805128   -3.398190   -2.264180
 C    5.965182   -3.926597   -1.258670
 C    4.635590   -3.185618   -1.200135
 C    1.487883   -1.210415    2.131521
 O    1.657482   -2.408249    2.317410
 N    0.796138   -0.416715    2.982107
 C   -0.165733   -0.981369    3.918929
 C   -0.569366    0.081178    4.930053
 C   -1.375668   -1.572813    3.175861
 N   -2.009492   -0.593953    2.316137
 C   -2.967766   -0.982741    1.389083
 C   -3.233275   -0.134208    0.307647
 C   -4.211852   -0.450554   -0.625784
 C   -3.701003   -2.166999    1.510825
 C   -4.675889   -2.488105    0.576365
 C   -4.930191   -1.628385   -0.482775
 O   -5.905166   -2.066778   -1.380433
 C   -6.590066   -1.178429   -2.127684
 F   -7.567092   -1.838560   -2.736864
 F   -7.124799   -0.187677   -1.402219
 F   -5.820348   -0.603466   -3.071035
 H    2.593564    2.263478   -0.055515
 H    1.832075    2.157608   -1.660123
 H    0.418517    4.024377   -2.503147
 H   -0.131455    6.431391   -2.387825
 H    0.488033    7.757350   -0.382213
 H    1.671321    6.658056    1.503947
 H    2.219881    4.250318    1.389781
 H   -0.030331   -0.743934    0.078804
 H    1.183233   -0.296332   -1.130686
 H    2.533183    0.419646    1.164086
 H    3.128534   -2.255383    0.773460
 H    5.364616   -1.206601   -3.017152
 H    6.020310   -0.170952   -1.739916
 H    7.755895   -1.705423   -2.826429
 H    7.616248   -1.918793   -1.063332
 H    6.462492   -3.871385   -0.277793
 H    5.801015   -4.979980   -1.503869
 H    4.065303   -3.379482   -2.121186
 H    4.049487   -3.575390   -0.364511
 H    0.684180    0.558270    2.729387
 H    0.332088   -1.814515    4.424822
 H   -1.240103   -0.334356    5.690549
 H    0.313457    0.479873    5.438385
 H   -1.092657    0.909297    4.436201
 H   -1.029455   -2.453286    2.610116
 H   -2.107004   -1.937946    3.909327
 H   -1.412369    0.147210    1.961664
 H   -2.660352    0.781286    0.189200
 H   -4.403891    0.221158   -1.454668
 H   -3.505544   -2.850944    2.332609
 H   -5.244718   -3.410287    0.655519
