45 
2hha_ligand_ani.xyz
 C   -3.249588    0.616771   -0.378227
 C   -4.683015    1.135632   -0.264393
 O   -4.868777    2.315159   -0.017240
 C   -5.704539   -1.117235   -0.725079
 C   -6.991475   -1.562846   -0.820830
 C   -7.852512   -0.447838   -0.578380
 C   -7.067155    0.640285   -0.343187
 C   -1.435909   -0.674102    0.667367
 C    0.611283   -0.936119    0.344759
 C    2.036060   -0.622489    0.160373
 C    2.470884    0.700975    0.271966
 C    3.808507    1.012385    0.085358
 C    4.288616   -1.333372   -0.325825
 C    2.950084   -1.638957   -0.138325
 C   -2.831594   -0.189986    0.881793
 N   -5.737172    0.248005   -0.427182
 N   -2.417232    1.844530   -0.545800
 N   -0.343658    0.033254    0.573633
 N    0.133438   -2.152256    0.288648
 O   -1.224091   -1.978630    0.498800
 C    4.708610   -0.011187   -0.200795
 S    6.431388    0.379159   -0.414088
 O    7.035129   -0.679014   -1.217977
 O    6.528183    1.781077   -0.808992
 C    7.109574    0.246612    1.230908
 C   -2.955644    0.600567    2.194154
 H   -3.140168   -0.018832   -1.254416
 H   -4.766728   -1.636561   -0.849153
 H   -7.301220   -2.574715   -1.045604
 H   -8.934920   -0.456277   -0.581958
 H   -7.306293    1.670349   -0.125036
 H    1.750507    1.478252    0.503057
 H    4.160242    2.038173    0.146147
 H    5.009249   -2.105210   -0.579682
 H    2.600215   -2.662494   -0.225552
 H   -3.483854   -1.060678    0.932712
 H   -2.266639    2.046036   -1.551075
 H   -1.500474    1.723450   -0.080169
 H   -3.015303    2.591796   -0.120005
 H    6.611201    0.963639    1.886409
 H    6.980235   -0.774180    1.595985
 H    8.172191    0.486797    1.147932
 H   -2.186019    1.376002    2.270603
 H   -3.934316    1.082365    2.274861
 H   -2.834415   -0.072508    3.048685
