75 
2hs1_ligand_xtb.xyz
 N   -6.991547    2.258557   -0.929138
 C   -6.101701    1.219392   -0.992372
 C   -6.081714    0.239741    0.008232
 C   -5.139001   -0.765523   -0.019434
 C   -4.208325   -0.806124   -1.042287
 C   -4.210769    0.152158   -2.040235
 C   -5.153227    1.158489   -2.020097
 S   -2.979505   -2.098695   -1.037992
 O   -3.599861   -3.367819   -0.805542
 O   -2.182965   -1.953919   -2.232572
 N   -1.991448   -1.765332    0.254377
 C   -2.168038   -2.488532    1.490238
 C   -0.848241   -3.090509    1.992728
 C   -0.323059   -4.104658    0.981595
 C   -1.060789   -3.739555    3.357394
 C   -1.466248   -0.421043    0.303111
 C   -0.091551   -0.301388   -0.380568
 O   -0.195357   -0.186395   -1.775618
 C    0.694104    0.924514    0.126949
 N    2.033050    0.847004   -0.412194
 C    3.131518    0.957195    0.353745
 O    3.139637    1.167847    1.541488
 O    4.252930    0.807856   -0.402918
 C    5.476218    0.944183    0.297215
 C    5.857821   -0.299226    1.121833
 O    7.260344   -0.204047    1.259520
 C    7.777244    0.254507    0.051258
 O    8.109116   -0.816015   -0.803075
 C    7.758864   -0.463465   -2.123967
 C    6.481420    0.371645   -2.006628
 C    6.668660    1.081846   -0.661575
 C    0.045815    2.260194   -0.283058
 C   -1.023430    2.825388    1.914133
 C   -2.126501    3.133273    2.689516
 C   -3.378193    3.242456    2.106441
 C   -3.517624    3.055007    0.742481
 C   -2.412099    2.745892   -0.031112
 C   -1.154804    2.615862    0.545611
 H   -7.792639    2.151144   -0.330291
 H   -7.139416    2.797660   -1.765608
 H   -6.813138    0.280003    0.801527
 H   -5.121396   -1.533617    0.737489
 H   -3.474420    0.085988   -2.825475
 H   -5.165714    1.909048   -2.796558
 H   -2.600361   -1.831091    2.257696
 H   -2.870635   -3.294298    1.272068
 H   -0.119005   -2.279429    2.097555
 H   -0.256942   -3.652119   -0.004801
 H   -0.999973   -4.953314    0.916141
 H    0.661160   -4.463756    1.273294
 H   -1.800125   -4.534082    3.286671
 H   -1.407808   -3.008503    4.084448
 H   -0.129422   -4.167199    3.719564
 H   -2.164211    0.255279   -0.200105
 H   -1.385020   -0.109300    1.346607
 H    0.491660   -1.201773   -0.122269
 H   -0.821981   -0.867865   -2.092728
 H    0.797459    0.873409    1.215016
 H    2.119694    0.655261   -1.397651
 H    5.410459    1.811686    0.965016
 H    5.573486   -1.207543    0.574032
 H    5.416365   -0.309290    2.116703
 H    8.682188    0.833700    0.287614
 H    7.630157   -1.387637   -2.687871
 H    8.567885    0.127708   -2.578641
 H    6.366236    1.069150   -2.832297
 H    5.606419   -0.274626   -1.966775
 H    6.962792    2.122240   -0.791298
 H   -0.222149    2.197580   -1.337977
 H    0.804583    3.037290   -0.160426
 H   -0.047658    2.751203    2.371907
 H   -2.009294    3.292155    3.751572
 H   -4.239837    3.481426    2.712062
 H   -4.488672    3.147756    0.279428
 H   -2.527894    2.602907   -1.096220
