49 
2hu6_ligand_xtb.xyz
 O   -1.520449   -2.190105   -1.866827
 C   -1.540215   -1.664932   -0.773497
 C   -2.632710   -0.645126   -0.414075
 O   -2.667855   -0.343725    0.980355
 C   -4.032406   -1.233131   -0.679971
 C   -5.050937   -0.119222   -0.963733
 N   -4.918798    0.896493    0.067718
 C   -4.278017    2.052603   -0.264661
 O   -4.186383    2.455813   -1.414141
 N   -3.843109    2.841604    0.785729
 O   -3.188813    4.008114    0.345034
 C   -4.952829    0.336931    1.401208
 O   -4.319530   -1.819777    0.582828
 C   -3.920466   -0.811763    1.457524
 N   -0.661563   -1.894347    0.209240
 C    0.502271   -2.739267    0.044999
 C    1.773412   -1.930496    0.046952
 C    1.913638   -0.864305   -0.834297
 C    3.064758   -0.102644   -0.838930
 C    4.114146   -0.395145    0.030257
 C    3.972592   -1.468090    0.905929
 C    2.812760   -2.220385    0.919354
 C    5.344511    0.410195    0.020576
 C    6.593088   -0.202123    0.097314
 C    7.749649    0.555063    0.083621
 C    5.283234    1.798953   -0.066458
 C    6.440787    2.554784   -0.072092
 C    7.677307    1.935567    0.001168
 H   -2.450676    0.266122   -0.993824
 H   -4.032131   -2.009875   -1.443504
 H   -4.868121    0.347690   -1.931723
 H   -6.061122   -0.536880   -0.935571
 H   -3.280192    2.414183    1.509896
 H   -3.327901    3.997584   -0.628149
 H   -4.757677    1.099575    2.150501
 H   -5.945445   -0.091368    1.575295
 H   -3.804520   -1.219806    2.465592
 H   -0.762193   -1.368954    1.065586
 H    0.375796   -3.244237   -0.918170
 H    0.523395   -3.488944    0.841795
 H    1.112972   -0.640283   -1.524311
 H    3.165422    0.713272   -1.539371
 H    4.769309   -1.699649    1.597672
 H    2.717178   -3.044629    1.612218
 H    6.654699   -1.279746    0.145271
 H    8.711861    0.066531    0.135596
 H    4.320597    2.287652   -0.109139
 H    6.378629    3.631651   -0.132860
 H    8.581203    2.526507   -0.006739
