118 
2hw2_ligand_dft.xyz
 C   -0.699494   -2.479431    1.730335
 C   -1.704621   -2.259054    0.810952
 C   -1.465638   -2.468247   -0.581675
 C   -0.208334   -2.893313   -1.019530
 C    2.215596   -3.250603   -0.486363
 C    3.235254   -3.180952    0.457844
 C    3.022449   -3.135766    1.834197
 C    1.701610   -2.994107    2.235465
 C    0.601703   -2.864249    1.293562
 C    0.858181   -3.050436   -0.086720
 C    2.865312   -3.417501   -1.750307
 C    4.361992   -3.130901   -1.498528
 C    5.324611   -4.115659   -2.107004
 C    4.140283   -3.205875    2.833159
 C   -3.665411   -1.781601    2.311726
 C   -4.845921   -0.856035    2.351928
 C   -4.695626    0.452146    2.056480
 C   -3.444435    1.120648    1.698958
 C   -3.332570    2.345463    1.172909
 C   -2.007811    2.985946    0.856135
 C   -1.775050    3.003052   -0.680955
 C   -0.424158    3.605903   -1.167814
 C    0.763540    3.006772   -0.390272
 C    2.195638    3.214822   -0.952616
 C    3.211024    2.886770    0.186116
 C    4.275199    1.811551   -0.091590
 C    3.705704    0.367976   -0.173637
 C    3.166262   -0.017145   -1.519705
 C    3.631185   -1.000426   -2.280711
 C   -6.120719   -1.453905    2.873350
 C   -1.939882    4.362702    1.532087
 C   -0.448620    5.147999   -1.138357
 C    2.511180    4.543971   -1.644062
 C    5.165270    2.128556   -1.293835
 C    3.370424    4.949553    1.371654
 C    4.302397    6.084668    1.695740
 C    3.082199    0.148474    2.126967
 C   -6.653772    1.846051   -0.928702
 C   -6.290667   -0.563661   -1.398817
 C   -5.679223   -1.541168   -2.404144
 C   -4.034233    0.067093   -3.065223
 C   -4.590532    1.095776   -2.085602
 C   -2.433502   -2.164013   -1.627896
 N   -2.947382   -1.705468    1.168163
 N   -3.555357   -1.569640   -1.427359
 N   -4.261122   -1.317223   -2.651313
 N   -6.063984    0.850380   -1.863256
 O   -0.877947   -2.204879    3.054557
 O    1.506140   -2.926693    3.550679
 O    4.477901   -3.170171   -0.064967
 O    2.422140   -3.677642   -2.867842
 O    4.684480   -1.826568   -1.932422
 O    2.655434    0.148620    0.777086
 O    3.972040    4.047799    0.578441
 O    2.226155    4.852205    1.755052
 O    0.524583    1.593408   -0.320877
 O   -1.943388    1.695426   -1.210844
 O   -3.401811   -2.521075    3.266756
 O   -0.054219   -3.067578   -2.333328
 H    5.155997   -4.157190   -3.185232
 H    5.171210   -5.109054   -1.679137
 H    6.348744   -3.790778   -1.909532
 H    5.104358   -3.048292    2.345363
 H    4.161159   -4.184970    3.323550
 H    4.007621   -2.458632    3.620608
 H   -5.573548    1.092939    2.162600
 H   -2.524110    0.573548    1.883615
 H   -4.225852    2.945934    0.975134
 H   -1.227882    2.345539    1.282945
 H   -2.576473    3.603064   -1.137114
 H   -0.351400    3.274632   -2.212305
 H    0.738935    3.428603    0.621603
 H    2.306164    2.454654   -1.730065
 H    2.644789    2.588180    1.071627
 H    4.916454    1.831215    0.799321
 H    4.527901   -0.320533    0.064369
 H    2.319394    0.534261   -1.912109
 H    3.205665   -1.213086   -3.257567
 H   -5.946963   -1.887153    3.863457
 H   -6.909921   -0.701580    2.954464
 H   -6.473081   -2.268833    2.229808
 H   -0.931015    4.779509    1.517433
 H   -2.239384    4.274683    2.580924
 H   -2.614408    5.080636    1.050297
 H    0.036058    5.577340   -2.016297
 H   -1.476908    5.523264   -1.127646
 H    0.053541    5.553809   -0.256064
 H    2.312323    5.413166   -1.012882
 H    1.919855    4.644214   -2.557609
 H    3.565905    4.570833   -1.930815
 H    5.923853    1.350334   -1.427221
 H    5.676655    3.082847   -1.143828
 H    4.590160    2.185252   -2.223603
 H    5.231747    5.700874    2.124749
 H    4.560578    6.617954    0.775682
 H    3.818555    6.766738    2.394021
 H    2.271171   -0.277769    2.720047
 H    3.301982    1.158978    2.495125
 H    3.977788   -0.472816    2.245668
 H   -7.721678    1.650862   -0.819657
 H   -6.489858    2.847875   -1.327856
 H   -6.150568    1.740099    0.031981
 H   -7.368428   -0.709173   -1.291075
 H   -5.810456   -0.644383   -0.420006
 H   -5.816849   -2.556536   -2.026731
 H   -6.201731   -1.476176   -3.366860
 H   -4.479990    0.191410   -4.060610
 H   -2.962681    0.253405   -3.151303
 H   -4.091017    1.026828   -1.117506
 H   -4.477152    2.113695   -2.464945
 H   -2.144487   -2.430823   -2.643922
 H   -3.413880   -1.248056    0.383228
 H   -6.533516    0.951961   -2.768536
 H   -1.804496   -2.460838    3.326683
 H    0.561277   -2.723399    3.722357
 H    1.203999    1.137973    0.213772
 H   -1.135240    1.220936   -0.940492
 H    0.841228   -3.408203   -2.596873
