41 
2hwi_ligand_ani.xyz
 C    4.412953   -0.239087   -1.256441
 C    5.484487    0.557687   -1.648347
 C    5.790526    1.670289   -0.881645
 C    5.071665    2.003586    0.257230
 C    4.008443    1.191321    0.633061
 C    3.664857    0.070254   -0.122546
 F    6.819602    2.453178   -1.250134
 C    2.482570   -0.791886    0.282332
 C    2.716924   -1.346784    1.685424
 O    3.611844   -2.346387    1.665399
 O    2.205365   -0.931235    2.694992
 N    1.235416   -0.056965    0.224717
 C    0.078735   -0.722676   -0.035242
 S   -1.459033    0.161084    0.028024
 C   -2.252447   -1.338649   -0.431695
 C   -1.234116   -2.432654   -0.606932
 N    0.067473   -1.967806   -0.366326
 O   -1.501524   -3.569183   -0.918723
 C   -3.573937   -1.550003   -0.621184
 C   -4.600216   -0.556322   -0.515887
 C   -5.955057   -0.614840   -0.677206
 C   -6.440767    0.706214   -0.460834
 C   -5.356436    1.477800   -0.183009
 O   -4.232267    0.721295   -0.205863
 C   -5.180592    2.922856    0.135732
 C   -4.524266    3.162775    1.497674
 H    4.153371   -1.116356   -1.846197
 H    6.075655    0.330829   -2.529860
 H    5.348765    2.882882    0.828983
 H    3.448497    1.430967    1.535861
 H    2.397677   -1.634253   -0.409271
 H    3.717805   -2.639293    2.585401
 H    1.194325    0.788946    0.775240
 H   -3.890040   -2.556895   -0.883217
 H   -6.532672   -1.495380   -0.920926
 H   -7.469312    1.037419   -0.505103
 H   -6.166150    3.399531    0.100721
 H   -4.578529    3.392083   -0.654473
 H   -3.525845    2.718418    1.537872
 H   -4.429139    4.236536    1.686672
 H   -5.123810    2.726822    2.303028
