41 
2hzn_ligand_xtb.xyz
 C   -6.023598   -1.768146   -0.318583
 C   -6.322493   -0.424555   -0.166908
 C    1.260772   -1.596767    0.041644
 C    1.700719   -0.333473    0.424581
 C    3.051068   -0.084922    0.575042
 C    3.546851   -2.354374   -0.038813
 C    5.957038    0.222697    0.150473
 C    5.501082    1.063621   -0.862195
 C    6.275872    2.162754   -1.192118
 F   -6.841671    2.268410   -0.051909
 C   -5.554313    1.945090    0.146082
 F   -5.247807    2.374108    1.384875
 F   -4.841115    2.706631   -0.700239
 C   -5.278520    0.478085   -0.030048
 C   -3.953773    0.066565   -0.035486
 C   -3.661856   -1.285777   -0.186964
 C   -4.711373   -2.195887   -0.330219
 N   -2.362631   -1.782316   -0.212207
 C   -1.180148   -1.089791   -0.010144
 O   -1.122294    0.091499    0.228700
 N   -0.091757   -1.920965   -0.117631
 C    3.982601   -1.088691    0.336591
 C    2.197862   -2.604046   -0.181957
 O    5.331699   -0.918743    0.542851
 N    7.422128    2.461976   -0.607504
 C    7.855582    1.652177    0.344725
 C    7.173291    0.525274    0.762949
 H   -6.821668   -2.485814   -0.427986
 H   -7.345123   -0.083493   -0.157911
 H    0.984635    0.448669    0.608763
 H    3.381856    0.892890    0.891964
 H    4.274732   -3.131841   -0.208627
 H    4.578345    0.859913   -1.383370
 H    5.958361    2.840495   -1.973520
 H   -3.157078    0.783119    0.076327
 H   -4.491900   -3.247731   -0.450361
 H   -2.305712   -2.780318   -0.358737
 H   -0.252865   -2.888447   -0.359626
 H    1.868483   -3.591964   -0.472661
 H    8.799103    1.926195    0.797526
 H    7.554761   -0.115939    1.540749
