57 
2i03_ligand_ani.xyz
 N   -1.674605   -0.101455    0.798712
 C   -0.245584    0.231542    1.107607
 C    0.671912   -0.989011    0.901481
 C    2.150319   -0.648804    1.077062
 N    2.551967    0.464497    0.223090
 C    1.729812    1.660050    0.370722
 C    0.258124    1.336020    0.162188
 C   -5.842843   -1.148642   -0.590364
 N   -4.533952   -0.578390   -0.954290
 C   -4.653844    0.778518   -1.496308
 C   -6.035632    0.731983   -2.150549
 C   -6.859329   -0.174340   -1.231535
 C   -4.546599    1.849170   -0.431927
 N   -3.693041    1.854883    0.520182
 C   -3.404193   -1.119519   -0.420824
 O   -3.417199   -2.123279    0.281740
 C   -2.071056   -0.391541   -0.586497
 C    3.910898    0.654217    0.002969
 C    4.762490   -0.449160   -0.210840
 C    6.107244   -0.209626   -0.433212
 C    6.585706    1.100040   -0.433652
 C    5.667808    2.115124   -0.233869
 N    4.362901    1.911995   -0.039192
 C   -6.043843   -1.230213    0.869216
 C   -6.229183   -1.284384    2.056937
 C   -0.237567    0.691674    2.570581
 C    7.075818   -1.319354   -0.669143
 O    6.486924   -2.531888   -0.677233
 O    8.262379   -1.171615   -0.839614
 H   -1.981800   -0.943250    1.331938
 H   -2.277081    0.696707    1.096655
 H    0.533808   -1.376367   -0.115111
 H    0.397453   -1.791195    1.598253
 H    2.741664   -1.523457    0.808284
 H    2.376802   -0.438244    2.136446
 H    1.899720    2.127289    1.355400
 H    2.056595    2.387017   -0.374415
 H   -0.345597    2.244991    0.287423
 H    0.134669    1.000473   -0.875351
 H   -5.907524   -2.159355   -1.007364
 H   -3.881847    0.946691   -2.258538
 H   -6.463295    1.730748   -2.272980
 H   -5.938480    0.281769   -3.142372
 H   -7.650158   -0.703908   -1.769004
 H   -7.332974    0.417116   -0.441989
 H   -5.269830    2.683516   -0.540672
 H   -3.909779    2.711422    1.044151
 H   -2.146482    0.522565   -1.169119
 H   -1.359421   -1.066546   -1.067367
 H    4.375896   -1.461697   -0.248347
 H    7.639710    1.292764   -0.593231
 H    5.989006    3.154557   -0.237227
 H   -0.666650   -0.090167    3.209501
 H   -0.839465    1.601387    2.689615
 H    0.765094    0.911062    2.944712
 H    7.202123   -3.168301   -0.839601
 H   -6.394623   -1.336507    3.111397
