84 
2i0a_ligand_xtb.xyz
 O   -7.591012   -0.381236   -1.701857
 C   -7.319684   -0.944429   -0.660858
 C   -8.371545   -1.241990    0.376757
 C   -5.930982   -1.350653   -0.350794
 C   -5.481029   -1.617109    0.940727
 C   -4.158045   -1.920130    1.179931
 C   -5.012786   -1.423131   -1.398010
 C   -3.691668   -1.740133   -1.172031
 C   -3.241699   -1.977039    0.127797
 N   -1.896459   -2.274691    0.352806
 C   -1.282082   -2.400722    1.574258
 O   -1.743335   -2.212787    2.661758
 O    0.001493   -2.791928    1.393462
 C   -0.969192   -2.527314   -0.729302
 C    0.329513   -2.851899    0.018194
 C    1.462683   -1.855075   -0.334780
 O    1.527942   -1.386646   -1.454482
 N    2.303311   -1.666716    0.680931
 C    3.467816   -0.795935    0.714941
 C    4.352475   -0.986555   -0.522984
 C    4.846529   -2.407236   -0.579271
 C    4.262067   -3.328790   -1.437350
 C    4.692093   -4.644463   -1.455791
 C    5.713071   -5.054254   -0.616088
 C    6.305417   -4.140683    0.239507
 C    5.873437   -2.826887    0.257618
 C    3.042366    0.662221    1.008713
 O    2.426591    0.606394    2.267673
 C    2.114460    1.254090   -0.071520
 N    2.145969    2.701534   -0.102875
 C    2.402614    3.367892   -1.364248
 C    3.861547    3.831198   -1.519455
 C    4.272365    4.674537   -0.316440
 C    4.822673    2.663541   -1.720006
 S    1.073628    3.462745    0.923735
 O    1.103462    4.864451    0.634117
 O    1.396629    3.055641    2.267195
 C   -0.545526    2.824785    0.513408
 C   -1.106277    1.770877    1.218383
 C   -2.358999    1.310628    0.871193
 C   -3.065926    1.900233   -0.185104
 O   -4.288898    1.389108   -0.441463
 C   -5.052380    1.945240   -1.493045
 C   -2.486693    2.959143   -0.885891
 C   -1.229417    3.413784   -0.530930
 H   -8.228021   -0.585780    1.233359
 H   -8.300595   -2.273184    0.712924
 H   -9.356458   -1.055418   -0.043901
 H   -6.157722   -1.567951    1.778917
 H   -3.825096   -2.105157    2.187097
 H   -5.360152   -1.225064   -2.401147
 H   -3.012698   -1.785541   -2.007854
 H   -1.312666   -3.358599   -1.352254
 H   -0.820232   -1.642525   -1.359786
 H    0.703177   -3.859500   -0.204204
 H    1.995921   -2.007646    1.581492
 H    4.037137   -1.113516    1.595748
 H    3.789705   -0.759902   -1.426077
 H    5.197987   -0.301346   -0.447320
 H    3.467029   -3.010764   -2.095615
 H    4.230092   -5.351411   -2.129639
 H    6.048824   -6.080584   -0.630120
 H    7.106278   -4.453258    0.893356
 H    6.341571   -2.116568    0.924381
 H    3.951098    1.284501    1.057256
 H    2.083975    1.498410    2.480363
 H    2.409086    0.879490   -1.050826
 H    1.092166    0.907626    0.127882
 H    1.771281    4.257312   -1.381385
 H    2.119659    2.718477   -2.200288
 H    3.889472    4.458141   -2.418300
 H    4.268082    4.066346    0.584586
 H    5.268985    5.085487   -0.460091
 H    3.569591    5.489683   -0.167823
 H    4.511863    2.042238   -2.557255
 H    4.860275    2.049523   -0.825702
 H    5.824273    3.035377   -1.923957
 H   -0.567848    1.337596    2.047119
 H   -2.824339    0.502753    1.412965
 H   -4.527985    1.867095   -2.449437
 H   -5.298083    2.992197   -1.293600
 H   -5.968933    1.360834   -1.541593
 H   -3.009931    3.441483   -1.695241
 H   -0.780721    4.247897   -1.046196
