84 
2i0d_ligand_ani.xyz
 O   -3.668039   -1.043461   -2.253316
 S   -4.163160   -1.606543   -0.996982
 O   -4.553324   -3.002121   -0.915208
 C   -5.543058   -0.613759   -0.506534
 C   -6.523634   -1.153438    0.311526
 C   -7.593076   -0.367183    0.730242
 C   -7.674796    0.962854    0.319311
 O   -8.673112    1.814183    0.675150
 C   -9.687558    1.310508    1.516044
 C   -6.687667    1.497245   -0.517280
 C   -5.631658    0.708298   -0.937100
 N   -3.000105   -1.338474    0.152758
 C   -2.855822   -2.237297    1.292241
 C   -1.537217   -3.021013    1.304804
 C   -1.437370   -3.822022    2.605058
 C   -1.424071   -3.940271    0.085937
 C   -2.244565   -0.089050    0.148560
 C   -1.016700   -0.117362   -0.782774
 O   -1.319912    0.394197   -2.060850
 C    0.191562    0.651677   -0.222795
 C    0.112330    2.159810   -0.483944
 C   -1.121863    2.824975    0.076021
 C   -1.245409    3.038113    1.451007
 C   -2.393124    3.616098    1.984149
 C   -3.446797    3.974580    1.147837
 C   -3.342358    3.745156   -0.222387
 C   -2.188834    3.176455   -0.755014
 N    1.431844    0.158135   -0.797797
 C    1.987847   -1.005061   -0.386816
 O    1.569498   -1.669297    0.551104
 C    3.200904   -1.480813   -1.197589
 O    3.685225   -0.443873   -2.042149
 C    4.939174   -0.049502   -1.671560
 O    5.529456    0.833585   -2.229389
 C    4.382331   -1.871372   -0.301940
 N    5.346440   -0.833661   -0.603408
 C    6.562646   -0.702117    0.097548
 C    6.994124   -1.738136    0.933717
 C    8.185168   -1.614875    1.640957
 C    8.949547   -0.462744    1.534464
 C    7.333702    0.458200   -0.015186
 C    8.518753    0.577604    0.708455
 C    9.380640    1.808364    0.641696
 O   10.417852    1.865648    1.271883
 C    8.922675    2.962511   -0.221168
 H   -6.459725   -2.195732    0.612331
 H   -8.352632   -0.802133    1.370463
 H   -9.281255    0.977084    2.480149
 H  -10.380845    2.136323    1.681436
 H  -10.221816    0.474966    1.044689
 H   -6.781407    2.536450   -0.819052
 H   -4.878910    1.100194   -1.616101
 H   -2.919880   -1.625373    2.201701
 H   -3.706291   -2.926391    1.289887
 H   -0.698935   -2.308240    1.273816
 H   -2.268664   -4.534899    2.684996
 H   -1.469878   -3.166454    3.483266
 H   -0.502887   -4.392660    2.646080
 H   -2.229512   -4.687429    0.076091
 H   -1.484967   -3.380491   -0.855243
 H   -0.467227   -4.474334    0.096471
 H   -2.900470    0.742821   -0.122031
 H   -1.915502    0.078465    1.179325
 H   -0.708664   -1.174106   -0.870664
 H   -2.109715   -0.084394   -2.372072
 H    0.255266    0.457501    0.854430
 H    1.012742    2.608476   -0.045877
 H    0.153396    2.320039   -1.566277
 H   -0.429819    2.745508    2.111573
 H   -2.466021    3.786793    3.055699
 H   -4.343995    4.425482    1.563133
 H   -4.167484    4.011730   -0.880409
 H   -2.124924    2.956950   -1.818818
 H    1.772877    0.590641   -1.644239
 H    2.884054   -2.316312   -1.827949
 H    4.763622   -2.865408   -0.563716
 H    4.098530   -1.879159    0.752479
 H    6.403880   -2.642088    1.037673
 H    8.511558   -2.428305    2.283679
 H    9.880239   -0.341919    2.079552
 H    6.986915    1.240094   -0.680724
 H    7.935983    3.313206    0.100984
 H    8.830467    2.644189   -1.265709
 H    9.649101    3.772103   -0.142910
