56 
2i0h_ligand_dft.xyz
 C    0.201729    3.191200   -1.351300
 C   -2.770027    2.125865   -1.341682
 C   -1.738441    2.069230   -0.410740
 C   -2.038932    2.070478    0.952291
 C   -3.361671    2.117487    1.379549
 C   -4.383360    2.186140    0.439879
 C   -4.091317    2.187972   -0.920962
 C    1.625507    3.032578   -1.637635
 N   -0.382337    2.029345   -0.852256
Cl   -0.766383    2.058099    2.138426
 C    2.262072    1.870306   -1.410033
 C    1.508687    0.756868   -0.884144
 N    0.240571    0.842664   -0.618073
 O   -0.434581    4.219609   -1.522015
 N    2.115412   -0.479282   -0.708793
 C    1.276292   -1.621087   -0.355369
 C    3.514173   -0.589640   -0.523822
 C    4.253803   -1.361248   -1.425785
 C    5.621418   -1.545916   -1.285443
 C    6.262150   -0.921988   -0.225654
 C    5.577710   -0.141215    0.690861
 C    4.202195    0.007355    0.544657
Cl    3.350774    0.959588    1.727411
 F    7.583099   -1.073766   -0.078139
 C    0.902490   -1.678253    1.128068
 C   -0.141793   -2.754902    1.420633
 N   -1.426158   -2.471117    0.803002
 C   -1.819811   -2.952334   -0.445911
 C   -3.191948   -2.412631   -0.674191
 C   -3.551972   -1.661054    0.437538
 C   -2.412153   -1.677668    1.400936
 C   -4.048847   -2.582242   -1.745182
 C   -5.302148   -1.969262   -1.664382
 C   -5.670258   -1.228055   -0.540179
 C   -4.794466   -1.066174    0.536186
 O   -1.155615   -3.665497   -1.164933
 O   -2.324147   -1.151677    2.485339
 H   -2.516172    2.135999   -2.395819
 H   -3.576530    2.107278    2.442039
 H   -5.414434    2.236031    0.776841
 H   -4.890234    2.237134   -1.653318
 H    2.131144    3.904779   -2.035726
 H    3.319090    1.751763   -1.624587
 H    1.808438   -2.531408   -0.648866
 H    0.378291   -1.557906   -0.971661
 H    3.723703   -1.817303   -2.255874
 H    6.190576   -2.145990   -1.985821
 H    6.107074    0.327692    1.511477
 H    0.510321   -0.708256    1.446295
 H    1.796992   -1.884949    1.728106
 H   -0.312560   -2.827018    2.497476
 H    0.180149   -3.732922    1.050081
 H   -3.754818   -3.171684   -2.607307
 H   -6.004914   -2.076245   -2.484977
 H   -6.654351   -0.770779   -0.503244
 H   -5.068473   -0.494594    1.415516
