39 
2i0j_ligand_ani.xyz
 C    1.409060    1.503143   -0.735725
 C    2.166433    0.228640   -0.396430
 C    3.557229    0.176648   -0.515439
 C    4.269931   -0.970908   -0.182666
 C    3.587854   -2.089297    0.293768
 C   -2.979651    0.312607   -1.291541
 C   -3.908599   -1.079641    0.917062
 C   -2.541110   -0.934466    0.707861
 C    1.176360    2.403705    1.471189
 C   -0.206693    1.828437    1.098675
 C   -0.085619    1.372919   -0.377926
 O    5.625038   -0.940566   -0.331963
 C    2.206719   -2.053533    0.415490
 C    1.495339   -0.909536    0.058118
 O    0.137558   -0.949981    0.193026
 C   -0.580926   -0.046670   -0.642827
 C   -2.060143   -0.236585   -0.396266
 C   -4.345006    0.172364   -1.100586
 C   -4.813581   -0.526705    0.012693
 O   -6.162493   -0.635134    0.161135
 C    1.843962    2.702979    0.124557
 H    1.538713    1.707344   -1.807039
 H    4.113296    1.039766   -0.872514
 H    4.133717   -2.991295    0.568855
 H   -2.613279    0.865951   -2.155978
 H   -4.270330   -1.627189    1.787190
 H   -1.841118   -1.373677    1.412663
 H    1.761158    1.641037    1.999693
 H    1.113140    3.281825    2.122419
 H   -0.478827    0.991997    1.749782
 H   -0.997367    2.579757    1.192870
 H   -0.644938    2.068360   -1.016160
 H    5.986208   -1.793034   -0.059216
 H    1.656633   -2.916937    0.777429
 H   -0.364596   -0.301000   -1.692584
 H   -5.062780    0.596572   -1.796509
 H   -6.352120   -1.133757    0.965914
 H    1.441652    3.627304   -0.307564
 H    2.930673    2.817806    0.193113
