46 
2i0y_ligand_ani.xyz
 C    4.722044   29.453056    6.748799
 C    4.022617   30.603994    7.104398
 C    4.006950   31.033415    8.429468
 C    6.245833   28.456469    3.495838
 C    6.022254   29.385695    4.682689
 C    3.638729   29.077909    4.579216
 C    3.769856   28.107434    3.411202
 C    5.018948   28.414590    2.580840
 C    5.204602   27.395290    1.457863
 C    4.710803   30.803137   10.840732
 C    6.870606   26.715089    8.023820
 C    7.418191   25.632046    7.184700
 C    8.253787   24.601177    7.484587
 C    7.549177   24.301084    3.925499
 C    4.689549   30.319409    9.412812
 C    5.384853   29.158904    9.068345
 C    5.395851   28.722543    7.752594
 N    4.824376   28.963730    5.413847
 O    3.521412   31.517473   11.114713
 N    6.034582   27.543773    7.334002
 O    7.178563   26.811437    9.202980
 C    8.453664   23.886611    6.271642
 C    7.726757   24.536828    5.322081
 O    7.084295   25.605976    5.861131
 N    7.419204   24.098167    2.791558
 H    3.483981   31.165152    6.344168
 H    3.451720   31.921468    8.713083
 H    6.453683   27.442987    3.864701
 H    7.131276   28.776737    2.930940
 H    6.877240   29.356277    5.365753
 H    5.923525   30.432281    4.337329
 H    3.500561   30.105279    4.186646
 H    2.762393   28.835027    5.186640
 H    2.870935   28.146598    2.782516
 H    3.844308   27.086787    3.813376
 H    4.891010   29.415670    2.136267
 H    6.109690   27.601056    0.875126
 H    5.301295   26.384933    1.875545
 H    4.349383   27.393144    0.772819
 H    4.822023   29.937797   11.514364
 H    5.593173   31.447221   10.996299
 H    8.666833   24.396423    8.463876
 H    5.925240   28.578277    9.809555
 H    3.600453   31.893890   11.998834
 H    5.835433   27.303806    6.369601
 H    9.056343   23.004953    6.105208
