46 
2i1m_ligand_xtb.xyz
 C   -1.615609    1.037734   -0.023702
 C   -2.827052    1.704437   -0.122820
 C   -4.020545    1.001766   -0.159806
 C    1.796081    1.909059    1.134031
 C    0.296449    1.690882    1.317933
 C   -0.221443    2.950671   -0.648571
 C    1.261131    3.206677   -0.918179
 C    2.055527    3.219334    0.388989
 C    3.545367    3.416512    0.130068
 C   -5.313102   -1.164716   -0.106747
 C   -0.041275   -2.288763    0.161046
 C    1.420868   -2.502247    0.041086
 C    2.156581   -3.657349    0.164952
 C    4.559873   -1.053630   -0.499131
 C   -4.026214   -0.381359   -0.092582
 C   -2.820541   -1.069281   -0.022365
 C   -1.625744   -0.371863   -0.004696
 N   -0.354308    1.669754    0.015107
 O   -6.423039   -0.304190   -0.231499
 N   -0.374329   -0.989419   -0.019842
 O   -0.802121   -3.203518    0.409546
 C    3.500987   -3.295556   -0.024903
 C    3.498290   -1.936632   -0.252404
 O    2.234038   -1.457847   -0.212107
 N    5.427262   -0.330376   -0.699880
 H   -2.845470    2.782931   -0.159934
 H   -4.959278    1.526529   -0.229773
 H    2.219953    1.082932    0.558748
 H    2.284430    1.926183    2.109848
 H   -0.115253    2.503694    1.940646
 H    0.103830    0.748912    1.836235
 H   -0.773892    2.911587   -1.590019
 H   -0.625188    3.776014   -0.038164
 H    1.376083    4.159458   -1.437362
 H    1.647244    2.417120   -1.565951
 H    1.691682    4.048298    1.007952
 H    3.941986    2.598014   -0.466865
 H    3.720195    4.347876   -0.403400
 H    4.094100    3.449686    1.068376
 H   -5.380766   -1.747552    0.825624
 H   -5.283729   -1.879420   -0.944393
 H    1.763346   -4.631783    0.366998
 H   -2.802745   -2.146763    0.007484
 H   -7.225568   -0.834662   -0.236025
 H    0.368578   -0.325495   -0.218308
 H    4.361302   -3.932905   -0.000143
