62 
2i2c_ligand_ani.xyz
 N   -2.031508    3.173955   -1.878060
 C   -0.919974    3.181990   -1.100296
 N   -0.874447    3.971703   -0.017538
 C    0.209725    3.900562    0.755577
 N    1.295389    3.136353    0.588397
 C    1.226539    2.365174   -0.498914
 C    0.154146    2.324579   -1.388183
 N    0.396546    1.429428   -2.415718
 C    1.591747    0.965864   -2.154723
 N    2.155441    1.475279   -0.998012
 C    3.548455    1.334750   -0.610353
 O    4.003789    0.057598   -1.011668
 C    3.747435    1.382972    0.906787
 O    3.958805    2.681081    1.385688
 C    4.997477    0.525724    1.074665
 O    6.141562    1.257893    0.705981
 C    4.769938   -0.563347    0.023567
 C    3.996424   -1.750783    0.585135
 S    3.551243   -2.891802   -0.761168
 S    2.144313   -4.058687    0.175476
 C    0.566033   -3.424986   -0.490576
 C    0.293593   -1.942378   -0.255942
 O   -0.965101   -1.650489   -0.861610
 C    0.196334   -1.500003    1.221295
 O    1.048230   -0.389130    1.434762
 C   -1.277409   -1.096005    1.377146
 O   -1.400909   -0.015987    2.258237
 C   -1.665457   -0.736176   -0.057119
 N   -3.079594   -0.880897   -0.336301
 C   -3.640736   -1.417577   -1.482171
 N   -4.938722   -1.325644   -1.529808
 C   -5.268465   -0.676934   -0.348485
 C   -4.134971   -0.388695    0.397916
 N   -4.108676    0.243129    1.574803
 C   -5.333747    0.591292    1.990016
 N   -6.499746    0.379066    1.386276
 C   -6.491635   -0.261414    0.205535
 N   -7.660773   -0.506159   -0.420412
 H   -2.682857    3.935540   -1.759475
 H   -1.948270    2.751815   -2.791680
 H    0.213137    4.551646    1.623450
 H    2.125256    0.234470   -2.747797
 H    4.149512    2.109682   -1.109778
 H    2.877223    0.895958    1.375697
 H    3.094016    3.135530    1.320183
 H    5.098857    0.121169    2.094853
 H    6.012582    2.152344    1.055066
 H    5.723224   -0.890644   -0.406570
 H    3.076705   -1.414656    1.078294
 H    4.614450   -2.288876    1.312293
 H    0.527247   -3.624703   -1.566723
 H   -0.210805   -4.031715   -0.013342
 H    1.057374   -1.326027   -0.746808
 H    0.470020   -2.309124    1.916478
 H    0.520521    0.280155    1.907705
 H   -1.883941   -1.956228    1.690408
 H   -2.338107    0.268724    2.244462
 H   -1.343857    0.287880   -0.285381
 H   -3.004349   -1.852878   -2.240901
 H   -5.379251    1.108369    2.940851
 H   -7.648001   -0.901444   -1.347470
 H   -8.510679   -0.118036   -0.044500
