48 
2i3z_ligand_dft.xyz
 C    0.326236    3.084133    0.296467
 C   -1.263821    0.006741   -0.733067
 N   -2.208869   -0.987890   -0.997141
 C   -2.603032   -1.837326    0.124410
 C   -4.832845   -0.669198    0.289080
 C   -3.376018   -0.546554   -1.784502
 C    1.915467   -1.750386   -0.614421
 C    3.092660   -2.146060   -1.237823
 C    4.214233   -2.514588   -0.499533
 C    3.024838   -2.085660    1.540142
 C    0.733488   -1.314383    1.530532
 C    1.997217    1.670722   -0.575183
 C    0.668190    1.011741   -0.674668
 C   -0.299503    1.815675   -0.174995
 N    1.696793    2.906309    0.006989
 N    0.067998   -0.158793   -1.031452
 N   -1.511621    1.199743   -0.195903
 O    3.090981    1.279889   -0.898442
 O   -0.163317    4.050624    0.818470
 C    2.708603    3.911461    0.275133
 C   -3.619204   -1.178565    1.070483
 C   -4.440873    0.163424   -0.940615
 N   -2.956093   -0.046558    1.820995
 C    0.726407   -1.379744   -1.479809
 C    4.183905   -2.483853    0.889951
 C    1.895096   -1.724308    0.795589
 N   -0.198125   -0.990053    2.140706
 H   -3.086170   -2.730397   -0.287504
 H   -1.718156   -2.169881    0.668000
 H   -5.389251   -1.558367   -0.030277
 H   -5.507291   -0.105288    0.943933
 H   -3.798495   -1.446124   -2.248525
 H   -3.022779    0.102079   -2.588697
 H    3.143705   -2.153075   -2.322237
 H    5.119980   -2.812483   -1.016892
 H    2.983416   -2.048126    2.623532
 H    3.201974    4.209400   -0.652564
 H    2.205945    4.771740    0.718151
 H    3.455251    3.522446    0.971077
 H   -3.923718   -1.901015    1.832670
 H   -4.067319    1.148954   -0.643846
 H   -5.330722    0.337725   -1.552717
 H   -2.650031    0.708567    1.160692
 H   -2.078174   -0.368058    2.269857
 H   -3.576614    0.350495    2.529213
 H    1.059352   -1.240527   -2.511213
 H   -0.038864   -2.160918   -1.481562
 H    5.059804   -2.760188    1.466308
