69 
2i4p_ligand_ani.xyz
 C   -6.359032    2.303849   -1.117673
 C   -6.691661    0.934225   -0.538155
 C   -5.459834    0.044480   -0.293764
 C   -4.827832   -0.252401   -1.662015
 O   -3.924967    0.358667   -2.175397
 O   -5.448463   -1.276650   -2.283128
 C   -5.878034   -1.225227    0.450790
 O   -4.558038    0.842197    0.474673
 C   -3.404997    0.327258    0.994560
 C   -2.881275    1.024960    2.088026
 C   -1.700647    0.609683    2.679705
 C   -2.715645   -0.775834    0.493605
 C   -1.531287   -1.176615    1.101918
 C   -1.005128   -0.506462    2.208360
 C    0.307549   -0.908123    2.830979
 C    1.482534   -0.088438    2.280299
 N    1.676373   -0.283795    0.856020
 C    1.017138    0.585356   -0.110199
 C    1.987198    1.522189   -0.821390
 C    2.726514    2.469967    0.120448
 C    3.670113    3.418617   -0.618191
 C    4.400318    4.377596    0.321231
 C    5.426739    5.278033   -0.373357
 C    4.816531    6.213435   -1.416116
 C    2.328448   -1.394088    0.457775
 O    2.379679   -1.627185   -0.888210
 C    3.097682   -2.801556   -0.989516
 C    3.445815   -3.492425   -2.132385
 C    4.179211   -4.658469   -1.932317
 C    4.532315   -5.087713   -0.646457
 C    4.167232   -4.370802    0.487639
 C    3.431847   -3.199816    0.302667
 N    2.919140   -2.273334    1.216839
 H   -5.845223    2.221147   -2.081034
 H   -7.276549    2.880683   -1.268869
 H   -5.706193    2.857167   -0.437951
 H   -7.373226    0.388789   -1.202333
 H   -7.207941    1.054501    0.422600
 H   -5.012411   -1.364995   -3.146972
 H   -6.228804   -0.947790    1.448501
 H   -5.061223   -1.943100    0.560624
 H   -6.693384   -1.709489   -0.088416
 H   -3.417333    1.892334    2.462780
 H   -1.302742    1.164799    3.529199
 H   -3.074311   -1.335201   -0.364212
 H   -0.995375   -2.035162    0.701184
 H    0.524053   -1.966713    2.645351
 H    0.265490   -0.772393    3.919207
 H    2.405860   -0.377992    2.789762
 H    1.314696    0.980861    2.465280
 H    0.475000   -0.028217   -0.838996
 H    0.265645    1.157509    0.444270
 H    2.707556    0.922770   -1.390286
 H    1.414610    2.106036   -1.555502
 H    2.000545    3.066021    0.696799
 H    3.300609    1.884680    0.853387
 H    3.098041    3.989479   -1.363388
 H    4.409266    2.831647   -1.183683
 H    4.906776    3.793842    1.102423
 H    3.658623    5.004937    0.838054
 H    5.948052    5.873844    0.386582
 H    6.193875    4.651418   -0.849646
 H    4.024883    6.830713   -0.974767
 H    5.571671    6.887233   -1.834094
 H    4.376671    5.656272   -2.250209
 H    3.169058   -3.154329   -3.125901
 H    4.484755   -5.249050   -2.791924
 H    5.105967   -6.003962   -0.529698
 H    4.447867   -4.714699    1.479554
