60 
2i7c_ligand_ani.xyz
 N   -4.152759    1.519591    2.304487
 C   -2.940250    2.392036    2.145549
 C   -2.579794    2.500013    0.683009
 C   -1.435433    2.124748    0.100030
 S   -1.383600    1.817977   -1.660661
 C   -2.896467    0.846238   -1.920771
 C   -2.874866   -0.596798   -1.435256
 O   -1.774273   -1.292306   -2.020683
 C   -2.733402   -0.818097    0.077587
 O   -3.955353   -0.724331    0.768997
 C   -2.057804   -2.188789    0.151885
 O   -3.085553   -3.163796    0.024735
 C   -1.166578   -2.176582   -1.099124
 N    0.180920   -1.678670   -0.811761
 C    0.895619   -0.806372   -1.603807
 N    2.147319   -0.671282   -1.251317
 C    2.297940   -1.536937   -0.184909
 C    3.389732   -1.892906    0.620654
 N    4.641591   -1.327290    0.428962
 N    3.222747   -2.755359    1.625740
 C    1.994489   -3.263205    1.807870
 N    0.884695   -3.022941    1.118277
 C    1.088313   -2.157038    0.117549
 C   -0.123995    1.866449    0.800919
 C    1.040065    2.752534    0.344315
 C    2.313549    2.433621    1.127978
 C    3.557921    3.180484    0.643037
 C    3.991399    2.851852   -0.788536
 N    4.280015    1.398131   -0.977886
 H   -4.418858    1.406037    3.295978
 H   -4.939839    1.946140    1.781946
 H   -3.956369    0.579829    1.895355
 H   -2.135170    1.963455    2.740165
 H   -3.171833    3.380513    2.546076
 H   -3.373471    2.911652    0.060791
 H   -3.750326    1.376507   -1.487797
 H   -3.029614    0.838867   -3.006072
 H   -3.809906   -1.067404   -1.777033
 H   -2.038554   -0.093057    0.503257
 H   -4.335696   -1.618178    0.766984
 H   -1.486992   -2.330141    1.071341
 H   -2.784923   -3.984285    0.431709
 H   -1.096344   -3.174124   -1.549835
 H    0.410737   -0.293532   -2.418944
 H    4.859385   -1.152234   -0.546095
 H    5.364601   -1.850523    0.912834
 H    1.898073   -3.961417    2.635738
 H    0.154981    0.815575    0.621302
 H   -0.253107    1.976940    1.883992
 H    0.780236    3.811597    0.472359
 H    1.201187    2.602261   -0.728832
 H    2.495876    1.349052    1.101828
 H    2.147864    2.680894    2.185904
 H    4.395535    2.970976    1.321539
 H    3.380754    4.261849    0.702720
 H    3.218726    3.133627   -1.503542
 H    4.893129    3.410455   -1.037101
 H    4.733427    1.021861   -0.124284
 H    3.398728    0.863854   -1.162176
 H    4.912464    1.276033   -1.787309
