60 
2i7c_ligand_xtb.xyz
 N   -4.123589    1.419345    2.413171
 C   -2.905432    2.298887    2.358670
 C   -2.465269    2.375851    0.932773
 C   -1.255935    2.098796    0.441687
 S   -1.009719    1.934393   -1.314527
 C   -2.545334    1.181589   -1.935527
 C   -2.658168   -0.306180   -1.631669
 O   -1.606797   -1.007967   -2.289311
 C   -2.558061   -0.732129   -0.151428
 O   -3.753040   -0.604476    0.570554
 C   -2.078450   -2.186217   -0.299803
 O   -3.216208   -2.933913   -0.624142
 C   -1.097956   -2.024288   -1.481659
 N    0.229770   -1.637734   -1.005696
 C    1.077666   -0.785001   -1.626215
 N    2.233283   -0.672578   -1.020114
 C    2.170710   -1.516184    0.069656
 C    3.054814   -1.895310    1.104993
 N    4.319710   -1.446772    1.240385
 N    2.586147   -2.706026    2.049922
 C    1.357507   -3.175341    1.982934
 N    0.461848   -2.944035    1.036527
 C    0.900251   -2.116929    0.093312
 C    0.008603    1.864849    1.218282
 C    1.170463    2.691600    0.650329
 C    2.535408    2.108349    1.010662
 C    3.673625    2.779799    0.239331
 C    3.687919    2.500194   -1.260273
 N    4.074129    1.096390   -1.560125
 H   -4.337625    1.124058    3.371426
 H   -4.937935    1.921345    2.041767
 H   -3.975322    0.571858    1.800259
 H   -2.136896    1.859969    2.993128
 H   -3.169601    3.283827    2.751052
 H   -3.267129    2.622014    0.251433
 H   -3.416414    1.725016   -1.580050
 H   -2.472631    1.304041   -3.016323
 H   -3.621304   -0.661522   -2.030089
 H   -1.796654   -0.147522    0.369024
 H   -4.299836   -1.372536    0.331686
 H   -1.570221   -2.576574    0.588466
 H   -3.011957   -3.875003   -0.658726
 H   -1.002419   -2.944262   -2.074211
 H    0.800509   -0.257092   -2.516626
 H    4.840568   -1.170320    0.426700
 H    4.842565   -1.883505    1.985942
 H    1.049335   -3.829614    2.784931
 H    0.269620    0.803841    1.139373
 H   -0.128205    2.099420    2.272985
 H    1.096065    3.716671    1.012193
 H    1.065627    2.719365   -0.434180
 H    2.538829    1.035039    0.819911
 H    2.716003    2.247196    2.076808
 H    4.628766    2.471443    0.668636
 H    3.597109    3.858957    0.373036
 H    2.709224    2.679811   -1.704011
 H    4.406175    3.172181   -1.734331
 H    4.934116    0.874540   -1.054613
 H    3.252576    0.319826   -1.294815
 H    4.257668    0.993966   -2.559985
