125 
2ie4_ligand_xtb.xyz
 C    7.866534    2.645906    0.087552
 C    7.204364    2.407668   -1.276139
 C    8.171286    1.544714   -2.108465
 C    8.454439    0.178294   -1.479652
 C    9.637569   -0.517678   -2.171688
 C    9.467166   -2.039438   -2.116620
 C    8.739648   -2.440479   -0.835220
 C    7.311821   -1.820578   -0.846620
 C    6.344883   -2.768269   -1.507194
 C    5.228089   -3.187336   -0.927476
 C    4.861381   -2.696191    0.445595
 C    5.583404   -1.374903    0.695618
 C    5.365832   -0.737429    2.081782
 C    4.042230   -0.029721    2.053495
 C    3.913262    1.219560    1.641953
 C    2.610142    1.939561    1.436653
 C    2.528869    2.479838    0.000388
 C    1.887824    1.303539   -0.726640
 C    0.936355    0.740831    0.337590
 C    0.726592   -0.777315    0.231701
 C   -0.313726   -1.251754    1.243187
 C   -1.595048   -0.450208    1.033578
 C   -1.259387    1.038089    1.148711
 C   -2.524827    1.874835    0.932159
 C   -3.538741    1.415306    1.947823
 C   -3.759592   -0.073803    1.986959
 C   -4.668153   -0.574592    0.833573
 C   -6.086859   -0.026066    0.973312
 C   -6.957438   -0.369477   -0.240960
 C   -8.459223   -0.305008    0.092534
 C   -8.921409   -1.260967    1.207900
 C  -10.437947   -1.094738    1.363833
 C  -11.156953   -1.328969    0.040399
 C  -10.548178   -0.445674   -1.058978
 C  -11.087545   -0.856993   -2.440723
 C  -10.671007    0.147555   -3.511196
 C  -11.108831    1.544575   -3.082392
 C  -10.512396    1.837437   -1.708773
 C   -8.525570   -2.707104    0.918520
 C   -6.649113    0.577159   -1.400800
 C   -4.158397    2.255254    2.759607
 C    5.471024   -1.731416    3.233547
 C    4.284409   -4.153162   -1.569146
 C    7.014530    3.782463   -1.931257
 O    8.942547    3.166357    0.225284
 O    7.133811    2.229473    1.119893
 O    5.940988    1.807506   -1.148408
 O    7.272072   -0.616178   -1.594989
 O    9.491367   -2.022626    0.273169
 O    6.980497   -1.569040    0.500673
 O    1.493617    1.066389    1.590289
 O   -0.303075    1.413951    0.173722
 O   -2.548048   -0.826655    2.005030
 O   -2.257394    3.245943    1.053698
 O   -4.710606   -1.982865    0.868748
 O   -9.149496   -0.598668   -1.119090
 O  -10.917273    0.883576   -0.745168
 H    9.114728    2.080969   -2.208030
 H    7.736303    1.387863   -3.097154
 H    8.685144    0.296828   -0.411727
 H    9.699777   -0.198316   -3.212607
 H   10.554297   -0.225946   -1.662044
 H    8.878075   -2.385730   -2.966581
 H   10.439126   -2.529304   -2.142214
 H    8.615164   -3.536929   -0.799964
 H    6.626009   -3.081469   -2.499786
 H    3.782610   -2.556505    0.525608
 H    5.170395   -3.438989    1.184931
 H    5.231908   -0.651074   -0.055204
 H    6.159981    0.008964    2.181277
 H    3.169919   -0.606155    2.327185
 H    4.784510    1.797876    1.370936
 H    2.507523    2.737569    2.183461
 H    1.876751    3.351840   -0.044139
 H    3.509382    2.728334   -0.397260
 H    1.334279    1.594367   -1.614992
 H    2.638709    0.557384   -0.984022
 H    1.682470   -1.270388    0.407877
 H    0.392721   -1.001463   -0.783631
 H    0.045537   -1.071446    2.257171
 H   -0.513225   -2.317967    1.126260
 H   -1.978564   -0.640318    0.016667
 H   -0.860850    1.242262    2.153396
 H   -2.900136    1.662978   -0.086338
 H   -4.244770   -0.347475    2.931254
 H   -4.235474   -0.251180   -0.126060
 H   -6.041280    1.055929    1.104932
 H   -6.505664   -0.466861    1.876469
 H   -6.730412   -1.389353   -0.556622
 H   -8.709898    0.722288    0.404065
 H   -8.463005   -0.948751    2.151045
 H  -10.650703   -0.076542    1.696325
 H  -10.815188   -1.787705    2.119036
 H  -11.065978   -2.371713   -0.263589
 H  -12.213410   -1.079153    0.136444
 H  -10.701309   -1.848092   -2.677149
 H  -12.176197   -0.904008   -2.377975
 H  -11.118907   -0.120910   -4.470036
 H   -9.585196    0.122224   -3.617499
 H  -10.769972    2.297329   -3.795363
 H  -12.198256    1.586923   -3.019073
 H  -10.858581    2.797279   -1.318088
 H   -9.416945    1.853181   -1.783333
 H   -8.781082   -2.970226   -0.104491
 H   -7.455329   -2.841756    1.051147
 H   -9.044743   -3.382232    1.595852
 H   -6.858398    1.607287   -1.116244
 H   -7.260868    0.317180   -2.259359
 H   -5.603825    0.506108   -1.689663
 H   -3.973053    3.311978    2.692821
 H   -4.862888    1.915361    3.498713
 H    4.628583   -2.418925    3.236219
 H    5.470777   -1.194443    4.179265
 H    6.394262   -2.301134    3.159256
 H    4.669893   -4.502193   -2.522706
 H    4.125342   -5.009718   -0.915517
 H    3.318126   -3.677422   -1.733397
 H    7.953501    4.327252   -1.934360
 H    6.270049    4.345942   -1.374661
 H    6.660239    3.651166   -2.949735
 H    7.590535    2.422803    1.955050
 H    6.076529    0.847390   -1.168707
 H    8.879768   -1.912817    1.013305
 H   -1.423265    3.402476    0.593934
 H   -3.875493   -2.279932    1.258411
