125 
2ie4_ligand_ani.xyz
 C    7.844024    2.789714    0.671502
 C    7.574641    2.826184   -0.840214
 C    8.745895    2.097832   -1.540207
 C    8.935504    0.628109   -1.172454
 C   10.192665    0.044975   -1.844956
 C   10.017774   -1.441027   -2.175144
 C    9.124113   -2.087217   -1.124215
 C    7.704272   -1.449356   -1.160090
 C    6.801217   -2.174608   -2.114742
 C    5.574106   -2.591192   -1.811255
 C    5.040499   -2.365397   -0.420864
 C    5.807225   -1.247728    0.279022
 C    5.471720   -1.047339    1.769823
 C    4.036890   -0.616431    1.907470
 C    3.646076    0.642110    2.103926
 C    2.209634    1.091758    2.222839
 C    1.955154    2.406281    1.459763
 C    1.406247    1.907717    0.123392
 C    0.602250    0.683258    0.555653
 C    0.435244   -0.384056   -0.526272
 C   -0.492711   -1.509287   -0.062724
 C   -1.795658   -0.895368    0.425161
 C   -1.489864    0.113119    1.523187
 C   -2.776168    0.764532    2.008611
 C   -3.715140   -0.333363    2.442442
 C   -3.897867   -1.444530    1.426345
 C   -4.812164   -1.052477    0.238268
 C   -6.241324   -0.730372    0.653686
 C   -7.187305   -0.547716   -0.542088
 C   -8.611921   -0.225958   -0.087739
 C   -9.237130   -1.216972    0.907749
 C  -10.670522   -0.750682    1.199969
 C  -11.476021   -0.580298   -0.087510
 C  -10.734194    0.317212   -1.072224
 C  -11.423160    0.353086   -2.436670
 C  -10.813940    1.417698   -3.351014
 C  -10.779315    2.765991   -2.631414
 C  -10.082577    2.604111   -1.286007
 C   -9.187886   -2.661685    0.399584
 C   -6.691290    0.551811   -1.491561
 C   -4.332492   -0.323120    3.619003
 C    5.773556   -2.279268    2.628974
 C    4.695213   -3.349371   -2.760798
 C    7.545826    4.293781   -1.268623
 O    8.731696    3.428108    1.185783
 O    7.061952    1.961393    1.392151
 O    6.330733    2.255072   -1.173212
 O    7.769187   -0.098733   -1.586798
 O    9.725540   -1.871906    0.132427
 O    7.206694   -1.515256    0.169595
 O    1.318662    0.126795    1.649731
 O   -0.659576    1.146180    1.009764
 O   -2.648758   -1.917193    0.918874
 O   -2.520677    1.659070    3.066615
 O   -4.859268   -2.125095   -0.683309
 O   -9.418199   -0.165714   -1.269798
 O  -10.724475    1.612496   -0.493106
 H    9.667226    2.643442   -1.309636
 H    8.580497    2.157658   -2.624179
 H    9.033970    0.534656   -0.085270
 H   10.432416    0.601843   -2.759895
 H   11.030513    0.187007   -1.154403
 H    9.571958   -1.574518   -3.168159
 H   10.985115   -1.950691   -2.190315
 H    9.025968   -3.170124   -1.317821
 H    7.218619   -2.322893   -3.109659
 H    3.973376   -2.117617   -0.461677
 H    5.127425   -3.305596    0.140398
 H    5.590104   -0.301063   -0.234146
 H    6.119791   -0.221487    2.100219
 H    3.283931   -1.398947    1.796787
 H    4.377617    1.444032    2.214481
 H    1.941462    1.187964    3.284978
 H    1.200201    3.000885    1.980908
 H    2.865033    3.009302    1.365943
 H    0.786337    2.637162   -0.405766
 H    2.223473    1.593986   -0.537433
 H    1.425737   -0.775053   -0.788857
 H    0.023363    0.096007   -1.425262
 H   -0.027333   -2.064763    0.760063
 H   -0.686788   -2.214610   -0.876788
 H   -2.270335   -0.360440   -0.414526
 H   -1.000523   -0.391143    2.367441
 H   -3.225806    1.305291    1.156020
 H   -4.344086   -2.318685    1.919014
 H   -4.377071   -0.161406   -0.250501
 H   -6.242945    0.180761    1.270247
 H   -6.601621   -1.549542    1.289703
 H   -7.216970   -1.485027   -1.109366
 H   -8.603186    0.766324    0.390423
 H   -8.672093   -1.155901    1.848778
 H  -10.639554    0.212689    1.723647
 H  -11.167152   -1.467249    1.864649
 H  -11.659804   -1.553511   -0.560312
 H  -12.455299   -0.136360    0.123506
 H  -11.362174   -0.642007   -2.892229
 H  -12.485623    0.573431   -2.268499
 H  -11.383721    1.484820   -4.283721
 H   -9.791901    1.115847   -3.616608
 H  -10.256653    3.521836   -3.230404
 H  -11.800621    3.129692   -2.461335
 H  -10.124025    3.524077   -0.693804
 H   -9.025871    2.339492   -1.440699
 H   -9.636284   -2.743687   -0.595771
 H   -8.156490   -3.023396    0.324698
 H   -9.726399   -3.333108    1.077454
 H   -6.590995    1.514626   -0.969825
 H   -7.387497    0.686924   -2.323846
 H   -5.715498    0.297811   -1.918059
 H   -4.178803    0.489820    4.321851
 H   -4.988558   -1.136940    3.919619
 H    5.111767   -3.115454    2.376718
 H    5.622530   -2.044438    3.687130
 H    6.808312   -2.605688    2.488779
 H    5.181959   -3.498832   -3.729720
 H    4.435916   -4.335044   -2.355936
 H    3.754404   -2.814051   -2.934175
 H    8.482761    4.790056   -1.004490
 H    6.716671    4.810625   -0.777320
 H    7.392183    4.351424   -2.350123
 H    7.402482    2.038274    2.299959
 H    6.503957    1.316499   -1.366600
 H    9.006480   -1.918256    0.781105
 H   -1.791770    2.222745    2.771973
 H   -3.964759   -2.487990   -0.744607
