42 
2ieh_ligand_dft.xyz
 S   -3.915257   -2.172723    0.091813
 O    1.858150   -0.490325    2.480603
 O   -3.344932    3.130986   -1.351792
 N   -1.971321   -0.942120    1.388872
 N   -1.327169   -1.874209   -0.614981
 C   -2.337716   -1.636342    0.290580
 C    0.025188   -1.661760   -0.267145
 C    0.322611   -0.809787    0.731678
 C   -0.802901   -0.086981    1.434847
 C   -1.660744   -2.548456   -1.866837
 C    1.033335   -2.503357   -1.006302
 C    1.686843   -0.549690    1.272996
 C    2.815854   -0.262082    0.336234
 C    4.123470   -0.517054    0.758117
 C    5.194257   -0.214982   -0.073336
 C    4.966291    0.370772   -1.317699
 C    3.666313    0.652790   -1.730465
 C    2.591327    0.331135   -0.909306
 C   -1.021064    1.294350    0.817447
 C   -2.134048    1.568398    0.026843
 C   -2.275540    2.820817   -0.573510
 C   -1.304651    3.803540   -0.389191
 C   -0.201239    3.524439    0.407902
 C   -0.053033    2.281253    1.014904
 H   -3.947129    2.377153   -1.379071
 H   -2.721610   -0.773694    2.043298
 H   -0.518879    0.028076    2.484760
 H   -1.770686   -3.628460   -1.727225
 H   -2.608436   -2.155942   -2.232505
 H   -0.883901   -2.344974   -2.602595
 H    1.979876   -2.538649   -0.469403
 H    0.666847   -3.527926   -1.115806
 H    1.242494   -2.106272   -2.005428
 H    4.281307   -0.952888    1.739488
 H    6.208773   -0.427108    0.249899
 H    5.804509    0.615173   -1.963553
 H    3.490577    1.127512   -2.690872
 H    1.575585    0.560519   -1.218338
 H   -2.905914    0.815658   -0.119642
 H   -1.434354    4.769928   -0.864257
 H    0.552240    4.290986    0.562923
 H    0.809188    2.081466    1.645038
