25 
2igw_ligand_ani.xyz
 N   -2.834209    0.692163   -0.276316
 C   -2.043414    0.187383    0.883716
 C   -1.211900   -0.943589    0.271985
 O   -1.814338   -1.815851   -0.343336
 N    0.145192   -0.908286    0.357062
 C    0.945415    0.259111    0.696499
 C    0.593041    1.473653   -0.166420
 O    1.412853    2.505058    0.089073
 C    2.394002   -0.221891    0.475361
 C    2.258552   -1.304448   -0.598941
 C    0.931628   -1.981620   -0.257386
 O   -0.319643    1.549312   -0.958931
 H   -3.093201   -0.172335   -0.791855
 H   -3.656162    1.239537    0.006875
 H   -2.179308    1.253060   -0.848636
 H   -2.717507   -0.226946    1.631550
 H   -1.461262    0.988738    1.324450
 H    0.794040    0.566556    1.739567
 H    1.135243    3.233659   -0.492096
 H    2.765105   -0.657779    1.408306
 H    3.057847    0.598268    0.193328
 H    2.201133   -0.850602   -1.594020
 H    3.098710   -2.004224   -0.598358
 H    1.054799   -2.806152    0.455743
 H    0.388754   -2.368665   -1.123404
