36 
2ihq_ligand_ani.xyz
 C    0.853002   -1.733879    0.059921
 C    3.735166    2.437138    0.321988
 C    3.981858    1.128630   -0.008680
 C    2.936271    0.167851    0.003586
 C    3.183784   -1.212325   -0.268182
 C    2.437447    2.837516    0.686211
 C    1.404983    1.933285    0.690658
 C    1.610208    0.576275    0.307597
 C    4.511428   -1.653570   -0.573433
 C    0.565391   -0.401311    0.254016
 O   -3.620172   -1.663730   -0.617978
 C   -4.179677   -0.736630    0.286891
 C   -4.911960    0.314268   -0.548900
 C   -3.771842    1.162481   -1.144131
 N   -2.707876    1.047674   -0.142450
 C   -3.049022    0.095592    0.906582
 C   -1.762530   -0.666206    1.108096
 O   -1.630197   -1.700067    1.721487
 N   -0.792850    0.007293    0.373460
 C   -1.410457    0.868146   -0.561677
 O   -0.891987    1.328971   -1.550633
 C    2.165328   -2.139057   -0.215042
 N    5.578720   -2.031179   -0.821194
 H    0.061726   -2.473856    0.107957
 H    4.543326    3.163382    0.314134
 H    4.984416    0.806968   -0.275820
 H    2.252524    3.871993    0.964281
 H    0.411422    2.256689    0.990026
 H   -3.110254   -2.298341   -0.094570
 H   -4.808328   -1.224916    1.043504
 H   -5.537072   -0.153801   -1.311998
 H   -5.553888    0.927943    0.094932
 H   -3.417583    0.756756   -2.097816
 H   -4.043763    2.210421   -1.299275
 H   -3.367637    0.586879    1.831909
 H    2.381744   -3.187254   -0.391971
