48 
2iit_ligand_dft.xyz
 C   -5.361745    0.456867    0.323330
 C   -4.036052    0.831986    0.198718
 C   -2.987348   -0.059073    0.018132
 C   -3.318195   -1.417294   -0.037988
 C   -4.633202   -1.829782    0.082325
 C   -5.652836   -0.895703    0.266070
 F   -4.941124   -3.120066    0.030857
 F   -3.748045    2.168458    0.236031
 C   -1.550568    0.392636   -0.103637
 C   -1.176606    0.931113   -1.494636
 C    0.337051    0.928963   -1.743133
 C    1.069086    1.820903   -0.738027
 N    2.237151    1.427000   -0.184753
 N   -1.693316    2.345575   -1.648070
 O    0.563987    2.921753   -0.461180
 C    2.798290    2.263339    0.885685
 C    2.320297    1.834538    2.275039
 C    2.680888    0.402829    2.683300
 N    1.958918   -0.634836    1.951111
 C    1.889415   -0.851575    0.617686
 C    2.722063    0.046579   -0.316884
 C    4.246063   -0.064233   -0.208424
 O    1.115066   -1.664526    0.126358
 F   -6.904049   -1.314708    0.381000
 C    4.730515   -1.443241   -0.618189
 F    4.266958   -2.386769    0.216497
 F    4.321006   -1.757552   -1.857372
 F    6.063914   -1.489738   -0.596106
 H   -6.147052    1.189116    0.466631
 H   -2.546472   -2.170566   -0.162808
 H   -0.896359   -0.463633    0.089710
 H   -1.311313    1.150347    0.652317
 H   -1.664356    0.326316   -2.262555
 H    0.561155    1.307641   -2.748498
 H    0.640745   -0.116288   -1.709186
 H   -2.602668    2.470194   -1.186029
 H   -1.765909    2.630796   -2.626453
 H   -0.967311    2.940605   -1.165980
 H    2.492555    3.289372    0.687090
 H    3.887694    2.224061    0.814829
 H    2.768784    2.517977    3.004432
 H    1.234210    1.966303    2.338556
 H    2.419128    0.263596    3.733953
 H    3.762669    0.240422    2.621076
 H    1.365067   -1.256543    2.483868
 H    2.487186   -0.302627   -1.319670
 H    4.635739    0.120358    0.792512
 H    4.704171    0.660842   -0.887581
