48 
2iit_ligand_ani.xyz
 C   -5.353372    0.477055    0.437261
 C   -4.018243    0.827661    0.319842
 C   -2.996078   -0.083481    0.082704
 C   -3.367114   -1.424028   -0.059943
 C   -4.693327   -1.802830    0.044253
 C   -5.680316   -0.859634    0.293961
 F   -5.046184   -3.089244   -0.090975
 F   -3.695819    2.141650    0.434725
 C   -1.557119    0.352015   -0.060261
 C   -1.204331    0.868594   -1.472268
 C    0.307967    0.800225   -1.760542
 C    1.118950    1.782872   -0.912231
 N    2.353265    1.431698   -0.428687
 N   -1.688483    2.280363   -1.657507
 O    0.663993    2.906472   -0.694576
 C    2.919667    2.332433    0.584530
 C    2.336296    2.117535    1.980415
 C    2.598811    0.734374    2.576401
 N    1.891011   -0.363380    1.932027
 C    1.915077   -0.775499    0.634405
 C    2.760288    0.023707   -0.387473
 C    4.271221   -0.141192   -0.197003
 O    1.241099   -1.719843    0.258285
 F   -6.952610   -1.260478    0.393016
 C    4.701322   -1.568611   -0.442131
 F    4.102739   -2.420226    0.404290
 F    4.393901   -1.961760   -1.696613
 F    6.030218   -1.704893   -0.292083
 H   -6.119359    1.220116    0.625943
 H   -2.628246   -2.196905   -0.249925
 H   -0.916716   -0.509043    0.160789
 H   -1.319363    1.127992    0.675879
 H   -1.710010    0.233280   -2.205102
 H    0.494227    1.054038   -2.812966
 H    0.626968   -0.231291   -1.619860
 H   -2.549486    2.437024   -1.110741
 H   -1.868159    2.479645   -2.658364
 H   -0.914574    2.895472   -1.292965
 H    2.714875    3.351398    0.253031
 H    4.007205    2.204771    0.594473
 H    2.766085    2.872213    2.652503
 H    1.254914    2.292544    1.944916
 H    2.261671    0.732706    3.616294
 H    3.678999    0.535484    2.615394
 H    1.304998   -0.947999    2.511166
 H    2.539939   -0.417613   -1.360064
 H    4.603175    0.128991    0.806526
 H    4.793176    0.490760   -0.920197
