48 
2iit_ligand_xtb.xyz
 C   -5.410576    0.333746    0.235816
 C   -4.123832    0.823931    0.150479
 C   -3.000159    0.012468    0.057445
 C   -3.207966   -1.361038    0.042877
 C   -4.486857   -1.884003    0.122514
 C   -5.591125   -1.038632    0.222895
 F   -4.653579   -3.204712    0.104533
 F   -3.943063    2.173880    0.141052
 C   -1.602731    0.573259   -0.011680
 C   -1.246438    1.146975   -1.394180
 C    0.260708    1.021935   -1.663633
 C    1.061965    1.866673   -0.679736
 N    2.227014    1.434273   -0.189845
 N   -1.617139    2.590226   -1.455504
 O    0.623953    2.988063   -0.371571
 C    2.881462    2.240942    0.833654
 C    2.496512    1.806446    2.250325
 C    2.918592    0.381934    2.625550
 N    2.130025   -0.632400    1.952310
 C    1.892518   -0.793744    0.646639
 C    2.690146    0.065005   -0.367134
 C    4.212925   -0.100172   -0.352587
 O    0.993810   -1.499739    0.230399
 F   -6.820206   -1.537587    0.303328
 C    4.569419   -1.540749   -0.706110
 F    4.134407   -2.398823    0.224781
 F    4.037762   -1.919717   -1.873185
 F    5.889950   -1.696245   -0.799514
 H   -6.255972    0.997498    0.314675
 H   -2.372007   -2.039969   -0.022830
 H   -0.913703   -0.241608    0.213518
 H   -1.473829    1.348932    0.746731
 H   -1.792394    0.591153   -2.163107
 H    0.493101    1.382607   -2.669971
 H    0.499888   -0.036439   -1.614818
 H   -2.492147    2.786258   -0.957870
 H   -1.686693    2.938407   -2.413098
 H   -0.760819    3.063369   -0.947824
 H    2.562499    3.273771    0.681140
 H    3.959534    2.190784    0.690384
 H    2.970999    2.497036    2.947111
 H    1.415464    1.900732    2.371398
 H    2.755874    0.244946    3.694998
 H    3.987063    0.236095    2.446807
 H    1.566095   -1.233150    2.539096
 H    2.378472   -0.280015   -1.357973
 H    4.680707    0.104254    0.608153
 H    4.661654    0.543029   -1.113629
