62 
2iku_ligand_ani.xyz
 N    5.147591   -0.557634   -0.642427
 N    3.702944   -1.579979   -2.105828
 C    2.891847   -0.957753    0.086951
 C    2.332458   -0.571636    2.538035
 C    1.192550   -2.727292   -0.424014
 C   -0.113696   -3.101746   -0.708493
 C   -0.829776   -0.793551   -0.713235
 C   -2.550638   -2.607562   -1.139951
 C   -3.225058   -0.185182   -1.122886
 C   -0.917534    2.231663   -1.917363
 C    1.853748    0.808542    2.989713
 C   -4.103188   -0.127961    0.133833
 C   -3.675966   -0.628181    1.366510
 C   -5.784592   -0.027913    2.379569
 C   -5.384619    0.420981    0.045609
 C    3.923203   -1.017601   -0.881767
 C    3.267872   -0.507480    1.350126
 N    4.485290   -0.008783    1.594267
 C    5.354911   -0.052313    0.576635
 N    6.591367    0.488359    0.808598
 C    1.504381   -1.373450   -0.264317
 C    0.498299   -0.422329   -0.417222
 C   -1.132910   -2.166089   -0.852455
 C   -3.322839   -1.517017   -1.871263
 C   -4.509165   -0.576139    2.480028
 C   -6.221108    0.471122    1.156942
 N   -1.833587    0.160096   -0.868775
 C   -1.542975    1.566025   -0.682569
 C   -0.420513    3.637015   -1.625903
 O    0.587197    3.565362   -0.639756
 C    1.060397    4.834291   -0.269500
 H    2.751222   -1.608835   -2.440178
 H    4.413495   -1.388389   -2.796894
 H    1.484104   -1.221374    2.295435
 H    2.881769   -1.049065    3.357050
 H    1.982375   -3.470114   -0.339326
 H   -0.346816   -4.156773   -0.833417
 H   -3.062797   -2.852575   -0.197138
 H   -2.542092   -3.530911   -1.729581
 H   -3.616827    0.596673   -1.791395
 H   -0.076200    1.625134   -2.274688
 H   -1.650186    2.270312   -2.735053
 H    1.256588    0.728352    3.904262
 H    1.228701    1.287630    2.223672
 H    2.711383    1.459952    3.191256
 H   -2.682042   -1.062872    1.458816
 H   -6.433812    0.010540    3.250652
 H   -5.736936    0.819320   -0.904381
 H    7.322476    0.201432    0.175097
 H    6.835091    0.599874    1.780744
 H    0.768204    0.629148   -0.340009
 H   -2.908200   -1.382379   -2.877757
 H   -4.377108   -1.790684   -1.989692
 H   -4.156591   -0.969277    3.430004
 H   -7.214376    0.904499    1.066999
 H   -2.484870    2.073575   -0.432794
 H   -0.891845    1.697798    0.188693
 H   -0.019525    4.096065   -2.545397
 H   -1.249851    4.276181   -1.274595
 H    1.494840    5.372945   -1.126927
 H    0.260307    5.458706    0.159943
 H    1.836196    4.687147    0.485726
