62 
2iku_ligand_xtb.xyz
 N    5.138979   -1.119547   -0.448615
 N    3.642392   -2.358669   -1.649281
 C    2.825063   -0.995954    0.176771
 C    2.231890    0.424944    2.199565
 C    1.075871   -2.752075   -0.034374
 C   -0.234124   -3.110404   -0.292676
 C   -0.867204   -0.801140   -0.588857
 C   -2.621217   -2.590480   -0.844287
 C   -3.194719   -0.184028   -1.120629
 C   -0.999771    2.208672   -1.946786
 C    2.099411    1.937117    2.021857
 C   -4.082052   -0.122835    0.109247
 C   -3.562919   -0.280689    1.386962
 C   -5.759234   -0.066056    2.330929
 C   -5.449711    0.069259   -0.042470
 C    3.873903   -1.475832   -0.640512
 C    3.205593   -0.146006    1.208312
 N    4.478287    0.199781    1.402889
 C    5.380585   -0.288534    0.563723
 N    6.666755    0.129424    0.721969
 C    1.432732   -1.407174   -0.073341
 C    0.469055   -0.452069   -0.367038
 C   -1.207810   -2.166092   -0.564585
 C   -3.277272   -1.572081   -1.764182
 C   -4.397251   -0.251594    2.491066
 C   -6.284443    0.095263    1.059683
 N   -1.821659    0.158889   -0.832226
 C   -1.546062    1.563531   -0.664313
 C   -0.465212    3.609296   -1.677557
 O    0.671700    3.508197   -0.849719
 C    1.251027    4.751012   -0.553461
 H    2.697447   -2.467681   -1.975598
 H    4.395553   -2.499914   -2.299798
 H    1.260982   -0.059471    2.090993
 H    2.617034    0.222493    3.201432
 H    1.815037   -3.502132    0.203094
 H   -0.515840   -4.154457   -0.274363
 H   -3.187863   -2.654473    0.090612
 H   -2.629468   -3.581726   -1.302521
 H   -3.572295    0.550465   -1.847436
 H   -0.186176    1.595479   -2.335228
 H   -1.782737    2.261779   -2.704912
 H    1.434401    2.350311    2.777763
 H    1.701634    2.178961    1.039064
 H    3.078008    2.399734    2.121739
 H   -2.501227   -0.426717    1.520420
 H   -6.409832   -0.045299    3.192642
 H   -5.862389    0.199197   -1.033667
 H    7.375798   -0.415561    0.263465
 H    6.890406    0.554612    1.604743
 H    0.786171    0.575317   -0.430455
 H   -2.750364   -1.551369   -2.720852
 H   -4.322226   -1.826041   -1.947574
 H   -3.980742   -0.376723    3.479838
 H   -7.346251    0.243472    0.927139
 H   -2.473166    2.064606   -0.368315
 H   -0.823025    1.710960    0.140936
 H   -0.193811    4.101343   -2.625361
 H   -1.235311    4.225141   -1.184693
 H    1.566118    5.269876   -1.467603
 H    0.549984    5.395847   -0.008187
 H    2.120501    4.550954    0.068980
