21 
2ilp_ligand_ani.xyz
 O   34.463954   27.223007   11.157680
 C   34.219996   28.118954   11.962263
 N   34.308553   27.864281   13.302385
 O   34.925921   26.668342   13.638888
 C   33.769125   29.481388   11.612316
 C   33.628931   29.834141   10.331740
 C   33.196519   31.137587    9.808464
 C   32.886356   32.226365   10.630291
 C   32.481140   33.436990   10.084250
 C   32.383795   33.565455    8.703618
Cl   31.875817   35.081886    8.018132
 C   32.686650   32.500216    7.861521
 C   33.090369   31.297040    8.421759
 H   34.587871   28.593599   13.943588
 H   35.024156   26.249111   12.757803
 H   33.550754   30.160355   12.433708
 H   33.859936   29.078141    9.582302
 H   32.960575   32.139658   11.710856
 H   32.241230   34.278886   10.726149
 H   32.605708   32.617672    6.785007
 H   33.328645   30.459927    7.769280
