21 
2ima_ligand_ani.xyz
 O   34.615764   27.165519   11.239511
 C   34.292756   28.058122   12.018783
 N   34.290231   27.811712   13.363530
 O   34.909792   26.632000   13.749746
 C   33.836101   29.409363   11.632174
 C   33.784679   29.762567   10.345302
 C   33.367962   31.068114    9.817238
 C   33.231842   31.282828    8.436339
Cl   33.553999   30.008666    7.293659
 C   32.833385   32.506805    7.914746
 C   33.090107   32.155043   10.657454
 C   32.692116   33.386005   10.160677
 C   32.564985   33.552335    8.787361
Cl   32.065840   35.087707    8.148889
 H   34.508942   28.550094   14.017924
 H   35.081784   26.212736   12.880038
 H   33.532181   30.073239   12.438657
 H   34.077422   29.016061    9.612324
 H   32.735158   32.639750    6.842345
 H   33.195487   32.046053   11.731783
 H   32.481467   34.211279   10.832519
