21 
2ima_ligand_dft.xyz
 O   -3.894399    0.772406    0.657819
 C   -3.500936   -0.249647    0.103652
 N   -4.409520   -1.168034   -0.348706
 O   -5.728684   -0.732587   -0.367246
 C   -2.084317   -0.628857   -0.078211
 C   -1.117209    0.218395    0.289282
 C    0.321424   -0.055639    0.186239
 C    1.258135    0.969744   -0.010001
Cl    0.735622    2.627344   -0.171466
 C    2.620902    0.714421   -0.106453
 C    0.820689   -1.360382    0.300905
 C    2.174516   -1.643180    0.208252
 C    3.066457   -0.596270    0.002173
Cl    4.773631   -0.925691   -0.113531
 H   -4.209976   -1.706612   -1.181343
 H   -5.648121    0.142907    0.067524
 H   -1.865818   -1.595738   -0.526572
 H   -1.423439    1.181722    0.689749
 H    3.320061    1.526262   -0.266988
 H    0.125786   -2.170756    0.496936
 H    2.537530   -2.659706    0.306977
