34 
2imd_ligand_ani.xyz
 N   -0.726317   -1.086885    0.134771
 C   -2.010340   -0.850586    0.854911
 C   -3.150795   -1.381415    0.008886
 O   -2.730807   -2.421137   -0.738734
 O   -4.289796   -0.985972    0.008581
 C   -2.217264    0.603502    1.287840
 C   -2.371343    1.652620    0.166604
 C   -1.086640    1.829806   -0.610776
 O   -0.810016    1.138561   -1.586186
 N   -0.189132    2.738260   -0.115968
 C    1.207204    2.540068   -0.440256
 C    1.810550    1.315630    0.272393
 O    1.232648    0.712121    1.173160
 N    3.049234    0.947364   -0.143816
 C    3.649982   -0.262414    0.362119
 C    2.965444   -1.522635   -0.140421
 O    1.945399   -1.562226   -0.787280
 O    3.635728   -2.622469    0.235294
 H   -0.744961   -0.597475   -0.784175
 H    0.049419   -0.685370    0.686969
 H   -0.554020   -2.095048   -0.018715
 H   -2.019093   -1.469597    1.760532
 H   -3.508414   -2.730862   -1.231524
 H   -1.374439    0.872287    1.935885
 H   -3.121077    0.624954    1.900508
 H   -3.154642    1.334506   -0.526478
 H   -2.673205    2.609309    0.607492
 H   -0.380839    3.100153    0.807791
 H    1.285031    2.399581   -1.522323
 H    1.768224    3.438917   -0.166505
 H    3.408120    1.336658   -1.001609
 H    3.591401   -0.269830    1.455243
 H    4.705377   -0.297921    0.084611
 H    3.140596   -3.379909   -0.119093
