46 
2in6_ligand_xtb.xyz
 O   -2.128029    5.070869   -0.684552
 C   -2.163791    4.538455    0.383843
 O   -2.348062    5.248189    1.509330
 C   -2.006528    3.041488    0.595042
 C   -1.824458    2.312578   -0.742766
 N   -1.633428    0.903586   -0.551793
 C   -0.436241    0.277195   -0.346236
 C   -2.648459   -0.029627   -0.435110
 C   -4.021855    0.130664   -0.543823
 C   -4.821017   -0.984334   -0.391844
 C   -4.273684   -2.247360   -0.132618
 O   -5.138711   -3.288186    0.003506
 C   -2.903489   -2.416073   -0.018991
 C   -2.090842   -1.299994   -0.170235
 C   -0.673563   -1.112485   -0.111653
 C    0.424722   -1.919635    0.121280
 C    0.524367   -3.362390    0.434884
 O   -0.337721   -4.200619    0.533428
 C    1.715735   -1.375968    0.106353
 C    2.664852   -2.452489    0.452015
 O    3.859094   -2.440679    0.605235
 N    1.873868   -3.589624    0.612511
 C    1.946290   -0.018208   -0.139032
 C    0.844341    0.809824   -0.351525
 C    3.299964    0.553938   -0.183433
 C    3.597806    1.699404    0.549455
 C    4.863463    2.253138    0.500362
 C    5.842793    1.675847   -0.289968
 C    5.550578    0.542781   -1.030720
 C    4.288164   -0.017098   -0.979236
 H   -2.359354    4.704793    2.308212
 H   -2.891360    2.655686    1.110063
 H   -1.136714    2.862464    1.234592
 H   -0.963513    2.729916   -1.269535
 H   -2.704656    2.475595   -1.368500
 H   -4.468118    1.092184   -0.745576
 H   -5.893477   -0.905898   -0.470426
 H   -4.642538   -4.098680    0.172518
 H   -2.464865   -3.381987    0.181929
 H    2.257069   -4.490925    0.856642
 H    1.009610    1.859659   -0.542588
 H    2.838278    2.142111    1.178684
 H    5.086173    3.136519    1.081002
 H    6.831492    2.108669   -0.328090
 H    6.311018    0.091605   -1.650463
 H    4.060391   -0.893934   -1.565344
