51 
2io6_ligand_xtb.xyz
 C   -0.481691    1.099877    0.471905
 C   -1.511164    0.271095    0.036782
 C   -1.187230   -1.013568   -0.406994
 C    0.126607   -1.494845   -0.399473
 C    0.119674   -2.878447   -0.926952
 C   -2.056905   -2.057230   -0.980177
 C   -2.901294    0.751084    0.027535
 C   -3.897344    0.024100    0.700614
 C   -5.215439    0.456439    0.628190
 C   -5.537754    1.602064   -0.080316
 C   -4.555195    2.338391   -0.714486
 C   -3.241073    1.907947   -0.656161
 C    1.158691   -0.686414    0.042348
 C    0.826812    0.634965    0.476521
 C    2.578229   -0.818336    0.180766
 C    3.039030    0.419008    0.688624
 C    3.462197   -1.854452   -0.081552
 C    4.386338    0.623352    0.935705
 C    4.810587   -1.641119    0.168049
 C    5.259190   -0.415937    0.670936
 C    2.080840    2.636613    1.316954
 C    2.517064    3.582730    0.194539
 C    1.474033    3.702381   -0.913175
 O    1.021497   -3.661985   -1.082599
 N   -1.205191   -3.128867   -1.234960
 O   -3.235258   -2.060982   -1.233227
 O    5.679968   -2.656753   -0.090910
 O   -3.470099   -1.042913    1.425874
 C   -4.431934   -1.932495    1.938226
 N    1.967979    1.273897    0.871185
 O    1.976531    4.595916   -1.881293
 H   -0.722279    2.094630    0.815085
 H   -6.001142   -0.095248    1.119198
 H   -6.569096    1.918549   -0.130461
 H   -4.809593    3.233922   -1.260658
 H   -2.464972    2.455903   -1.171467
 H    3.120045   -2.799795   -0.468258
 H    4.759929    1.558892    1.322026
 H    6.316831   -0.278905    0.855312
 H    1.115998    2.952659    1.719888
 H    2.815800    2.674479    2.126535
 H    3.447318    3.226937   -0.250414
 H    2.698977    4.575936    0.606464
 H    0.528213    4.081234   -0.496326
 H    1.284641    2.715441   -1.358962
 H   -1.522249   -3.998563   -1.637196
 H    6.579784   -2.382386    0.121586
 H   -5.052581   -1.459541    2.706929
 H   -5.067108   -2.326233    1.139723
 H   -3.867473   -2.748481    2.387529
 H    1.354714    4.655888   -2.613318
