51 
2io6_ligand_ani.xyz
 C    2.523538   53.909877   26.350573
 C    2.893520   54.058238   27.681087
 C    4.217072   54.444893   27.966098
 C    5.143849   54.684533   26.946438
 C    6.465299   55.002257   27.569129
 C    4.924307   54.582056   29.283285
 C    1.887014   53.751786   28.728639
 C    1.542668   54.685331   29.721669
 C    0.622477   54.349322   30.713800
 C    0.002782   53.104109   30.693632
 C    0.294757   52.189761   29.690722
 C    1.221138   52.529286   28.712711
 C    4.771987   54.575822   25.619834
 C    3.441280   54.201503   25.338951
 C    5.439831   54.723696   24.352011
 C    4.480906   54.428196   23.364756
 C    6.739599   55.065463   23.974859
 C    4.804142   54.446340   22.009410
 C    7.056348   55.096416   22.628683
 C    6.095716   54.785940   21.649697
 C    2.123304   53.589005   23.287228
 C    2.272815   52.108062   22.939929
 C    2.377993   51.207222   24.166745
 O    7.532235   55.283754   27.072901
 N    6.238702   54.909724   28.939531
 O    4.519366   54.440651   30.412213
 O    8.333518   55.434990   22.297288
 O    2.119909   55.906830   29.615268
 C    2.040545   56.763305   30.732268
 N    3.270546   54.140244   23.967048
 O    2.478305   49.840925   23.814251
 H    1.514030   53.583727   26.110725
 H    0.379031   55.052112   31.504688
 H   -0.716572   52.855156   31.470288
 H   -0.198174   51.222037   29.665531
 H    1.455949   51.814835   27.927003
 H    7.500968   55.303364   24.710472
 H    4.066633   54.192025   21.252062
 H    6.373756   54.811632   20.596882
 H    1.952481   54.179509   22.381500
 H    1.252633   53.741989   23.931509
 H    1.401930   51.806328   22.343468
 H    3.159696   51.963123   22.312027
 H    3.282852   51.434532   24.738345
 H    1.518844   51.380519   24.839154
 H    6.967585   55.066132   29.623015
 H    8.423408   55.418179   21.336887
 H    2.417840   56.271268   31.638871
 H    2.671256   57.621341   30.495927
 H    1.012898   57.109686   30.903496
 H    1.659487   49.594963   23.366493
