70 
2irz_ligand_ani.xyz
 C    5.675688   -1.684135    1.432230
 C    5.718326   -0.872222    0.297456
 C    6.080516   -1.451489   -0.920211
 C    6.395476   -2.802843   -1.007840
 C    6.344135   -3.575098    0.142153
 C    5.988281   -3.038031    1.368585
 C    5.323789    0.587798    0.404835
 N    3.931585    0.746467   -0.001020
 C    3.202477    1.826910    0.380334
 C    1.761592    1.821067   -0.028474
 C    1.059580    0.668766   -0.361677
 C   -0.285884    0.751059   -0.705812
 C   -0.940595    1.983809   -0.735477
 C   -0.233631    3.140644   -0.402548
 C    1.110328    3.053348   -0.035549
 N   -0.888733    4.411068   -0.429800
 S   -2.321592    4.589499    0.428370
 C   -1.915810    4.028781    2.072160
 C   -0.072329    5.610180   -0.605820
 O    3.685683    2.759368    1.009960
 O   -2.586400    6.015676    0.494396
 O   -3.320317    3.679228   -0.103338
 C    6.257676    1.530302   -0.358532
 F    6.648192   -4.882998    0.063142
 C   -3.945653   -2.286559   -1.731245
 N   -4.821532   -1.193301   -1.162270
 C   -4.141812   -2.364965   -3.249337
 C   -4.277736   -3.635774   -1.057092
 C   -4.685771   -3.384261    3.234615
 C   -5.817138   -3.459646    2.428498
 C   -5.679699   -3.547446    1.044255
 C   -4.416778   -3.552203    0.446030
 C   -3.286824   -3.488148    1.269278
 C   -3.421724   -3.399922    2.651033
 N   -1.445886   -2.565761   -1.443458
 N   -0.415717   -1.674403   -1.166758
 C   -0.959603   -0.508199   -1.021966
 O   -2.308225   -0.554217   -1.180967
 C   -2.533480   -1.876796   -1.433054
 H    5.389693   -1.250231    2.388303
 H    6.121537   -0.847551   -1.824662
 H    6.677502   -3.261389   -1.950093
 H    5.958623   -3.674228    2.247914
 H    5.368379    0.878448    1.459632
 H    3.502270    0.037860   -0.574985
 H    1.502887   -0.325657   -0.329109
 H   -1.985575    2.069060   -1.005088
 H    1.673717    3.928166    0.270678
 H   -1.113608    4.648102    2.478839
 H   -2.818879    4.137658    2.677137
 H   -1.621554    2.976115    2.033499
 H    0.654315    5.402363   -1.392510
 H   -0.719378    6.426870   -0.921747
 H    0.455515    5.901161    0.311689
 H    7.292174    1.370254   -0.038084
 H    5.973500    2.563867   -0.146267
 H    6.193133    1.372202   -1.440091
 H   -5.030271   -1.402875   -0.166905
 H   -4.302838   -0.298533   -1.223251
 H   -5.699802   -1.119128   -1.700356
 H   -3.917523   -1.404285   -3.727042
 H   -5.174356   -2.642246   -3.493179
 H   -3.479483   -3.120638   -3.682237
 H   -3.482669   -4.338761   -1.324824
 H   -5.213955   -4.016486   -1.480603
 H   -4.787723   -3.315223    4.314757
 H   -6.807895   -3.445787    2.874812
 H   -6.566817   -3.609362    0.415677
 H   -2.298913   -3.497483    0.810415
 H   -2.534600   -3.345761    3.277239
