39 
2iwu_ligand_ani.xyz
 C   18.758745  -35.641987   -5.323296
 O   19.133342  -35.235526   -6.537838
 C   18.572439  -34.475315   -4.403189
 C   17.556670  -33.545152   -4.671011
 C   17.325909  -32.478424   -3.816136
 C   18.103754  -32.323762   -2.675815
 C   19.111190  -33.259868   -2.404467
 C   19.357375  -34.336576   -3.255116
 C   20.489290  -35.317459   -3.027645
 C   21.589472  -35.099305   -4.064418
 C   22.509107  -33.897415   -3.896756
 C   22.617164  -32.990961   -5.133971
 C   23.124612  -33.688644   -6.411808
 C   22.015759  -34.049269   -7.359447
 C   21.745303  -35.264063   -7.830258
 C   20.443858  -35.629557   -8.487124
 C   19.488772  -36.260815   -7.479985
 O   18.603510  -36.800012   -5.007343
 O   16.808367  -33.740779   -5.783488
 O   17.841330  -31.268232   -1.877034
Cl   20.050447  -33.003445   -0.945482
 O   21.727750  -35.861327   -4.994800
 H   16.542637  -31.751616   -4.015997
 H   20.133083  -36.342699   -3.148031
 H   20.896458  -35.204837   -2.020577
 H   23.502214  -34.299360   -3.653318
 H   22.186649  -33.309126   -3.030636
 H   23.303100  -32.177028   -4.873361
 H   21.643986  -32.519345   -5.329317
 H   23.703909  -34.578462   -6.144976
 H   23.804256  -33.006276   -6.937641
 H   21.364552  -33.215965   -7.634033
 H   22.410664  -36.100575   -7.613001
 H   20.619200  -36.354770   -9.290377
 H   19.964433  -34.746756   -8.927910
 H   18.571423  -36.618304   -7.960418
 H   19.952787  -37.100627   -6.953019
 H   16.134177  -33.050760   -5.831039
 H   18.450308  -31.280599   -1.122925
