45 
2iwx_ligand_xtb.xyz
 C   -0.098183    2.158816   -0.635273
 C   -1.216574    1.339165   -0.063953
 C   -1.826236    1.763128    1.120072
 C   -2.865650    1.021544    1.664405
 C   -3.297910   -0.143783    1.046471
 C   -2.668485   -0.557298   -0.131044
 C   -1.635058    0.172349   -0.704341
 C   -0.985401   -0.239204   -1.989001
 C    0.430490   -0.797049   -1.834549
 C    0.666070   -1.605669   -0.585941
 C    2.029398   -2.288279   -0.599625
 C    2.305544   -3.099423    0.663544
 C    2.439067   -2.276364    1.946266
 C    3.588394   -1.255725    1.910884
 C    3.163952    0.100361    1.442122
 C    3.694651    0.762195    0.427348
 C    3.252416    2.125768   -0.010256
 C    2.221323    2.032529   -1.138616
 O   -0.204387    3.284525   -1.038172
 O   -1.353970    2.874919    1.721307
 O   -4.304663   -0.839250    1.603323
Cl   -3.245349   -2.036582   -0.864283
 O    1.257998   -0.630177   -2.692157
 O    1.025108    1.441012   -0.633522
 H   -3.356591    1.331475    2.574346
 H   -0.936811    0.609875   -2.674600
 H   -1.571604   -1.022931   -2.475971
 H   -0.138259   -2.338078   -0.480572
 H    0.597538   -0.916402    0.257259
 H    2.796342   -1.526477   -0.728313
 H    2.079088   -2.953566   -1.464731
 H    3.232037   -3.659893    0.516369
 H    1.502510   -3.828918    0.802382
 H    2.614341   -2.977400    2.766048
 H    1.501656   -1.759683    2.160170
 H    4.398621   -1.633522    1.285075
 H    3.979863   -1.142621    2.926910
 H    2.375331    0.561690    2.024584
 H    4.476251    0.310128   -0.169570
 H    4.105488    2.700110   -0.374363
 H    2.797870    2.662475    0.824920
 H    2.572401    1.378722   -1.942851
 H    1.984408    3.024100   -1.536785
 H   -1.895451    3.095109    2.489998
 H   -4.491641   -1.618901    1.055182
