45 
2iwx_ligand_ani.xyz
 C   55.421051   75.758175   -5.724083
 C   55.291529   76.731656   -4.591634
 C   54.443172   77.840680   -4.751089
 C   54.334207   78.803480   -3.755580
 C   55.077924   78.693300   -2.589671
 C   55.926095   77.588436   -2.429720
 C   56.013666   76.584892   -3.394474
 C   56.911295   75.389071   -3.167535
 C   58.309016   75.496764   -3.777962
 C   58.903068   76.863019   -4.093064
 C   60.155649   76.736779   -4.953467
 C   60.817730   78.079941   -5.275719
 C   59.992220   79.076568   -6.102721
 C   59.634488   78.620329   -7.528430
 C   58.436677   77.716390   -7.620332
 C   58.415993   76.494631   -8.150674
 C   57.185101   75.640435   -8.294463
 C   56.996507   74.681866   -7.117803
 O   54.515985   75.346131   -6.404572
 O   53.757914   77.967655   -5.911795
 O   54.945773   79.667384   -1.665183
Cl   56.892885   77.542429   -0.967009
 O   58.949261   74.486302   -3.968097
 O   56.714299   75.389184   -5.903758
 H   53.680854   79.664659   -3.875398
 H   56.465258   74.476704   -3.567409
 H   57.053334   75.228872   -2.094205
 H   59.119603   77.362065   -3.136934
 H   58.147684   77.482442   -4.590782
 H   59.899640   76.211226   -5.884414
 H   60.872381   76.091122   -4.434598
 H   61.757500   77.884913   -5.810737
 H   61.107079   78.565007   -4.332578
 H   60.575552   80.003172   -6.176467
 H   59.071416   79.348469   -5.567353
 H   60.508873   78.141482   -7.991901
 H   59.421532   79.515162   -8.128048
 H   57.512061   78.137097   -7.214870
 H   59.357309   76.027406   -8.449180
 H   57.259135   75.034100   -9.205708
 H   56.281070   76.257796   -8.384054
 H   57.915551   74.125028   -6.905999
 H   56.184357   73.979057   -7.318085
 H   53.242419   78.783683   -5.872454
 H   55.522887   79.472037   -0.910991
