119 
2iyf_ligand_dft.xyz
 C   -3.882807   -1.622464   -1.477357
 C   -4.245952   -0.473892   -0.498065
 C   -3.896644    1.019417   -0.809952
 C   -4.188072    1.974372    0.389769
 O   -3.392861    1.548231    1.517658
 C   -1.323461    1.134762    2.551860
 C   -0.676334    0.128485    1.545585
 C   -0.530262   -1.302464    2.102358
 C    0.087709   -2.239407    1.035105
 C   -0.500361   -3.675171    0.928761
 C   -1.910876   -3.676859    0.302448
 C   -1.929519   -3.379654   -1.223565
 C   -2.394702   -1.967475   -1.496020
 O   -1.561461   -1.110253   -1.771407
 C   -2.178585    2.096441    1.744237
 O   -1.840149    3.177456    1.332180
 O    0.588479    0.633244    1.090946
 O    1.494263   -2.376999    1.297232
 C   -4.377511   -1.486774   -2.925090
 C   -2.738561   -4.436489   -1.985523
 C   -4.696941    1.538738   -2.014687
 O   -3.702811   -0.941089    0.725455
 O   -2.516286    1.226275   -1.050135
 C   -5.631214    2.135902    0.875211
 C   -0.338376    1.892950    3.439927
 C   -0.539624   -4.401432    2.276062
 O    0.313754   -4.410382    0.031166
 C    2.346960   -1.868734    0.348111
 C    3.492736   -1.098655    1.026588
 C    4.324734   -0.516355   -0.122334
 C    4.815415   -1.614695   -1.065604
 C    3.625189   -2.480216   -1.520746
 O    2.916151   -2.939042   -0.382673
 N    5.499708    0.319302    0.381495
 C    4.057992   -3.695237   -2.317258
 O    3.083130   -0.102299    1.920758
 C    6.272387   -0.314337    1.490091
 C    0.589108    1.436928   -0.065911
 C    1.204129    2.796653    0.224968
 C    1.317967    3.630572   -1.058864
 C    2.031138    2.793950   -2.150837
 C    1.511474    1.360422   -2.286142
 O    1.378042    0.737251   -1.008291
 O    2.222809    4.729395   -0.891473
 O    3.416727    2.704615   -1.842492
 C    2.024542    5.593523    0.207098
 C    5.104183    1.720293    0.743192
 C    0.266509    1.190905   -3.150375
 C   -6.164050    1.055969    1.821047
 C    0.191455   -1.382158    3.452600
 C   -0.046761    4.150332   -1.514027
 H   -4.401191   -2.478106   -1.032284
 H   -5.345746   -0.492783   -0.444869
 H   -3.799682    2.945405    0.071812
 H   -2.010144    0.555312    3.179013
 H   -1.329402    0.047137    0.673158
 H   -1.568052   -1.626530    2.251584
 H   -0.028460   -1.784465    0.044971
 H   -2.316190   -4.683684    0.449409
 H   -2.572322   -2.996195    0.848071
 H   -0.897929   -3.423508   -1.579719
 H   -4.359419   -2.460100   -3.422961
 H   -3.750893   -0.805205   -3.505602
 H   -5.407691   -1.120697   -2.949476
 H   -2.266541   -5.411239   -1.833276
 H   -2.754581   -4.240086   -3.062578
 H   -3.772277   -4.508838   -1.629921
 H   -4.636523    2.630895   -2.053656
 H   -5.752553    1.253259   -1.983132
 H   -4.265728    1.160853   -2.941762
 H   -3.701719   -0.212729    1.363071
 H   -2.159323    0.438973   -1.514026
 H   -6.282278    2.228221   -0.000044
 H   -5.687665    3.098798    1.394227
 H   -0.885296    2.530296    4.140410
 H    0.287004    1.210025    4.015990
 H    0.316639    2.531495    2.847989
 H   -1.254040   -3.949101    2.972291
 H   -0.834027   -5.440704    2.107161
 H    0.451328   -4.403901    2.740068
 H    1.239519   -4.238207    0.257722
 H    1.812369   -1.205708   -0.338929
 H    4.076157   -1.838919    1.586965
 H    3.696777    0.198530   -0.664536
 H    5.306870   -1.181272   -1.945912
 H    5.534298   -2.271258   -0.559550
 H    2.953928   -1.854606   -2.131989
 H    6.129213    0.395734   -0.421275
 H    4.710041   -4.334389   -1.714045
 H    3.179840   -4.276364   -2.608740
 H    4.595077   -3.395327   -3.222013
 H    2.178830    0.192594    1.681016
 H    6.523549   -1.341134    1.224992
 H    7.185237    0.261138    1.648946
 H    5.656742   -0.293801    2.388960
 H   -0.437534    1.535311   -0.428330
 H    2.197761    2.635972    0.658259
 H    0.571553    3.313093    0.949807
 H    1.910383    3.304054   -3.116834
 H    2.325318    0.801495   -2.761350
 H    3.641061    3.611037   -1.570506
 H    2.163813    5.080063    1.166960
 H    1.032683    6.058944    0.195919
 H    2.776957    6.378454    0.113527
 H    4.474854    1.662160    1.628445
 H    6.013745    2.292296    0.935765
 H    4.540483    2.138041   -0.093415
 H    0.028155    0.128072   -3.226287
 H   -0.611658    1.701520   -2.750892
 H    0.456943    1.583456   -4.154164
 H   -7.196029    1.289473    2.096908
 H   -6.162217    0.055455    1.379986
 H   -5.575584    1.018975    2.742017
 H    0.326157   -2.418210    3.764842
 H   -0.391905   -0.882653    4.231278
 H    1.183453   -0.928582    3.405758
 H   -0.800290    3.361905   -1.571120
 H    0.036111    4.638994   -2.489040
 H   -0.432313    4.875671   -0.792904
