33 
2izl_ligand_ani.xyz
 C    2.651840    0.599093   -0.306027
 O    2.135325    1.394164   -1.231551
 O    2.763393    0.905901    0.868101
 C    3.050438   -0.756741   -0.849737
 C    2.783042   -1.891698    0.148461
 C    1.391623   -1.870199    0.802072
 C    0.217892   -1.731417   -0.170828
 C   -1.113461   -1.462902    0.547304
 S   -2.541867   -1.786483   -0.550462
 C   -2.747137   -0.033370   -0.940886
 C   -2.479498    0.703447    0.368610
 N   -1.991463    2.071194    0.194399
 C   -0.601612    2.083858    0.258167
 N    0.221376    3.002563   -0.105212
 N   -0.198369    0.895591    0.785869
 C   -1.289092   -0.010694    1.082086
 H    1.655816    2.156524   -0.786402
 H    2.522687   -0.916977   -1.796009
 H    4.121572   -0.718186   -1.090794
 H    2.939738   -2.846806   -0.368864
 H    3.529562   -1.840116    0.948526
 H    1.362462   -1.062751    1.539046
 H    1.262731   -2.795936    1.379062
 H    0.124214   -2.649900   -0.761157
 H    0.384183   -0.919813   -0.886220
 H   -1.217480   -2.165992    1.381564
 H   -3.757451    0.140030   -1.319848
 H   -2.027931    0.275728   -1.706275
 H   -3.373698    0.688962    0.995873
 H   -2.411024    2.628315   -0.538385
 H   -0.260843    3.822437   -0.465559
 H    0.692701    0.868964    1.265472
 H   -1.472114   -0.042986    2.164239
