46 
2j47_ligand_ani.xyz
 O    3.355532    3.547241    0.501111
 C    2.254521    3.415724   -0.037248
 C    1.471038    4.627136   -0.488446
 N    1.671351    2.218067   -0.251734
 C    2.148487    0.947642    0.286763
 C    3.496741    0.481229   -0.304077
 O    4.597940    1.186212    0.206079
 C    3.754772   -0.976013    0.074249
 O    5.009023   -1.386749   -0.418838
 C    2.703310   -1.915615   -0.500581
 C    2.850336   -3.313152    0.089850
 O    2.614821   -3.236393    1.480065
 C    1.077989   -0.063467    0.017689
 N    1.367112   -1.370691   -0.256402
 C    0.160284   -2.011099   -0.413781
 C   -0.792068   -1.051503   -0.221823
 N   -0.210846    0.168414    0.031271
 C   -2.256667   -1.240840   -0.278320
 O   -2.744617   -2.333544   -0.528991
 N   -2.946243   -0.090209   -0.022199
 C   -4.339087    0.102486    0.052386
 C   -5.250599   -0.878573   -0.341172
 C   -6.613679   -0.614626   -0.250096
 C   -7.081710    0.605188    0.228256
 C   -6.167645    1.578144    0.621316
 C   -4.803485    1.330582    0.532188
 H    2.123571    5.253170   -1.101974
 H    0.567129    4.381076   -1.052662
 H    1.193794    5.211103    0.394194
 H    0.712422    2.198423   -0.575709
 H    2.295613    1.044258    1.375249
 H    3.444694    0.575709   -1.402658
 H    4.331374    2.119553    0.343988
 H    3.727839   -1.040171    1.174005
 H    5.636812   -0.709112   -0.129066
 H    2.868361   -1.979862   -1.583071
 H    3.867410   -3.665803   -0.129801
 H    2.142613   -3.997302   -0.401580
 H    2.839248   -4.086624    1.875128
 H    0.065371   -3.061397   -0.653379
 H   -2.362667    0.714129    0.173876
 H   -4.885912   -1.830141   -0.706925
 H   -7.318110   -1.383501   -0.558776
 H   -8.149530    0.794338    0.294140
 H   -6.514613    2.536781    0.998476
 H   -4.091840    2.092702    0.841657
