33 
2j4g_ligand_ani.xyz
 C   -0.392374   -0.993770   -1.119750
 C    0.153542    0.437307   -1.340903
 C   -0.356822    1.413652   -0.284085
 C   -1.850634    1.271130   -0.060381
 C   -2.134279   -0.166915    0.350649
 C   -3.613501   -0.464704    0.552062
 C    2.044153   -0.575302   -0.609002
 C    3.499300   -0.749890   -0.284839
 C    3.431724    0.245776    2.066086
 N    1.607309    0.415839   -1.276059
 O   -0.092301    2.750407   -0.662424
 O   -2.276555    2.113539    0.985736
 O   -1.714456   -1.073177   -0.677114
 O   -3.800688   -1.811828    0.911216
 S    0.846580   -1.754847   -0.002444
 C    4.013334    0.344728    0.658096
 H   -0.348500   -1.544655   -2.064471
 H   -0.168864    0.801203   -2.323555
 H    0.142823    1.184618    0.669320
 H   -2.387643    1.493673   -0.999729
 H   -1.597319   -0.387771    1.285757
 H   -4.008564    0.154892    1.360994
 H   -4.163725   -0.211402   -0.370668
 H    4.053200   -0.710452   -1.230668
 H    3.660176   -1.738946    0.152296
 H    3.626635   -0.740953    2.502865
 H    3.871094    1.000185    2.726853
 H    2.346083    0.396275    2.068827
 H    0.866925    2.803981   -0.781818
 H   -1.952504    3.000693    0.775631
 H   -3.322034   -2.327939    0.246582
 H    3.785472    1.322242    0.218543
 H    5.105639    0.267430    0.707854
