54 
2j62_ligand_ani.xyz
 C   -5.741747   -2.509336    1.011827
 C   -4.651439   -2.154247    0.006338
 C   -5.236535   -1.884422   -1.386822
 C   -3.898338   -0.915275    0.468931
 O   -4.456488   -0.053608    1.151077
 N   -2.621363   -0.814294    0.042039
 C   -1.663749    0.217678    0.425023
 C   -2.069762    1.653175    0.019328
 O   -3.058630    2.208383    0.846440
 C   -0.864894    2.578465    0.181934
 O   -1.232932    3.915907   -0.079876
 C    0.298005    2.211207   -0.738133
 C    1.554488    3.008870   -0.362665
 O    1.445664    4.354716   -0.752545
 N    0.532553    0.771170   -0.662670
 C    1.568998    0.054142   -1.228130
 C   -0.367157   -0.156712   -0.228272
 N    0.026064   -1.386829   -0.461334
 C    1.251304   -1.269957   -1.074408
 C    2.060542   -2.483009   -1.408923
 C    2.866525   -2.996758   -0.196078
 C    3.849732   -1.970851    0.321743
 C    3.622604   -1.287246    1.518127
 C    4.504667   -0.303163    1.957924
 C    5.628195    0.012619    1.202290
 C    5.864421   -0.657645    0.005556
 C    4.976974   -1.635404   -0.432439
 H   -6.459182   -1.688083    1.090649
 H   -6.275660   -3.411674    0.694005
 H   -5.324625   -2.685621    2.007698
 H   -3.933324   -2.983124   -0.065881
 H   -5.801739   -2.752083   -1.743739
 H   -5.917939   -1.026998   -1.351279
 H   -4.452194   -1.666140   -2.118798
 H   -2.193182   -1.601539   -0.431256
 H   -1.531838    0.221236    1.520362
 H   -2.392813    1.645905   -1.035414
 H   -3.725215    1.513314    1.028279
 H   -0.533135    2.489960    1.230358
 H   -2.053532    4.076209    0.408590
 H    0.022128    2.484318   -1.766347
 H    2.431337    2.597295   -0.870759
 H    1.737636    2.912145    0.721956
 H    0.572359    4.658054   -0.459565
 H    2.414876    0.551301   -1.681908
 H    1.383767   -3.269172   -1.760730
 H    2.751677   -2.254663   -2.229943
 H    3.393262   -3.915478   -0.484249
 H    2.161974   -3.270800    0.597923
 H    2.735697   -1.525061    2.105999
 H    4.313180    0.215390    2.894896
 H    6.319402    0.779173    1.544359
 H    6.739995   -0.414949   -0.592739
 H    5.158404   -2.145210   -1.378395
