25 
2j77_ligand_xtb.xyz
 C    0.050955    1.607767    0.327950
 C    1.422422    0.931543    0.476360
 O    2.116083    1.080717   -0.734647
 C    1.178332   -0.542764    0.866893
 O    0.445598   -0.635350    2.059773
 C    0.365913   -1.255848   -0.242287
 O    1.164562   -1.421983   -1.397407
 C   -0.882187   -0.470047   -0.673533
 N   -0.586214    0.980479   -0.848225
 C   -2.082935   -0.593440    0.273617
 O   -2.993057    0.407926   -0.135739
 H   -0.554208    1.455698    1.219846
 H    0.179172    2.673446    0.138852
 H    1.989503    1.434650    1.270187
 H    2.235712    0.222776   -1.168923
 H    2.146026   -1.058204    0.948712
 H    1.022201   -0.507253    2.821586
 H    0.027898   -2.218063    0.157874
 H    1.607279   -2.276855   -1.398293
 H   -1.175855   -0.847613   -1.659704
 H   -1.497729    1.418599   -1.047366
 H    0.080419    1.106083   -1.625308
 H   -2.513554   -1.594372    0.171626
 H   -1.775512   -0.454031    1.316113
 H   -3.848345    0.268051    0.282534
