25 
2j78_ligand_ani.xyz
 C    0.754792    1.122985    0.123734
 N    1.386622    2.228430   -0.033195
 C    1.594404   -0.107293    0.389155
 N   -0.603897    0.982172    0.156896
 O    0.485754    3.291767   -0.172199
 O    2.905581    0.005498   -0.107037
 C    0.960848   -1.334106   -0.245776
 O    1.643439   -2.506480    0.146156
 C   -0.487888   -1.471112    0.193063
 O   -1.089993   -2.609002   -0.382439
 C   -1.273501   -0.242029   -0.251644
 C   -2.676685   -0.206853    0.336398
 O   -3.273644    0.984416   -0.147226
 H    1.612586   -0.272410    1.482333
 H   -1.131323    1.831067   -0.008806
 H    1.070199    4.050291   -0.288441
 H    3.112837    0.953825   -0.125867
 H    0.992060   -1.217951   -1.342712
 H    2.571308   -2.377198   -0.095402
 H   -0.505585   -1.537863    1.296655
 H   -0.496538   -3.351570   -0.201413
 H   -1.367300   -0.290341   -1.350024
 H   -2.602852   -0.193727    1.434947
 H   -3.239907   -1.099732    0.031479
 H   -4.095477    1.132245    0.333713
