25 
2j78_ligand_xtb.xyz
 C    1.022102    0.883544    0.118222
 N    1.934807    1.775152    0.056789
 C    1.512989   -0.520333    0.374355
 N   -0.309040    1.102495    0.058008
 O    1.474978    3.095352   -0.165195
 O    2.817386   -0.726783   -0.107432
 C    0.569275   -1.536090   -0.274824
 O    0.915655   -2.854276    0.078131
 C   -0.859967   -1.275275    0.212307
 O   -1.751119   -2.233340   -0.290399
 C   -1.307655    0.109546   -0.257871
 C   -2.635234    0.509817    0.388739
 O   -3.046556    1.731948   -0.182987
 H    1.498717   -0.694082    1.466651
 H   -0.584501    2.054348   -0.147855
 H    2.288796    3.613444   -0.185884
 H    3.240349    0.142318   -0.148876
 H    0.615092   -1.419371   -1.369734
 H    1.872298   -2.931393   -0.022320
 H   -0.855518   -1.308739    1.315418
 H   -1.304989   -3.088313   -0.223762
 H   -1.474759    0.062704   -1.345370
 H   -2.493094    0.617397    1.473173
 H   -3.362049   -0.287817    0.197268
 H   -3.912514    1.965518    0.165202
