25 
2j79_ligand_ani.xyz
 C    0.394487    1.197736    0.114461
 N    0.704115    2.442596    0.139809
 C    1.525969    0.209564    0.259526
 N   -0.872621    0.694748    0.060671
 O   -0.450123    3.233185    0.097061
 O    2.773259    0.731464   -0.131824
 C    1.270767   -1.042761   -0.569355
 O    2.248820   -2.019613   -0.269369
 C   -0.085783   -1.634962   -0.218832
 O   -0.102650   -1.994081    1.146176
 C   -1.183154   -0.609453   -0.499620
 C   -2.529887   -1.032614    0.061872
 O   -3.440712   -0.005987   -0.298107
 H    1.553979   -0.099803    1.317139
 H   -1.617277    1.378175   -0.003671
 H   -0.093787    4.129465    0.115464
 H    2.718850    1.692269   -0.006155
 H    1.299014   -0.776507   -1.637767
 H    3.101012   -1.559152   -0.277309
 H   -0.265986   -2.521437   -0.851715
 H    0.708336   -2.504688    1.289610
 H   -1.285163   -0.529464   -1.595546
 H   -2.829222   -2.004690   -0.361268
 H   -2.446321   -1.132859    1.150064
 H   -4.247032   -0.117517    0.217983
