24 
2j7b_ligand_dft.xyz
 C    0.330206   -1.315191    0.124212
 C   -1.113924   -1.194512    0.495168
 C   -1.685822    0.013534   -0.239838
 C   -0.812020    1.246818   -0.008943
 C    0.590119    1.077618   -0.611982
 C    1.583510    2.087287   -0.054046
 N    1.044001   -0.285586   -0.348560
 N    2.290758   -0.720016   -0.594385
 N    2.310415   -1.968890   -0.276780
 N    1.101736   -2.376151    0.177717
 O   -1.860591   -2.327042    0.120579
 O   -2.970874    0.350255    0.230514
 O   -1.374384    2.374465   -0.631081
 O    1.646303    1.899674    1.342346
 H   -1.196024   -1.011455    1.577724
 H   -1.711942   -0.217262   -1.316609
 H   -0.713555    1.403392    1.075472
 H    0.511623    1.211616   -1.696103
 H    1.219754    3.089389   -0.318893
 H    2.557036    1.923867   -0.531700
 H   -1.369504   -3.113901    0.393725
 H   -3.547662   -0.408520    0.073955
 H   -2.303902    2.390995   -0.362339
 H    2.449769    2.314235    1.672528
