34 
2j7d_ligand_ani.xyz
 C    0.107033    0.693886    0.299413
 C    1.284086    1.598568    0.463329
 O    0.985728    2.939040    0.151671
 C    2.406567    1.139652   -0.454670
 O    3.584097    1.881025   -0.212386
 C    2.721685   -0.324800   -0.197251
 C   -0.995255   -1.148571   -0.144707
 N    0.270513   -0.599080   -0.095243
 O    3.799056   -0.765365   -0.995634
 C    1.524614   -1.218206   -0.534439
 C    1.705985   -2.602464    0.081674
 O    1.763805   -2.462071    1.485679
 N   -1.150539    0.994970    0.517882
 C   -1.846094   -0.161050    0.259621
 C   -3.340704   -0.178288    0.366846
 O   -3.811116    0.967717    0.999036
 C   -5.274604   -0.336973   -0.978541
 O   -3.860101   -0.330140   -0.931442
 H    1.651294    1.520623    1.504256
 H    0.069007    3.095081    0.423758
 H    2.078264    1.263070   -1.499829
 H    3.351222    2.812725   -0.326945
 H    2.955898   -0.437546    0.873428
 H   -1.172781   -2.156893   -0.492626
 H    4.520795   -0.138932   -0.844443
 H    1.495339   -1.326871   -1.624320
 H    2.633492   -3.033050   -0.321638
 H    0.871418   -3.253038   -0.220410
 H    2.014047   -3.311516    1.866382
 H   -3.679606   -1.042323    0.961801
 H   -3.153928    1.664499    0.821644
 H   -5.690465    0.606338   -0.609699
 H   -5.546333   -0.478453   -2.025673
 H   -5.689107   -1.167121   -0.387200
