35 
2j7e_ligand_dft.xyz
 C    2.871778    0.883374   -0.643907
 C    3.867342   -0.006457    0.063882
 C    6.113248   -0.188940    0.700719
 C   -0.670751    0.923399   -0.370724
 C   -2.010892    1.584814   -0.440176
 C   -2.938968    0.872087    0.531704
 C   -2.943037   -0.621355    0.225573
 C   -1.570792   -1.258454    0.480657
 C   -1.477162   -2.635932   -0.163435
 O   -1.925017    2.949595   -0.098101
 O   -4.276552    1.308128    0.408912
 O   -3.859661   -1.302590    1.050340
 N   -0.511947   -0.369639    0.007924
 O   -1.583043   -2.477992   -1.560303
 N    0.470529    1.515191   -0.628437
 C    1.431677    0.554447   -0.404636
 C    0.843306   -0.617685   -0.012500
 O    5.073689    0.582423    0.101012
 O    3.658759   -1.109703    0.512045
 H    3.104889    0.821344   -1.716402
 H    3.062562    1.923431   -0.364407
 H    6.244166   -1.137624    0.174281
 H    5.883111   -0.394402    1.749146
 H    7.013810    0.419298    0.621344
 H   -2.432781    1.479630   -1.452903
 H   -2.569876    1.037760    1.556309
 H   -3.201515   -0.754927   -0.835383
 H   -1.465243   -1.381798    1.565533
 H   -2.295976   -3.240564    0.249610
 H   -0.525784   -3.111999    0.116447
 H   -1.019446    3.226054   -0.306708
 H   -4.280031    2.262977    0.555042
 H   -4.674976   -0.782192    1.021495
 H   -1.624637   -3.352402   -1.961587
 H    1.271758   -1.568104    0.257592
