29 
2j7f_ligand_xtb.xyz
 C    0.231313   -0.699458    0.208472
 C   -0.940529   -1.561601    0.521757
 O   -0.674737   -2.919467    0.265787
 C   -2.110697   -1.094999   -0.353103
 C    1.354071    1.025027   -0.498036
 O   -3.303760   -1.766236   -0.031855
 C   -2.349253    0.402452   -0.116483
 N    0.096158    0.561876   -0.286505
 O   -3.457621    0.853243   -0.850552
 C   -1.143046    1.251665   -0.548917
 C   -1.174761    2.600757    0.181937
 O   -0.978041    2.358599    1.555419
 N    1.478842   -1.060427    0.308682
 C    2.208584    0.010976   -0.124416
 C    3.668424    0.042170   -0.174475
 O    4.309967    0.998129   -0.543614
 O    4.241726   -1.096052    0.227121
 H   -1.224805   -1.436386    1.582800
 H    0.273661   -3.056743    0.391000
 H   -1.855296   -1.271218   -1.411164
 H    1.572918    1.994400   -0.892550
 H   -3.094341   -2.705998    0.032661
 H   -2.521654    0.546753    0.961762
 H   -4.153769    0.192824   -0.734589
 H   -1.236295    1.438593   -1.626931
 H   -2.152501    3.060302   -0.009442
 H   -0.388703    3.257322   -0.214165
 H   -1.015876    3.193523    2.032441
 H    5.206759   -1.011173    0.174072
