26 
2jal_ligand_dft.xyz
 O    0.411919   -2.029698    1.102495
 C    0.263915   -1.651795   -0.262223
 C    1.054376   -0.347445   -0.449384
 C    2.492397   -0.538114    0.024442
 O    3.238001    0.634627   -0.302436
 C    0.363877    0.829321    0.259938
 O    0.943689    2.082066   -0.053979
 C   -1.093582    0.939863   -0.164896
 O   -1.745701    1.986068    0.526540
 C   -1.864072   -0.340377    0.109591
 O   -3.202917   -0.221687   -0.319336
 C   -1.209659   -1.490807   -0.642767
 H   -0.149093   -2.798266    1.260371
 H    0.715252   -2.422111   -0.908549
 H    1.078083   -0.122216   -1.524430
 H    2.933236   -1.417249   -0.467656
 H    2.498869   -0.715400    1.106530
 H    4.091704    0.586082    0.141527
 H    0.395488    0.655540    1.347454
 H    1.906463    1.956081   -0.056222
 H   -1.118361    1.132069   -1.251183
 H   -1.175817    2.762124    0.434842
 H   -1.822442   -0.538452    1.191993
 H   -3.509109    0.632897    0.015347
 H   -1.754008   -2.422745   -0.444220
 H   -1.293705   -1.303235   -1.720282
