74 
2jbu_ligand_ani.xyz
 N   -0.158353   -0.306060   -1.978051
 C   -0.923157   -1.381349   -2.667138
 C   -2.375642   -1.225945   -2.203869
 O   -3.130995   -0.459908   -2.798804
 C   -0.290564   -2.743283   -2.419165
 N   -2.744350   -1.904559   -1.088107
 C   -3.959658   -1.531647   -0.367888
 C   -3.687264   -0.240866    0.433443
 O   -3.456039   -0.290493    1.641402
 C   -4.408046   -2.666788    0.539087
 N   -3.700453    0.898457   -0.293871
 C   -3.222158    2.211724    0.125764
 C   -1.784220    2.441132   -0.399004
 O   -1.499087    2.136232   -1.555722
 C   -3.426796    2.513186    1.603209
 N   -0.898889    3.076967    0.412365
 C    0.394158    3.526943   -0.059820
 C    1.447451    2.404118   -0.054687
 O    1.378566    1.430995    0.687200
 C    0.882212    4.699262    0.793950
 N    2.497127    2.627300   -0.886718
 C    3.707190    1.809203   -0.910588
 C    3.330312    0.342923   -1.204347
 O    2.598061    0.071995   -2.147288
 C    4.563321    2.019592    0.338990
 N    3.850475   -0.612765   -0.384071
 C    3.380224   -1.983218   -0.408884
 C    2.540694   -2.370273    0.819849
 O    2.397568   -3.543071    1.131706
 C    4.507160   -2.986785   -0.625543
 N    1.967275   -1.344306    1.508414
 C    0.979025   -1.584466    2.528035
 C   -0.422468   -1.487564    1.922961
 O   -0.627796   -1.393684    0.726099
 C    1.175403   -0.616284    3.696319
 O   -1.388385   -1.529509    2.826564
 H   -0.113728   -0.506612   -0.967323
 H   -0.640935    0.603575   -2.096989
 H    0.804289   -0.225553   -2.339623
 H   -0.951030   -1.164324   -3.738099
 H    0.676088   -2.797027   -2.932233
 H   -0.115809   -2.913045   -1.351678
 H   -0.924123   -3.543855   -2.808383
 H   -2.001054   -2.277127   -0.509042
 H   -4.715961   -1.315769   -1.129526
 H   -3.654555   -2.872701    1.308655
 H   -4.564886   -3.574529   -0.049980
 H   -5.342951   -2.411540    1.046131
 H   -3.740790    0.771825   -1.302659
 H   -3.816869    2.927596   -0.458037
 H   -2.790515    1.888156    2.231420
 H   -3.237868    3.571539    1.812241
 H   -4.462777    2.290919    1.866076
 H   -1.039678    3.067311    1.412185
 H    0.262919    3.853741   -1.095851
 H    1.833613    5.091146    0.420791
 H    0.145681    5.507826    0.774440
 H    1.032349    4.386012    1.833990
 H    2.467416    3.435687   -1.488091
 H    4.264854    2.134878   -1.794275
 H    4.021545    1.712993    1.237674
 H    5.510660    1.474495    0.277598
 H    4.800181    3.082354    0.438875
 H    4.425899   -0.340212    0.397500
 H    2.688029   -2.027567   -1.260252
 H    5.045337   -2.742679   -1.545417
 H    4.095038   -3.995360   -0.702846
 H    5.216287   -2.977211    0.209606
 H    1.959478   -0.408554    1.106789
 H    1.102015   -2.620170    2.871553
 H    1.053358    0.419976    3.361056
 H    2.186702   -0.734827    4.091566
 H    0.450682   -0.814985    4.489303
 H   -2.236938   -1.279779    2.379828
