61 
2jdk_ligand_ani.xyz
 C   -3.470281   -0.309218   -0.942516
 C   -4.715759   -1.097260   -0.542866
 C   -5.175173   -0.634124    0.833559
 C   -5.459218    0.859128    0.808319
 C   -4.228413    1.605475    0.294653
 C   -4.487767    3.079511    0.073662
 O   -4.518570   -2.493080   -0.544606
 O   -6.372552   -1.306347    1.171151
 O   -6.559183    1.123277   -0.031272
 O   -3.756360    1.069856   -0.958670
 C    1.628860   -0.348841    0.276797
 C    1.032524    0.615633   -0.753848
 C   -0.479975    0.715999   -0.571774
 C   -1.115686   -0.687206   -0.529159
 C   -0.353154   -1.641403    0.401070
 C   -0.740626   -3.109589    0.220124
 C    1.639308    2.745789    0.360823
 C    2.337446    4.077489    0.187327
 N    1.681873    1.912370   -0.714551
 O   -0.993962    1.463978   -1.650661
 O   -2.444338   -0.611499   -0.028801
 O    1.042566   -1.619465    0.119058
 O   -2.087970   -3.324149    0.626487
 O    1.081998    2.448306    1.408889
 O    6.938150    0.349755    1.437385
 C    6.608946   -0.262168    0.446026
 O    7.460680   -0.794590   -0.433203
 C    8.843024   -0.597264   -0.127784
 C    5.198790   -0.497437    0.086407
 N    4.768405   -1.176988   -1.017021
 N    3.479804   -1.196698   -1.010209
 N    3.058339   -0.527232    0.073724
 C    4.105590   -0.079275    0.800304
 H   -3.152822   -0.581705   -1.958616
 H   -5.510863   -0.882417   -1.262646
 H   -4.386509   -0.850191    1.573924
 H   -5.665953    1.204469    1.836863
 H   -3.429952    1.468965    1.042107
 H   -4.838071    3.552199    0.997921
 H   -5.249462    3.220351   -0.697476
 H   -3.564060    3.576239   -0.239021
 H   -3.685304   -2.669316   -0.068907
 H   -6.250915   -2.219624    0.866346
 H   -7.222274    0.453633    0.196938
 H    1.491200    0.037109    1.293874
 H    1.224313    0.193147   -1.744124
 H   -0.682481    1.213644    0.390182
 H   -1.106849   -1.100455   -1.551201
 H   -0.537885   -1.336527    1.443741
 H   -0.041872   -3.713318    0.813576
 H   -0.611160   -3.378595   -0.839805
 H    2.850859    4.185747   -0.772382
 H    3.060978    4.192287    0.998764
 H    1.596441    4.874677    0.293116
 H    2.046632    2.271615   -1.581747
 H   -1.939101    1.612457   -1.478693
 H   -2.225991   -4.273699    0.733190
 H    9.078721    0.468986   -0.098945
 H    9.389928   -1.091600   -0.929259
 H    9.087444   -1.042617    0.839270
 H    4.021769    0.474613    1.726607
