26 
2jdm_ligand_xtb.xyz
 C   -1.134563   -0.003413    0.659001
 C   -0.185894   -1.210325    0.588077
 C    0.756780   -1.029433   -0.608768
 C    1.494226    0.308957   -0.468638
 C    0.467946    1.444825   -0.329065
 C    1.147617    2.773105   -0.035133
 O   -1.979008   -0.101662   -0.464675
 O   -0.892897   -2.419529    0.492169
 O    1.713958   -2.063826   -0.644874
 O    2.347409    0.280527    0.644586
 O   -0.451247    1.204829    0.731401
 C   -3.063146    0.804945   -0.439197
 H   -1.735310   -0.044511    1.583111
 H    0.405813   -1.256610    1.507999
 H    0.159791   -1.028669   -1.534698
 H    2.081472    0.483325   -1.385915
 H   -0.089783    1.498006   -1.278047
 H    1.750986    2.665632    0.860352
 H    1.783137    3.055372   -0.868903
 H    0.396790    3.539998    0.129041
 H   -1.595145   -2.288882   -0.159651
 H    1.259836   -2.881003   -0.399397
 H    2.811795   -0.567130    0.609812
 H   -3.728238    0.585011    0.403014
 H   -2.709524    1.835504   -0.355071
 H   -3.595128    0.669285   -1.378172
