26 
2jdm_ligand_ani.xyz
 C   -1.134955   -0.164277    0.665882
 C   -0.058162   -1.238001    0.566517
 C    0.868252   -0.936320   -0.607178
 C    1.443066    0.464691   -0.477487
 C    0.302638    1.469653   -0.321619
 C    0.798562    2.871478   -0.040411
 O   -1.971155   -0.309375   -0.451551
 O   -0.613105   -2.531570    0.430048
 O    1.948102   -1.851018   -0.604036
 O    2.291065    0.534012    0.644766
 O   -0.566081    1.111995    0.759767
 C   -3.088267    0.561587   -0.428945
 H   -1.734840   -0.303092    1.577924
 H    0.533376   -1.236515    1.485283
 H    0.299141   -1.011548   -1.548407
 H    1.999926    0.710797   -1.399841
 H   -0.271545    1.456956   -1.262985
 H    1.358811    2.889175    0.898140
 H    1.457688    3.216643   -0.845437
 H   -0.051246    3.554931    0.035833
 H   -1.322220   -2.443029   -0.224694
 H    1.560125   -2.715188   -0.397110
 H    2.834643   -0.267935    0.606947
 H   -3.703826    0.390966    0.466457
 H   -2.773707    1.612227   -0.447526
 H   -3.683735    0.340389   -1.317090
