26 
2jdp_ligand_xtb.xyz
 C   -1.134686   -0.003944    0.658863
 C   -0.185460   -1.210525    0.587944
 C    0.757203   -1.029299   -0.608931
 C    1.493887    0.309502   -0.468837
 C    0.467352    1.445231   -0.328975
 C    1.146840    2.773599   -0.034707
 O   -1.979070   -0.102436   -0.464846
 O   -0.891820   -2.420132    0.492366
 O    1.715172   -2.062993   -0.644630
 O    2.346884    0.281216    0.644499
 O   -0.452037    1.204688    0.731306
 C   -3.063349    0.804039   -0.439301
 H   -1.735438   -0.045105    1.582988
 H    0.406263   -1.256450    1.507896
 H    0.160358   -1.028750   -1.534932
 H    2.081223    0.484243   -1.386072
 H   -0.090526    1.498631   -1.277896
 H    1.750068    2.666143    0.860904
 H    1.782423    3.056151   -0.868336
 H    0.395830    3.540378    0.129343
 H   -1.594260   -2.289619   -0.159297
 H    1.261546   -2.880474   -0.399673
 H    2.811837   -0.566108    0.609372
 H   -3.728180    0.583795    0.403050
 H   -2.709724    1.834552   -0.354847
 H   -3.595162    0.668266   -1.378403
