26 
2jdu_ligand_xtb.xyz
 C   -1.134688   -0.003944    0.658861
 C   -0.185461   -1.210526    0.587944
 C    0.757200   -1.029300   -0.608933
 C    1.493883    0.309502   -0.468839
 C    0.467354    1.445233   -0.328976
 C    1.146847    2.773597   -0.034700
 O   -1.979072   -0.102436   -0.464849
 O   -0.891823   -2.420133    0.492370
 O    1.715172   -2.062992   -0.644628
 O    2.346881    0.281209    0.644497
 O   -0.452036    1.204689    0.731305
 C   -3.063346    0.804044   -0.439302
 H   -1.735442   -0.045103    1.582989
 H    0.406261   -1.256449    1.507896
 H    0.160357   -1.028755   -1.534934
 H    2.081219    0.484240   -1.386073
 H   -0.090526    1.498640   -1.277893
 H    1.750073    2.666136    0.860908
 H    1.782432    3.056148   -0.868326
 H    0.395844    3.540376    0.129349
 H   -1.594265   -2.289620   -0.159291
 H    1.261548   -2.880478   -0.399674
 H    2.811835   -0.566115    0.609365
 H   -3.728178    0.583803    0.403050
 H   -2.709716    1.834559   -0.354844
 H   -3.595158    0.668277   -1.378404
