39 
2jew_ligand_dft.xyz
 N    2.094621    1.684548   -1.276794
 C    2.760538    2.351910   -0.122627
 C   -1.461756    0.736766   -1.008800
 C   -4.696666    0.401272    1.318101
 C   -3.755813   -0.274817   -0.964401
 C   -4.671723    0.669016   -0.184591
 C    2.470315    1.614349    1.179171
 C    2.993642    0.168119    1.291269
 C    2.069725   -1.025980    0.952674
 C    0.607354   -0.903589    1.463692
 C   -0.440822   -0.421234    0.500064
 C   -1.714274   -0.912685    0.397372
 N   -0.294902    0.617662   -0.398115
 C    2.126828   -1.508811   -0.481444
 N   -2.353153   -0.166691   -0.561264
 O    1.515043   -2.679670   -0.625532
 O    2.683945   -0.959793   -1.417448
 H    2.552324    0.774579   -1.484250
 H    2.093664    2.261761   -2.117818
 H    1.100727    1.401811   -1.000062
 H    2.377800    3.373317   -0.068460
 H    3.832616    2.393708   -0.331658
 H   -1.699904    1.453722   -1.782298
 H   -5.407877    1.066931    1.814042
 H   -3.715000    0.567131    1.774324
 H   -5.001839   -0.629610    1.531082
 H   -3.807670   -0.070686   -2.037351
 H   -4.051749   -1.316786   -0.813967
 H   -5.678294    0.555094   -0.602406
 H   -4.368219    1.704657   -0.379658
 H    2.953459    2.208067    1.961664
 H    1.396234    1.663559    1.386748
 H    3.265139    0.022778    2.341082
 H    3.930065    0.062308    0.730642
 H    2.496707   -1.872907    1.504392
 H    0.623432   -0.262582    2.353899
 H    0.281256   -1.887169    1.811380
 H   -2.213632   -1.716127    0.917589
 H    1.598809   -2.952387   -1.554731
