49 
2jf4_ligand_ani.xyz
 O    4.886052    2.351540    0.251463
 C    4.372412    1.921059   -1.017034
 C    3.454135    0.759927   -0.766567
 C    2.126831    0.846484   -0.903246
 C    4.086164   -0.533050   -0.311630
 O    5.340715   -0.377582    0.327048
 C    3.133070   -1.252693    0.634529
 O    3.688207   -2.481218    1.050415
 C    1.821419   -1.550768   -0.072795
 O    0.904745   -2.162035    0.823170
 C    1.143622   -0.271133   -0.633392
 N    0.031513    0.155450    0.262616
 C   -1.325791    0.226519   -0.365861
 C   -2.168940    1.283815    0.372430
 O   -1.315285    2.019611    1.235287
 C   -2.013301   -1.152717   -0.386879
 C   -3.529955   -1.109508   -0.670106
 C   -3.837294   -0.832057   -2.139595
 O   -3.449722    0.498807   -2.444873
 C   -4.255493   -0.102779    0.248213
 O   -5.198080   -0.714310    1.129793
 C   -3.297980    0.643492    1.164681
 O   -3.979421    1.682148    1.842646
 H    5.581578    3.000208    0.088914
 H    5.196948    1.598474   -1.665718
 H    3.830053    2.741845   -1.509748
 H    1.688783    1.785108   -1.242934
 H    4.261383   -1.190431   -1.178995
 H    5.341527    0.507528    0.730438
 H    2.938977   -0.609221    1.511932
 H    4.608192   -2.279789    1.280852
 H    2.045086   -2.239262   -0.901486
 H    1.397784   -2.852709    1.290702
 H    0.675182   -0.539507   -1.588229
 H    0.014304   -0.547214    1.029227
 H    0.213246    1.075336    0.702672
 H   -1.201378    0.565849   -1.396925
 H   -2.624688    1.956594   -0.368516
 H   -1.896257    2.575533    1.774921
 H   -1.862127   -1.638144    0.586939
 H   -1.516492   -1.792622   -1.127817
 H   -3.930023   -2.103394   -0.439797
 H   -4.914105   -0.974807   -2.320068
 H   -3.294866   -1.552683   -2.771111
 H   -3.650362    0.663257   -3.374073
 H   -4.759435    0.650489   -0.373803
 H   -6.010229   -0.879833    0.636664
 H   -2.877766   -0.064445    1.896328
 H   -4.747004    1.260453    2.255226
