51 
2jfh_ligand_xtb.xyz
 O   -3.906971   -1.854939    0.931621
 S   -3.171961   -1.659305   -0.287215
 O   -3.320391   -2.611390   -1.345178
 N   -3.521767   -0.139587   -0.940146
 C   -3.655466    0.843623    0.114844
 C   -5.042207    0.729574    0.733587
 O   -6.023311    0.443583    0.101266
 O   -5.053427    1.006542    2.030441
 C   -3.409385    2.262140   -0.420419
 C   -2.061754    2.346249   -1.132141
 C   -0.887074    2.150999   -0.207297
 O   -0.935363    1.960099    0.977275
 O    0.272503    2.221589   -0.873970
 C   -1.449588   -1.382602    0.076390
 C   -1.026893   -1.228030    1.401849
 C    0.270610   -0.886134    1.657482
 C    1.185667   -0.688353    0.597459
 C    2.516748   -0.306825    0.828588
 C    3.401972   -0.117811   -0.214189
 C    2.959462   -0.306491   -1.541474
 C    1.667063   -0.674310   -1.790850
 C    0.745671   -0.873655   -0.744066
 C   -0.599660   -1.219872   -0.976935
 O    4.658878    0.253112    0.125990
 C    5.648964    0.380173   -0.877722
 C    6.975176    0.682414   -0.187642
 C    7.453145   -0.490813    0.665157
 C    8.758702   -0.170733    1.380904
 H   -4.364351   -0.188343   -1.503021
 H   -2.911659    0.621607    0.882493
 H   -5.941223    0.875881    2.402915
 H   -3.432049    2.955130    0.421069
 H   -4.203352    2.523416   -1.121740
 H   -2.002643    1.573505   -1.900708
 H   -1.944512    3.314954   -1.621400
 H    1.019036    2.067374   -0.272700
 H   -1.748409   -1.378534    2.189122
 H    0.613476   -0.747389    2.671190
 H    2.866585   -0.162086    1.838838
 H    3.638582   -0.159837   -2.366139
 H    1.332955   -0.816274   -2.807484
 H   -0.970458   -1.353960   -1.980965
 H    5.386464    1.197192   -1.564399
 H    5.728868   -0.553451   -1.450610
 H    7.718564    0.916217   -0.951930
 H    6.844285    1.561819    0.444798
 H    6.680818   -0.729012    1.397887
 H    7.592576   -1.367027    0.027540
 H    8.633917    0.687097    2.037650
 H    9.081451   -1.017841    1.980972
 H    9.542554    0.059537    0.662372
