47 
2jg0_ligand_xtb.xyz
 O    2.889874    2.863370    0.528453
 C    2.088976    1.793367    0.109301
 C    2.978280    0.643796   -0.405369
 O    3.936556    1.183632   -1.276168
 C    3.673255   -0.108164    0.764681
 O    3.775849    0.684696    1.920457
 C    2.841995   -1.376060    0.991878
 O    3.615671   -2.323224    1.674886
 C    2.429848   -1.780643   -0.424538
 S    0.861755   -2.688012   -0.457799
 C    2.182353   -0.447144   -1.170962
 N    0.776190   -0.196483   -1.244306
 C    0.030830   -1.182316   -0.967235
 N   -1.306953   -1.239541   -0.987351
 C   -2.307312   -0.307834   -1.496389
 C   -1.968447    1.191030   -1.366461
 O   -0.916384    1.649232   -2.151595
 O   -3.501630   -0.569953   -0.817174
 C   -3.466900   -0.282248    0.583175
 C   -4.861068   -0.613692    1.126010
 O   -5.187107   -1.960956    0.929835
 C   -3.084880    1.174753    0.863574
 O   -2.936721    1.330527    2.248767
 C   -1.786747    1.523021    0.122148
 O   -1.516492    2.889545    0.308640
 H    3.380160    2.564833    1.308094
 H    1.432338    1.437910    0.910214
 H    1.486066    2.168269   -0.719880
 H    4.073532    2.105846   -1.001100
 H    4.671786   -0.414652    0.419757
 H    4.157404    0.135819    2.615102
 H    1.944198   -1.111469    1.575408
 H    3.107910   -3.136796    1.774734
 H    3.209258   -2.386103   -0.886168
 H    2.579897   -0.473882   -2.192876
 H   -1.704461   -2.147796   -0.790428
 H   -2.517868   -0.537119   -2.553036
 H   -2.857770    1.728021   -1.725657
 H   -0.124508    1.096681   -1.959538
 H   -2.730470   -0.929810    1.079025
 H   -5.593303    0.042522    0.636600
 H   -4.872775   -0.432682    2.201236
 H   -5.122817   -2.139797   -0.016059
 H   -3.878495    1.840472    0.485803
 H   -2.536092    2.198035    2.392459
 H   -0.959280    0.922558    0.535120
 H   -0.995462    3.187355   -0.450109
