47 
2jg0_ligand_ani.xyz
 O    3.798186    2.753271   -0.361596
 C    2.754234    1.811768   -0.529920
 C    3.345559    0.404432   -0.678743
 O    4.349309    0.461262   -1.677634
 C    3.960256   -0.139126    0.637584
 O    4.211126    0.895898    1.575750
 C    3.003832   -1.192067    1.173931
 O    3.713780   -2.059702    2.026879
 C    2.462556   -1.843977   -0.100093
 S    0.819901   -2.582848    0.063775
 C    2.290752   -0.656086   -1.093975
 N    0.912005   -0.205384   -1.021809
 C    0.096495   -1.109479   -0.609444
 N   -1.265580   -1.013368   -0.568356
 C   -2.061767   -0.028147   -1.300253
 C   -1.910721    1.427232   -0.820312
 O   -0.645269    2.006351   -1.011246
 O   -3.419115   -0.392177   -1.146712
 C   -3.921947   -0.336486    0.202135
 C   -5.376375   -0.776728    0.103101
 O   -5.475176   -2.065439   -0.454006
 C   -3.748751    1.056617    0.801293
 O   -4.124426    0.993692    2.158286
 C   -2.304543    1.501399    0.645926
 O   -2.200939    2.826460    1.121293
 H    4.183012    2.547595    0.505564
 H    2.023910    1.861718    0.290215
 H    2.251928    2.080028   -1.465471
 H    4.762403    1.334477   -1.566683
 H    4.901570   -0.636516    0.364949
 H    4.675942    0.498182    2.323330
 H    2.189895   -0.689125    1.715530
 H    3.072275   -2.656613    2.435621
 H    3.178732   -2.580499   -0.476027
 H    2.525611   -0.977773   -2.116854
 H   -1.742095   -1.899430   -0.458737
 H   -1.821513   -0.089660   -2.369206
 H   -2.625048    2.030163   -1.396451
 H    0.023599    1.287132   -1.075567
 H   -3.375839   -1.055322    0.831051
 H   -5.938708   -0.036017   -0.490989
 H   -5.818429   -0.814210    1.101962
 H   -4.985694   -2.028728   -1.288161
 H   -4.387457    1.767353    0.246628
 H   -3.932572    1.863011    2.536967
 H   -1.655211    0.826442    1.229402
 H   -1.346989    3.151600    0.798192
