50 
2jh5_ligand_xtb.xyz
Cl    5.081343   -1.988846   -0.591368
 C    3.376659   -1.901400   -0.670115
 C    2.632928   -1.407748   -1.702210
 C    1.251847   -1.477537   -1.446010
 C    0.948898   -2.016758   -0.223318
 C   -0.350367   -2.181767    0.367752
 S   -3.020040   -2.163952    0.562387
 O   -2.826851   -2.638643    1.899147
 O   -4.079411   -2.712815   -0.229506
 N   -3.307366   -0.524699    0.685079
 C   -3.700468    0.179507   -0.518420
 C   -4.429970    1.477134   -0.168612
 C   -3.280618    2.461117    0.066184
 C   -2.431445    0.684384   -1.197961
 O   -1.666692    0.055001   -1.902770
 N   -2.237645    1.966097   -0.813033
 C   -0.878180    2.466137   -0.801270
 C   -0.831031    3.975741   -0.590797
 C   -0.134128    1.708826    0.318932
 O   -0.772221    1.139704    1.192586
 N    1.207757    1.696428    0.302320
 C    1.937860    1.093624    1.404799
 C    2.852685    2.150417    2.028241
 O    3.733052    2.686883    1.065538
 C    3.028756    3.272773    0.000703
 C    2.105767    2.252480   -0.684426
 S    2.392787   -2.457649    0.645579
 C   -1.482309   -2.258162   -0.322642
 H    3.063507   -1.018808   -2.606753
 H    0.494191   -1.109133   -2.113176
 H   -0.409460   -2.242585    1.446591
 H   -2.573101   -0.062204    1.208611
 H   -4.280058   -0.526860   -1.113216
 H   -5.041224    1.796258   -1.012488
 H   -5.058818    1.356003    0.709176
 H   -3.549673    3.484562   -0.204548
 H   -2.945257    2.437284    1.108067
 H   -0.451164    2.189978   -1.771915
 H   -1.456754    4.471056   -1.329603
 H    0.184336    4.346645   -0.697901
 H   -1.187818    4.233521    0.403337
 H    2.547435    0.270427    1.022319
 H    1.219158    0.715607    2.131211
 H    3.480143    1.706027    2.801233
 H    2.243259    2.954062    2.469173
 H    3.780832    3.639100   -0.699807
 H    2.429668    4.121445    0.368876
 H    1.567174    2.720946   -1.503641
 H    2.718969    1.434983   -1.083165
 H   -1.565671   -2.240735   -1.392051
