78 
2jk7_ligand_xtb.xyz
 C    2.334983    3.674539   -1.604081
 C    1.230694    4.133265   -0.651403
 C    0.965805    3.198938    0.532821
 N    0.259876    1.975468    0.139953
 C    0.813367    0.827570   -0.220795
 C    2.307524    0.777898   -0.473168
 N    2.760643   -0.579617   -0.211191
 C    4.023112   -0.851171    0.076051
 C    4.424340   -2.337080    0.272628
 C    3.731170   -2.975462    1.480889
 C    3.957530   -2.206327    2.779447
 N    5.897006   -2.278764    0.449999
 O    4.909514   -0.017054    0.201469
 C    2.595831    1.136875   -1.947162
 C    1.963506    2.439112   -2.433767
 O    0.153991   -0.210735   -0.407889
 C   -1.179651    2.075049    0.411845
 C   -2.065552    1.886602   -0.840216
 O   -1.467095    2.488150   -1.929799
 N   -2.254519    0.418911   -1.135947
 C   -3.484062   -0.218665   -0.568636
 C   -3.660090   -1.622629   -1.107884
 C   -2.588147   -2.422747   -1.485418
 C    6.707310   -2.883204   -0.618990
 C   -2.813309   -3.710765   -1.943547
 C   -4.100410   -4.212630   -2.020758
 C   -5.170269   -3.421409   -1.637102
 C   -4.950919   -2.133100   -1.185283
 C   -3.430633   -0.218680    0.942464
 C   -2.504801   -1.010938    1.614849
 C   -2.469121   -1.013578    2.997821
 C   -3.358731   -0.234269    3.720229
 C   -4.322187    0.558049    1.671754
 C   -4.287504    0.548431    3.055866
 C   -1.365801    3.477016    1.002193
 C    0.010660    3.812079    1.561331
 H    2.530632    4.505036   -2.282396
 H    3.258721    3.496148   -1.051575
 H    0.309971    4.268026   -1.218492
 H    1.518130    5.101278   -0.240003
 H    1.915928    2.944742    1.007289
 H    2.868453    1.445128    0.182934
 H    2.057567   -1.297414   -0.338411
 H    4.190097   -2.899773   -0.635286
 H    4.084253   -4.003029    1.590961
 H    2.661146   -3.027351    1.276450
 H    3.376904   -2.662640    3.575627
 H    4.998169   -2.217701    3.095902
 H    3.641227   -1.170524    2.682617
 H    6.164790   -2.671702    1.356826
 H    6.047364   -1.214055    0.476038
 H    3.679695    1.197741   -2.057935
 H    2.235929    0.315883   -2.572360
 H    2.305708    2.580491   -3.459489
 H    0.878112    2.341076   -2.470989
 H   -1.452994    1.305310    1.144098
 H   -3.055578    2.304911   -0.613690
 H   -2.106286    2.820077   -2.572495
 H   -1.353820   -0.053684   -0.770572
 H   -2.259797    0.283102   -2.153243
 H   -4.340973    0.386176   -0.890000
 H   -1.569581   -2.064150   -1.428916
 H    7.764717   -2.735192   -0.409415
 H    6.475504   -2.411348   -1.571556
 H    6.511160   -3.951968   -0.689103
 H   -1.976369   -4.323770   -2.240862
 H   -4.268862   -5.216038   -2.377487
 H   -6.176447   -3.804694   -1.692439
 H   -5.786649   -1.518929   -0.885427
 H   -1.824239   -1.637052    1.057462
 H   -1.755017   -1.636205    3.514182
 H   -3.336110   -0.247274    4.798235
 H   -5.058812    1.160616    1.160433
 H   -4.990951    1.146266    3.613179
 H   -2.142853    3.490036    1.762005
 H   -1.629554    4.184201    0.216794
 H    0.148558    3.335601    2.532273
 H    0.161962    4.881141    1.677025
