162 
2jkr_ligand_dft.xyz
 N  -10.161099   -1.796017    0.479791
 C  -11.009479   -1.995730   -0.745498
 C  -10.141267   -1.388682   -1.856602
 O   -9.311378   -2.084012   -2.418219
 C  -12.416879   -1.419550   -0.571370
 C  -13.353446   -2.280709    0.283533
 S  -12.891774   -2.225686    2.052006
 C  -13.790486   -3.673120    2.671210
 N  -10.244675   -0.046472   -2.028989
 C   -9.041965    0.717843   -2.284192
 C   -9.413842    2.080452   -2.859602
 O  -10.284769    2.677554   -1.925769
 C   -8.288218    0.860729   -0.937736
 O   -8.858511    0.686950    0.139342
 N   -6.992331    1.177975   -1.046343
 C   -6.090050    1.412758    0.064816
 C   -4.756990    1.809892   -0.579532
 O   -4.521401    1.532913   -1.750390
 C   -5.875019    0.193918    0.991169
 C   -5.400247   -1.078720    0.277371
 C   -6.560331   -1.813944   -0.363872
 O   -7.512070   -2.184552    0.332078
 N   -6.501085   -2.033619   -1.687408
 N   -3.886560    2.447884    0.234668
 C   -2.479308    2.532650   -0.091146
 C   -1.765809    1.313057    0.526654
 O   -2.383818    0.420465    1.091377
 C   -1.897045    3.921866    0.265890
 C   -2.054670    4.317172    1.743662
 C   -2.525342    4.983270   -0.642216
 C   -1.344678    3.422915    2.762081
 N   -0.419309    1.279921    0.359532
 C    0.407209    0.333237    1.071560
 C    1.561577    1.110042    1.697939
 O    1.939283    2.179000    1.229306
 C    0.963344   -0.782569    0.151618
 C    1.727960   -0.258809   -1.067279
 C    2.163452   -1.348889   -2.055609
 C    3.190718   -2.360904   -1.553022
 N    4.500295   -1.733493   -1.227046
 N    2.196619    0.514830    2.738475
 C    3.570814    0.888006    3.050802
 C    4.336629    0.825523    1.712902
 O    4.246919   -0.188572    1.025894
 C    4.161898   -0.025978    4.141035
 C    3.855272   -1.520287    3.977675
 C    4.730989   -2.421551    4.865710
 N    6.159193   -2.286014    4.629932
 C    6.683720   -2.436194    3.359596
 N    7.814420   -1.707052    3.129060
 N    6.156374   -3.160441    2.423712
 N    5.006774    1.928804    1.305683
 C    5.043801    2.273585   -0.122344
 C    5.765288    1.260093   -1.010879
 O    5.209798    0.848314   -2.033088
 C    5.679689    3.656925   -0.317522
 C    4.931594    4.845018    0.310216
 C    3.487073    4.951194   -0.184776
 C    5.710302    6.130960    0.017519
 N    7.034541    0.954220   -0.690281
 C    7.873950    0.115140   -1.527608
 C    8.102687   -1.205474   -0.804171
 O    8.276333   -1.219379    0.407941
 C    9.230330    0.777423   -1.846397
 C    9.231908    1.705081   -3.073668
 C    9.043143    0.920345   -4.375662
 C    8.216315    2.846429   -2.973330
 N    8.106577   -2.312900   -1.577837
 C    8.398608   -3.614959   -1.026114
 C    9.294063   -4.356023   -2.001127
 O    9.519942   -3.977676   -3.125537
 C    7.098712   -4.424619   -0.776000
 O    6.096291   -3.644580   -0.186903
 O    9.750209   -5.495158   -1.479167
 H  -10.642062   -2.167523    1.313773
 H   -9.207133   -2.220696    0.363087
 H   -9.946905   -0.787998    0.608334
 H  -11.052217   -3.071607   -0.926767
 H  -12.372311   -0.403457   -0.156944
 H  -12.859980   -1.332104   -1.569580
 H  -13.327165   -3.320115   -0.061695
 H  -14.378479   -1.917174    0.173170
 H  -13.588816   -3.740732    3.741943
 H  -14.864777   -3.543407    2.523455
 H  -13.450257   -4.589216    2.182997
 H  -10.914067    0.466610   -1.468530
 H   -8.426775    0.169853   -3.002143
 H   -8.502271    2.675522   -3.011560
 H   -9.897117    1.926527   -3.833325
 H  -10.643376    3.491032   -2.298608
 H   -6.539341    1.225008   -1.953963
 H   -6.475319    2.239967    0.672772
 H   -5.123486    0.470060    1.736378
 H   -6.808185   -0.012850    1.518973
 H   -4.602797   -0.856771   -0.437938
 H   -4.980317   -1.753870    1.028802
 H   -7.312277   -2.422052   -2.156161
 H   -5.737855   -1.677990   -2.241017
 H   -4.116449    2.473292    1.218414
 H   -2.416639    2.407928   -1.177581
 H   -0.821051    3.897231    0.044236
 H   -1.668579    5.337883    1.844907
 H   -3.123652    4.390854    1.987542
 H   -3.602561    5.060191   -0.462056
 H   -2.080505    5.964295   -0.451127
 H   -2.376903    4.744633   -1.700482
 H   -1.779676    2.418957    2.813686
 H   -0.281121    3.321792    2.518573
 H   -1.418283    3.858749    3.762797
 H    0.068790    2.111486    0.052491
 H   -0.213346   -0.128745    1.846297
 H    1.602998   -1.439490    0.755077
 H    0.104893   -1.379937   -0.177056
 H    2.598985    0.325095   -0.753885
 H    1.078433    0.433557   -1.613948
 H    2.564264   -0.865006   -2.954504
 H    1.286069   -1.921401   -2.379888
 H    3.377380   -3.119990   -2.315977
 H    2.860652   -2.876727   -0.648040
 H    5.217139   -2.459878   -0.959901
 H    4.846994   -1.122767   -1.977503
 H    4.417984   -1.106783   -0.407837
 H    1.916847   -0.426459    2.971489
 H    3.571048    1.919546    3.416190
 H    5.246936    0.128796    4.131240
 H    3.798413    0.322725    5.114243
 H    3.989148   -1.803264    2.929120
 H    2.813384   -1.731874    4.252426
 H    4.562090   -2.196239    5.922579
 H    4.434448   -3.467534    4.730170
 H    6.596491   -1.551676    5.167561
 H    8.461513   -1.571449    3.891205
 H    8.224878   -1.812674    2.207959
 H    5.303950   -3.614951    2.735274
 H    4.888264    2.739666    1.899056
 H    4.015488    2.283427   -0.496828
 H    5.749678    3.826429   -1.399120
 H    6.709977    3.629537    0.059978
 H    4.910698    4.726552    1.405478
 H    3.019988    5.861876    0.203651
 H    2.874941    4.103135    0.136020
 H    3.460721    5.005951   -1.280177
 H    5.743237    6.324472   -1.061106
 H    5.234685    6.991739    0.496997
 H    6.741789    6.069848    0.380790
 H    7.379566    1.178377    0.233963
 H    7.310946   -0.052932   -2.448439
 H    9.971113   -0.014226   -2.015335
 H    9.562898    1.320919   -0.953526
 H   10.234261    2.151042   -3.101772
 H    8.037684    0.485322   -4.446036
 H    9.774949    0.110051   -4.467639
 H    9.163859    1.577850   -5.241981
 H    8.362452    3.556847   -3.793070
 H    7.188407    2.470960   -3.046647
 H    8.317801    3.395097   -2.030357
 H    8.180226   -2.226957   -2.584950
 H    8.920130   -3.475016   -0.075159
 H    7.338843   -5.299767   -0.162104
 H    6.706341   -4.780571   -1.735333
 H    6.294792   -3.433422    0.781730
 H   10.284684   -5.942161   -2.157210
