142 
2jo9_ligand_xtb.xyz
 N    0.369222    0.540436    1.029233
 C    1.187975    1.169783    2.090901
 C    2.681770    0.915334    1.828410
 O    3.487082    1.818862    1.939183
 C    0.641413    0.810126    3.473350
 C    0.806834   -0.643437    3.918168
 C    2.150974   -0.907673    4.539079
 O    3.165034   -0.300673    4.318675
 O    2.107084   -1.926820    5.407845
 N    2.990729   -0.279173    1.294980
 C    4.356632   -0.556884    0.887338
 C    4.278376   -1.370643   -0.404661
 O    4.375058   -2.596173   -0.407597
 C    5.192501   -1.188708    2.016847
 C    4.970406   -2.666514    2.364438
 C    3.610942   -3.047505    2.872920
 O    3.694073   -3.825352    3.950437
 O    2.541074   -2.752789    2.392096
 N    4.045488   -0.712118   -1.548034
 C    4.273999    0.694525   -1.840765
 C    3.248071    1.638132   -1.205338
 O    2.122163    1.252704   -0.916196
 C    4.161825    0.784064   -3.378029
 C    4.475248   -0.630177   -3.853289
 C    3.818703   -1.473967   -2.773015
 N    3.617198    2.917861   -1.085167
 C    2.883216    3.861261   -0.245250
 C    1.367051    3.906127   -0.335231
 O    0.728977    4.014908    0.708671
 C    3.480360    5.247546   -0.568954
 C    4.636638    4.973060   -1.536247
 C    4.925713    3.485363   -1.355941
 N    0.741389    3.987318   -1.511816
 C   -0.702469    4.240289   -1.513678
 C   -1.330508    3.505207   -0.335070
 O   -1.236587    2.280229   -0.258035
 C   -1.149670    3.723729   -2.878910
 C    0.063257    4.026453   -3.756579
 C    1.238074    3.686558   -2.840266
 N   -2.060955    4.191162    0.550584
 C   -2.315864    3.572240    1.847610
 C   -2.917734    2.179247    1.678900
 O   -2.455906    1.207624    2.254975
 C   -3.224251    4.562270    2.595498
 C   -3.536757    5.659607    1.572777
 C   -2.350184    5.607814    0.612017
 N   -4.010935    2.140025    0.906581
 C   -4.702523    0.902157    0.589852
 C   -3.890378    0.129924   -0.470959
 O   -4.137911    0.170376   -1.657267
 C   -6.116676    1.198481    0.086538
 C   -6.959243   -0.048788    0.106957
 C   -7.076548   -0.847212   -1.021198
 C   -7.615538   -0.434046    1.270271
 C   -7.837351   -2.001374   -0.993661
 C   -8.378083   -1.583024    1.308920
 C   -8.496011   -2.376657    0.171189
 O   -9.257116   -3.498247    0.246936
 N   -2.879369   -0.577448    0.058986
 C   -2.045423   -1.432940   -0.754552
 C   -1.210187   -2.317631    0.159944
 O   -0.767491   -1.900874    1.227524
 C   -1.086061   -0.632934   -1.678245
 C   -1.262277   -1.003650   -3.159365
 C   -0.758194   -2.413575   -3.311674
 O    0.515793   -2.474704   -3.657739
 O   -1.414307   -3.398620   -3.052067
 N   -1.008825   -3.562030   -0.285253
 C    0.112622   -4.332948    0.201979
 C    1.413773   -3.592302   -0.170675
 O    2.476898   -4.332347   -0.012368
 C    0.092685   -5.750364   -0.356083
 C    0.359590   -5.772778   -1.844385
 O   -0.117385   -6.867332   -2.410763
 O    0.950852   -4.914797   -2.454112
 O    1.407965   -2.438276   -0.523620
 H   -0.020397   -0.402057    1.273030
 H   -0.431631    1.157073    0.779663
 H    0.942834    0.479631    0.171096
 H    1.085372    2.257695    1.981860
 H   -0.426115    1.038828    3.451714
 H    1.121348    1.460293    4.205730
 H    0.049816   -0.888879    4.663569
 H    0.670349   -1.345630    3.092592
 H    2.975155   -2.062551    5.822813
 H    2.394642   -1.092331    1.400384
 H    4.805254    0.424419    0.687875
 H    6.244890   -1.085127    1.746096
 H    5.007779   -0.578967    2.903685
 H    5.696184   -2.954993    3.125501
 H    5.147261   -3.273836    1.473139
 H    2.812671   -4.095627    4.259946
 H    5.281533    0.963165   -1.503043
 H    3.137146    1.040108   -3.651340
 H    4.831872    1.529984   -3.800104
 H    4.074523   -0.835361   -4.842277
 H    5.552640   -0.797927   -3.866081
 H    4.254106   -2.467145   -2.669218
 H    2.741020   -1.570283   -2.934650
 H    3.092599    3.597914    0.801574
 H    2.737610    5.908999   -1.013916
 H    3.835642    5.715515    0.346485
 H    4.336770    5.171045   -2.565827
 H    5.509837    5.581777   -1.315822
 H    5.378037    3.053385   -2.245752
 H    5.584359    3.326149   -0.493897
 H   -0.857422    5.320709   -1.423512
 H   -1.321488    2.648148   -2.817403
 H   -2.057920    4.209249   -3.227618
 H    0.079847    5.085020   -4.018555
 H    0.073879    3.441975   -4.673295
 H    2.132955    4.267990   -3.066895
 H    1.474592    2.620567   -2.904832
 H   -1.355858    3.445006    2.364401
 H   -4.128187    4.079758    2.963115
 H   -2.691241    4.976621    3.449307
 H   -4.458468    5.433735    1.035026
 H   -3.644586    6.636685    2.036759
 H   -2.603478    6.006121   -0.370418
 H   -1.490462    6.152280    1.019660
 H   -4.254205    2.949356    0.356353
 H   -4.737327    0.304283    1.507295
 H   -6.568060    1.958487    0.727985
 H   -6.047110    1.580335   -0.933906
 H   -6.563115   -0.566406   -1.927897
 H   -7.537020    0.178125    2.157278
 H   -7.925601   -2.613159   -1.881733
 H   -8.895685   -1.882797    2.205730
 H   -9.278980   -3.943305   -0.608911
 H   -2.622614   -0.448208    1.032367
 H   -2.706052   -2.046225   -1.377165
 H   -0.048968   -0.822217   -1.396185
 H   -1.294923    0.427680   -1.544557
 H   -2.314385   -0.933927   -3.433811
 H   -0.663788   -0.338018   -3.779274
 H    0.857952   -3.385373   -3.534102
 H   -1.330380   -3.780546   -1.224509
 H    0.074745   -4.348396    1.298095
 H    3.292038   -3.788784   -0.202350
 H   -0.862021   -6.237626   -0.158346
 H    0.883497   -6.335818    0.118587
 H    0.055993   -6.891826   -3.366062
