142 
2jo9_ligand_ani.xyz
 N    0.486619    0.467770    1.072841
 C    1.248582    1.179048    2.120770
 C    2.764394    1.005730    1.926751
 O    3.538275    1.902524    2.246086
 C    0.724528    0.859993    3.528200
 C    0.850343   -0.573699    4.052951
 C    2.195307   -0.903500    4.660510
 O    3.198626   -0.234123    4.592271
 O    2.157403   -2.061876    5.349918
 N    3.155915   -0.130406    1.313493
 C    4.528924   -0.317069    0.885381
 C    4.491696   -1.176333   -0.398089
 O    4.712227   -2.392049   -0.338573
 C    5.451866   -0.863467    1.990616
 C    5.372968   -2.337056    2.416826
 C    4.036821   -2.892140    2.840424
 O    4.152268   -3.760618    3.855036
 O    2.949761   -2.667066    2.344280
 N    4.164674   -0.597626   -1.585182
 C    4.275891    0.813354   -1.986575
 C    3.196725    1.728442   -1.373194
 O    2.108503    1.289349   -1.016996
 C    4.099467    0.768749   -3.530233
 C    4.388985   -0.681930   -3.922305
 C    3.847987   -1.464861   -2.734489
 N    3.481408    3.064623   -1.319967
 C    2.826815    3.949343   -0.348916
 C    1.312482    4.207044   -0.456168
 O    0.768179    4.630009    0.566309
 C    3.633771    5.270069   -0.448224
 C    4.282903    5.211548   -1.831150
 C    4.597222    3.726683   -2.007595
 N    0.577670    4.033557   -1.581727
 C   -0.863003    4.284779   -1.463140
 C   -1.433359    3.430086   -0.331541
 O   -1.178977    2.228971   -0.284199
 C   -1.418791    3.878844   -2.836040
 C   -0.232674    4.080454   -3.780756
 C    0.958613    3.625803   -2.936223
 N   -2.233235    3.997022    0.612423
 C   -2.349863    3.290286    1.893209
 C   -3.076135    1.949619    1.762381
 O   -2.689323    0.963375    2.387976
 C   -3.042676    4.301286    2.835561
 C   -3.480547    5.460427    1.927379
 C   -2.485134    5.427922    0.768271
 N   -4.151895    1.932715    0.943394
 C   -4.853920    0.695388    0.632787
 C   -4.024135   -0.119349   -0.383402
 O   -4.256306   -0.123235   -1.589585
 C   -6.255581    1.017354    0.108675
 C   -7.196425   -0.164977    0.105362
 C   -7.183454   -1.095067   -0.934994
 C   -8.094708   -0.366636    1.156850
 C   -8.038722   -2.191468   -0.928226
 C   -8.953394   -1.457414    1.179663
 C   -8.926421   -2.375295    0.130968
 O   -9.787528   -3.428718    0.195372
 N   -2.995548   -0.824351    0.145224
 C   -2.121038   -1.576889   -0.723842
 C   -1.231656   -2.463639    0.151616
 O   -0.862740   -2.093419    1.267323
 C   -1.232063   -0.654888   -1.614537
 C   -1.325616   -0.961695   -3.119989
 C   -0.795660   -2.350596   -3.344639
 O    0.529537   -2.397930   -3.464306
 O   -1.495657   -3.345506   -3.297789
 N   -0.817762   -3.627482   -0.399748
 C    0.327992   -4.339323    0.126345
 C    1.624351   -3.561294   -0.162301
 O    2.705553   -4.306024   -0.016965
 C    0.389211   -5.780300   -0.379230
 C    0.725923   -5.892769   -1.849936
 O    0.683971   -7.151489   -2.286348
 O    1.017890   -4.970689   -2.587275
 O    1.647305   -2.381351   -0.450008
 H    0.190407   -0.489660    1.324976
 H   -0.354964    1.013362    0.835488
 H    1.057319    0.455590    0.210301
 H    1.096309    2.255503    1.954296
 H   -0.341718    1.117750    3.501768
 H    1.211288    1.538434    4.235592
 H    0.115868   -0.726110    4.852682
 H    0.612095   -1.329951    3.291214
 H    3.049911   -2.170950    5.718920
 H    2.537160   -0.932364    1.279035
 H    4.894740    0.690470    0.657987
 H    6.483390   -0.684964    1.665037
 H    5.282177   -0.219505    2.860849
 H    6.068025   -2.492980    3.246751
 H    5.701374   -2.975460    1.588439
 H    3.248272   -4.073139    4.032283
 H    5.270134    1.195079   -1.717061
 H    3.057917    1.023734   -3.766698
 H    4.747381    1.480466   -4.050561
 H    3.915631   -0.974098   -4.864093
 H    5.468408   -0.844624   -4.020008
 H    4.318165   -2.438541   -2.581475
 H    2.759514   -1.609316   -2.805707
 H    2.937557    3.533956    0.665287
 H    3.008428    6.153995   -0.290398
 H    4.402795    5.269885    0.331342
 H    3.570250    5.533163   -2.598854
 H    5.174115    5.838182   -1.914750
 H    4.648722    3.433410   -3.060266
 H    5.557854    3.477033   -1.532375
 H   -1.023481    5.346791   -1.256173
 H   -1.692674    2.814975   -2.802721
 H   -2.306767    4.454012   -3.115692
 H   -0.125472    5.137942   -4.049720
 H   -0.324816    3.505506   -4.707600
 H    1.898951    4.087616   -3.240840
 H    1.055996    2.534886   -2.973620
 H   -1.353198    3.033957    2.274336
 H   -3.880702    3.851576    3.377271
 H   -2.322909    4.642781    3.586366
 H   -4.490724    5.277395    1.544957
 H   -3.489034    6.424591    2.442189
 H   -2.901900    5.851293   -0.150145
 H   -1.550922    5.954869    1.010172
 H   -4.268737    2.714217    0.313843
 H   -4.916030    0.131650    1.569997
 H   -6.662098    1.811606    0.744817
 H   -6.154155    1.419149   -0.906593
 H   -6.478504   -0.957845   -1.749895
 H   -8.129708    0.350339    1.975295
 H   -8.015549   -2.905846   -1.750247
 H   -9.652180   -1.611410    1.996817
 H   -9.664428   -3.983998   -0.584754
 H   -2.690012   -0.654176    1.100648
 H   -2.732933   -2.204866   -1.380090
 H   -0.185709   -0.738454   -1.298662
 H   -1.537615    0.383336   -1.452185
 H   -2.370967   -0.917366   -3.437689
 H   -0.737208   -0.230914   -3.683196
 H    0.800234   -3.339563   -3.368828
 H   -1.127710   -3.843020   -1.341821
 H    0.229223   -4.337498    1.219700
 H    3.491086   -3.724668   -0.139422
 H   -0.563687   -6.284337   -0.198024
 H    1.157922   -6.333877    0.168824
 H    0.928498   -7.124422   -3.227344
