86 
2k1q_ligand_ani.xyz
 C    4.436523   -0.324698    0.411915
 O    4.093469   -0.828072    1.471299
 O    5.380962   -0.824845   -0.398841
 C    6.075891   -1.981634    0.097186
 C    7.107207   -1.625900    1.163485
 C    8.096449   -0.580215    0.653315
 C    7.826991   -2.894326    1.623526
 N    3.908871    0.817288   -0.118040
 C    2.843068    1.514713    0.587345
 C    1.448056    0.909826    0.284479
 O    0.481505    1.576181   -0.070661
 C    2.919341    3.029074    0.360787
 C    3.252534    3.469463   -1.077295
 C    2.154633    3.120983   -2.042846
 O    2.178436    1.862445   -2.469138
 O    1.296316    3.923942   -2.373966
 N    1.392968   -0.434917    0.451911
 C    0.307162   -1.258303   -0.057267
 C   -0.731542   -1.498848    1.058785
 O   -1.060223   -2.624918    1.435412
 C    0.878119   -2.561833   -0.629734
 C    0.151180   -3.148080   -1.856038
 C    0.343509   -2.277013   -3.102775
 C   -1.326534   -3.418891   -1.592148
 N   -1.258865   -0.382198    1.594027
 C   -2.101995   -0.424547    2.786119
 C   -1.943440    0.835767    3.628139
 C   -2.321655    2.117436    2.923209
 F   -2.220801    3.162190    3.789362
 F   -1.435042    2.372119    1.898614
 C   -3.587554   -0.691974    2.447305
 O   -4.484977    0.046362    2.842709
 N   -3.803842   -1.781766    1.681553
 C   -5.087166   -2.075752    1.063751
 C   -5.681369   -0.900932    0.252920
 C   -4.657386   -0.149664   -0.554761
 C   -3.982627   -0.694030   -1.650904
Cl   -4.532967   -2.204632   -2.334942
 C   -4.261674    1.126763   -0.140559
 C   -2.888981   -0.063613   -2.229956
 C   -3.187029    1.784538   -0.709854
 C   -2.481962    1.178669   -1.750986
 C   -1.272010    1.823425   -2.330551
 O   -0.432038    1.200992   -2.976819
 O   -1.196743    3.115506   -2.088626
 H    5.343451   -2.695399    0.487449
 H    6.560864   -2.405768   -0.787372
 H    6.552047   -1.210582    2.014835
 H    8.631035   -0.952364   -0.230712
 H    7.590192    0.347351    0.372689
 H    8.841343   -0.346446    1.421861
 H    8.390846   -3.348251    0.797907
 H    7.114933   -3.639254    1.996270
 H    8.536582   -2.673410    2.428612
 H    3.892766    0.855176   -1.129420
 H    3.030691    1.312016    1.649781
 H    1.976751    3.480218    0.690004
 H    3.710479    3.417523    1.008973
 H    4.203109    3.034092   -1.399044
 H    3.355412    4.555849   -1.097183
 H    1.295564    1.653975   -2.867576
 H    2.149564   -0.895520    0.948900
 H   -0.187448   -0.663999   -0.837110
 H    1.919123   -2.362202   -0.918842
 H    0.896717   -3.305691    0.175312
 H    0.638695   -4.113203   -2.061751
 H   -0.180953   -2.712132   -3.961751
 H   -0.039873   -1.259308   -2.963035
 H    1.404573   -2.192428   -3.366662
 H   -1.860911   -2.480919   -1.410879
 H   -1.461237   -4.049945   -0.707952
 H   -1.797432   -3.905888   -2.453221
 H   -0.988307    0.514467    1.204032
 H   -1.754094   -1.286314    3.372776
 H   -0.903109    0.929788    3.956939
 H   -2.573577    0.755921    4.517740
 H   -3.327715    2.099906    2.498553
 H   -3.014762   -2.396845    1.513765
 H   -4.919693   -2.932219    0.406109
 H   -5.816411   -2.379869    1.824633
 H   -6.136341   -0.199861    0.956505
 H   -6.476806   -1.294140   -0.391371
 H   -4.794857    1.583881    0.689759
 H   -2.352611   -0.531521   -3.049429
 H   -2.874583    2.763499   -0.361488
 H   -0.305008    3.447757   -2.373074
