45 
2k46_ligand_xtb.xyz
 O   -1.294526   -2.832984    1.060267
 C   -1.085123   -0.468993    1.149188
 O   -0.140047   -0.578517    0.140848
 C   -2.050220   -1.655473    1.024558
 C   -2.836691   -1.518505   -0.278438
 O   -3.749451   -2.584980   -0.351991
 C   -3.553133   -0.161689   -0.304721
 O   -4.213227   -0.065955   -1.540333
 C   -2.523965    0.959014   -0.100428
 O   -1.777111    0.762091    1.096551
 C   -3.182970    2.334452    0.040357
 O   -3.847325    2.649253   -1.164619
 C    2.778753    1.826088    0.034673
 O    3.183600    1.891683    1.370457
 C    1.288740    1.414093   -0.036301
 O    0.592344    2.291683    0.816799
 C    1.158188   -0.050568    0.397235
 C    2.131643   -0.944469   -0.383442
 O    2.086025   -2.256987    0.097551
 C    3.551456   -0.389349   -0.234259
 O    3.591463    0.964173   -0.683936
 C    4.561302   -1.161035   -1.085557
 O    5.867633   -0.705591   -0.875257
 H   -1.872198   -3.545181    0.754746
 H   -0.612121   -0.480129    2.142477
 H   -2.758453   -1.621267    1.868079
 H   -2.133162   -1.560049   -1.124625
 H   -4.361046   -2.383039   -1.070962
 H   -4.282746   -0.132717    0.524039
 H   -4.377656    0.870397   -1.724951
 H   -1.850975    0.964819   -0.970462
 H   -3.887940    2.304541    0.881707
 H   -2.402467    3.071155    0.265653
 H   -4.189632    3.547692   -1.111749
 H    2.902223    2.807937   -0.451932
 H    2.471320    2.333627    1.853014
 H    0.935692    1.509546   -1.074146
 H   -0.293658    1.924953    0.985569
 H    1.383905   -0.129116    1.470900
 H    1.843061   -0.910580   -1.447676
 H    1.155058   -2.496627    0.220513
 H    3.851199   -0.436255    0.820173
 H    4.533621   -2.214653   -0.805419
 H    4.277326   -1.055375   -2.142690
 H    5.845748    0.257977   -0.930133
