45 
2k46_ligand_ani.xyz
 O   -0.634899   -2.635307    0.197354
 C   -0.982363   -0.407241    0.946838
 O   -0.189767    0.027992   -0.135663
 C   -1.653901   -1.727088    0.576160
 C   -2.642319   -1.505814   -0.550661
 O   -3.270111   -2.743384   -0.813066
 C   -3.648920   -0.444771   -0.144683
 O   -4.491316   -0.249239   -1.258008
 C   -2.894107    0.835722    0.250461
 O   -1.933916    0.565901    1.277031
 C   -3.804365    1.899260    0.842921
 O   -4.817408    2.212465   -0.110180
 C    3.034960    1.814026   -0.686866
 O    3.308687    2.386523    0.567438
 C    1.539615    1.498521   -0.802294
 O    0.852797    2.690058   -0.445018
 C    1.158474    0.377971    0.157711
 C    2.088085   -0.828661    0.012496
 O    1.858579   -1.762755    1.042767
 C    3.532987   -0.350143    0.119141
 O    3.797713    0.655909   -0.861205
 C    4.550430   -1.450364   -0.138068
 O    5.862925   -0.970488    0.032782
 H   -1.069515   -3.402822   -0.200316
 H   -0.349047   -0.544398    1.833036
 H   -2.193609   -2.114473    1.451375
 H   -2.097435   -1.148042   -1.437416
 H   -3.945714   -2.568357   -1.483737
 H   -4.223061   -0.811196    0.727029
 H   -4.942817    0.601561   -1.123307
 H   -2.404685    1.227090   -0.656306
 H   -4.241824    1.497433    1.766860
 H   -3.211219    2.787788    1.093156
 H   -5.525293    2.694324    0.330963
 H    3.339388    2.501467   -1.491383
 H    2.562319    2.989983    0.730050
 H    1.292239    1.200787   -1.830960
 H   -0.041982    2.427376   -0.185193
 H    1.232225    0.759613    1.186949
 H    1.917092   -1.279182   -0.979538
 H    1.052919   -2.256925    0.806576
 H    3.696250    0.059499    1.125330
 H    4.400097   -2.264132    0.576618
 H    4.397694   -1.854014   -1.153892
 H    5.938249   -0.193288   -0.538684
