54 
2kce_ligand_xtb.xyz
 N   -2.533763    3.368238   -0.825159
 C   -1.470229    3.737921   -0.209724
 C   -0.868117    5.074213   -0.474248
 N   -0.818777    2.957981    0.706476
 C   -1.263441    1.721037    1.094494
 O   -0.647375    1.061160    1.930354
 C   -2.445263    1.270028    0.385532
 C   -2.885731   -0.044572    0.537398
 C   -3.792682   -0.582144   -0.348600
 C   -4.385932    0.264095   -1.295735
 C   -4.036646    1.589086   -1.396133
 C   -3.007554    2.104177   -0.596942
 C   -4.051152   -2.073260   -0.426568
 N   -3.176514   -2.892795    0.385008
 C    0.445116   -1.940067   -0.408562
 S   -1.131488   -1.987944   -1.150298
 C   -1.824871   -2.686914    0.285635
 C   -0.856980   -2.940451    1.231295
 C    0.415846   -2.507860    0.836500
 C    1.528717   -1.299417   -1.143186
 O    1.489029   -1.063311   -2.339389
 N    2.587460   -0.928318   -0.367385
 C    3.803182   -0.413747   -0.932389
 C    4.017145    1.090989   -0.660749
 C    3.945523    1.452740    0.832508
 C    2.509637    1.725615    1.232281
 O    1.939176    2.754000    0.932606
 O    1.957046    0.753086    1.912718
 C    4.984923   -1.195056   -0.381733
 O    6.101686   -0.973469   -1.076943
 O    4.942612   -1.913709    0.580308
 C   -3.686498   -3.366635    1.650961
 H    0.175677    4.958487   -0.760569
 H   -0.906208    5.685266    0.426326
 H   -1.416724    5.568666   -1.268950
 H    0.123355    3.217402    1.017373
 H   -2.421259   -0.627293    1.317189
 H   -5.117945   -0.147825   -1.975833
 H   -4.489333    2.234906   -2.131142
 H   -5.084525   -2.297401   -0.149952
 H   -3.917511   -2.367623   -1.476034
 H   -1.049264   -3.377700    2.193082
 H    1.280460   -2.612094    1.468145
 H    2.607349   -1.165624    0.611912
 H    3.748731   -0.562574   -2.018354
 H    3.257674    1.655538   -1.204177
 H    4.994675    1.363221   -1.060594
 H    4.513599    2.368367    1.002971
 H    4.350921    0.651517    1.449682
 H    0.969652    0.895090    2.057118
 H    6.843530   -1.476769   -0.703846
 H   -3.146042   -4.266597    1.941857
 H   -3.591367   -2.623161    2.451378
 H   -4.737842   -3.623177    1.535156
