72 
2kp8_ligand_ani.xyz
 C   -8.035471   -2.883183   -0.726370
 O   -7.416588   -2.694184    0.527580
 C   -6.100235   -2.358472    0.532050
 C   -5.323052   -2.183338   -0.613105
 C   -3.976689   -1.851402   -0.489448
 C   -3.384247   -1.685749    0.764117
 C   -4.183286   -1.838729    1.898959
 C   -5.519953   -2.177248    1.792387
 C   -1.936259   -1.371692    0.883562
 C   -1.012939   -2.003719    0.050023
 C    0.339994   -1.710902    0.131724
 C    0.800837   -0.732703    1.009844
 C    2.247675   -0.286230    1.005829
 N    2.795275    0.037612   -0.322532
 C    4.185148   -0.397471   -0.582110
 C    5.186569    0.313793    0.351807
 C    6.475741   -0.479122    0.548159
 C    6.156716   -1.855618    1.126377
 C    5.190655   -2.611725    0.238748
 C    5.189373   -4.009749    0.213849
 C    4.365680   -4.714865   -0.653528
 C    3.529373   -4.021114   -1.524663
 C    3.508330   -2.632569   -1.488905
 C    4.302845   -1.915500   -0.586349
 C    2.431470    1.200379   -0.993013
 O    3.127145    1.691352   -1.865374
 C    1.113421    1.859381   -0.662725
 C   -0.065392    1.341685   -1.192135
 C   -1.286351    1.961164   -0.955306
 C   -2.514690    1.181984   -1.322979
 O   -3.474137    1.272400   -0.388881
 O   -2.608878    0.491454   -2.311103
 C   -1.311029    3.210225   -0.320709
 C   -0.143537    3.715087    0.235106
 C    1.066750    3.043000    0.085523
 C    2.297142    3.570761    0.749792
 O    3.308565    2.937434    0.966571
 O    2.180672    4.859981    1.112598
 C   -2.525429    4.080556   -0.221739
 O   -3.347067    3.943546   -1.276382
 O   -2.730251    4.861983    0.675466
 C   -0.114907   -0.135644    1.875090
 C   -1.466353   -0.446330    1.815707
 H   -9.074085   -3.141335   -0.515198
 H   -7.563122   -3.700224   -1.287923
 H   -8.002740   -1.967470   -1.331613
 H   -5.744860   -2.311883   -1.603272
 H   -3.396242   -1.662305   -1.391714
 H   -3.738777   -1.712311    2.885189
 H   -6.143410   -2.305616    2.671856
 H   -1.365732   -2.746421   -0.663455
 H    1.036067   -2.235283   -0.518080
 H    2.872475   -1.087449    1.413306
 H    2.351160    0.587940    1.664677
 H    4.366876   -0.068567   -1.608872
 H    5.394866    1.309690   -0.052122
 H    4.714995    0.460971    1.331740
 H    7.149043    0.070362    1.216699
 H    7.004487   -0.590350   -0.408392
 H    7.072059   -2.443640    1.264918
 H    5.714876   -1.740876    2.127406
 H    5.861798   -4.549181    0.878366
 H    4.387120   -5.801636   -0.663736
 H    2.897441   -4.559488   -2.226448
 H    2.861025   -2.084044   -2.169170
 H   -0.057651    0.409106   -1.742470
 H   -4.202741    0.686665   -0.662513
 H   -0.188705    4.646686    0.784525
 H    3.023318    5.097171    1.534304
 H   -4.098797    4.537018   -1.112257
 H    0.226583    0.610270    2.593165
 H   -2.167323    0.067549    2.471583
