72 
2kp8_ligand_xtb.xyz
 C   -7.888985   -2.987840   -0.594283
 O   -7.309429   -2.458452    0.573060
 C   -5.979023   -2.169185    0.567233
 C   -5.134301   -2.310558   -0.528519
 C   -3.791977   -1.992060   -0.413848
 C   -3.258535   -1.511754    0.779120
 C   -4.117695   -1.366694    1.869665
 C   -5.451356   -1.692230    1.769147
 C   -1.836862   -1.158566    0.878446
 C   -0.866986   -1.906220    0.212064
 C    0.466908   -1.559223    0.281520
 C    0.875771   -0.448685    1.011210
 C    2.331137   -0.063623    1.070812
 N    2.934175    0.231695   -0.221088
 C    4.287829   -0.269499   -0.460626
 C    5.280938    0.340546    0.534883
 C    6.547042   -0.501095    0.605749
 C    6.194679   -1.878275    1.158119
 C    5.154614   -2.539804    0.298970
 C    5.072577   -3.926798    0.243811
 C    4.155977   -4.557064   -0.575539
 C    3.321870   -3.799842   -1.381724
 C    3.394203   -2.421098   -1.333182
 C    4.284650   -1.779310   -0.477414
 C    2.453837    1.163175   -1.065409
 O    3.013951    1.509493   -2.089596
 C    1.099942    1.739014   -0.742510
 C   -0.035333    1.167194   -1.296106
 C   -1.294859    1.699217   -1.048772
 C   -2.467945    0.920314   -1.521163
 O   -3.574550    1.158104   -0.809171
 O   -2.431261    0.113725   -2.413154
 C   -1.417502    2.873438   -0.298820
 C   -0.279792    3.483904    0.202223
 C    0.975804    2.921623   -0.008715
 C    2.188109    3.567340    0.555017
 O    3.203614    2.988285    0.847837
 O    2.037779    4.883839    0.725741
 C   -2.737510    3.516556   -0.025272
 O   -3.377699    3.850717   -1.148253
 O   -3.154038    3.767669    1.072337
 C   -0.083264    0.274047    1.710462
 C   -1.419519   -0.067806    1.639866
 H   -8.932916   -3.173589   -0.346861
 H   -7.414138   -3.929476   -0.887854
 H   -7.836978   -2.279529   -1.427890
 H   -5.505523   -2.669791   -1.475797
 H   -3.158306   -2.090217   -1.282770
 H   -3.727997   -1.017213    2.813424
 H   -6.114825   -1.591220    2.613343
 H   -1.160438   -2.779524   -0.350754
 H    1.205314   -2.155854   -0.232326
 H    2.893002   -0.906455    1.484684
 H    2.451473    0.799314    1.736715
 H    4.542234    0.078429   -1.470132
 H    5.500436    1.363851    0.230287
 H    4.834330    0.386498    1.528810
 H    7.283988   -0.015860    1.247823
 H    6.980220   -0.606380   -0.391028
 H    7.082624   -2.512479    1.206719
 H    5.813799   -1.773195    2.179776
 H    5.745185   -4.516038    0.851291
 H    4.105293   -5.635479   -0.601439
 H    2.623009   -4.283046   -2.048480
 H    2.765927   -1.819357   -1.975122
 H    0.037523    0.274362   -1.897952
 H   -4.290433    0.567486   -1.096154
 H   -0.367650    4.396504    0.771436
 H    2.854221    5.271729    1.079053
 H   -4.228411    4.268878   -0.939048
 H    0.216033    1.127324    2.302560
 H   -2.149827    0.536590    2.156409
