82 
2l6j_ligand_xtb.xyz
 N    1.323089    2.353819    0.098308
 C    2.244416    1.207228    0.246394
 C    1.488297   -0.043353   -0.259761
 O    0.616787   -0.567727    0.405257
 C    2.634842    1.074270    1.718775
 C    3.799884    0.112743    1.911446
 S    5.266377    0.604187    0.934023
 C    6.098766    1.708230    2.102944
 N    1.830444   -0.434148   -1.494147
 C    1.173126   -1.511729   -2.232617
 C   -0.344538   -1.246061   -2.251430
 O   -0.787235   -0.413214   -3.032341
 C    1.574958   -2.905309   -1.740436
 C    3.066192   -3.164238   -1.974914
 C    3.886025   -2.443353   -0.930308
 O    4.876981   -1.733075   -1.455407
 O    3.651032   -2.487559    0.249391
 N   -1.096394   -1.960838   -1.415636
 C   -2.535380   -1.844193   -1.339425
 C   -3.028574   -0.946510   -0.191099
 O   -4.127238   -0.427790   -0.260596
 C   -3.243483   -3.215813   -1.294962
 C   -2.481375   -4.323500   -0.555771
 C   -2.142972   -3.940224    0.862360
 O   -2.901693   -3.914281    1.785603
 O   -0.842495   -3.596919    0.986013
 N   -2.207484   -0.765952    0.859082
 C   -2.538795    0.229275    1.877584
 C   -2.055005    1.526359    1.232274
 O   -0.919772    1.952817    1.424145
 C   -1.854948   -0.087764    3.211063
 C   -1.989271    1.089643    4.175748
 C   -2.477972   -1.334465    3.833681
 N   -2.934871    2.070420    0.376144
 C   -2.592537    3.040315   -0.663056
 C   -1.767845    2.243268   -1.686862
 O   -2.504711    1.415912   -2.360349
 C   -1.868318    4.277084   -0.098762
 C   -0.757029    4.773953   -1.001245
 O   -1.216327    5.223915   -2.155353
 O    0.409293    4.787082   -0.691383
 O   -0.559502    2.316086   -1.786837
 H    1.753049    3.262563    0.298560
 H    0.488126    2.232648    0.740782
 H    0.883572    2.424142   -0.842358
 H    3.144296    1.375665   -0.354700
 H    1.774224    0.711493    2.284359
 H    2.906843    2.061576    2.099275
 H    4.102694    0.069512    2.955235
 H    3.539034   -0.889625    1.576571
 H    6.378198    1.145794    2.989065
 H    5.445670    2.537361    2.358590
 H    6.987444    2.078150    1.602731
 H    2.593221    0.028175   -1.963862
 H    1.491840   -1.397053   -3.274333
 H    1.386458   -3.008078   -0.669910
 H    0.987869   -3.644435   -2.285908
 H    3.266122   -4.230820   -1.856474
 H    3.386499   -2.859043   -2.970137
 H    5.419256   -1.301700   -0.770183
 H   -0.647616   -2.560448   -0.735567
 H   -2.870938   -1.330221   -2.248260
 H   -3.411373   -3.561103   -2.315587
 H   -4.218084   -3.067243   -0.828005
 H   -3.130242   -5.199320   -0.515234
 H   -1.567439   -4.586996   -1.088314
 H   -0.620530   -3.387052    1.908080
 H   -1.226599   -1.015542    0.802285
 H   -3.625824    0.234468    1.997586
 H   -0.792536   -0.262237    3.007526
 H   -1.472709    1.969770    3.804197
 H   -1.560836    0.823735    5.138117
 H   -3.037130    1.337658    4.326819
 H   -2.563082   -2.147451    3.119585
 H   -1.883144   -1.670198    4.678865
 H   -3.478268   -1.108765    4.194668
 H   -3.787829    1.540391    0.212038
 H   -3.524577    3.328048   -1.154122
 H   -1.941389    0.761192   -2.874994
 H   -1.436815    4.046278    0.873418
 H   -2.588442    5.086795    0.018029
 H   -0.506283    5.564709   -2.723912
