80 
2liq_ligand_ani.xyz
 C    2.014009   -0.437883    0.104207
 C    3.534149   -0.404237    0.333249
 C    4.188155   -1.666692   -0.257423
 C    3.453628   -2.918674    0.205109
 C    1.961474   -2.794399   -0.027716
 C    1.187525   -3.972627    0.547668
 C    5.298227    1.309710    0.102491
 C    5.641424    2.676690   -0.439476
 N    4.079070    0.823756   -0.240135
 O    5.522688   -1.871586    0.135425
 O    3.935508   -4.043941   -0.488411
 O    1.476613   -1.623962    0.622457
 O   -0.195337   -3.811122    0.292085
 O    6.083229    0.676716    0.811602
 C   -1.418109    3.556989   -0.114856
 C   -1.730404    2.166197   -0.684437
 C   -0.887360    1.072534    0.015034
 C    0.589170    1.491425   -0.013372
 C    0.755479    2.903514    0.543114
 C    2.184770    3.407507    0.432358
 C   -3.914961    1.907829    0.470911
 C   -5.401301    1.701702    0.262898
 N   -3.160454    1.903728   -0.668425
 O   -2.108894    4.492289   -0.864527
 O   -0.964850   -0.165473   -0.680548
 O    1.401230    0.630447    0.761671
 O   -0.031403    3.805664   -0.226397
 O    2.651553    3.268219   -0.901169
 O   -3.408224    2.021806    1.578985
 C   -2.071927    5.794298   -0.314196
 C   -2.030855   -0.984177   -0.329497
 C   -2.290438   -2.033829   -1.412578
 C   -3.185560   -3.148637   -0.834290
 C   -3.942958   -2.692597    0.406665
 C   -2.953974   -2.220910    1.484047
 C   -3.574706   -1.279702    2.498346
 O   -1.137494   -2.565493   -2.004963
 O   -4.169225   -3.550395   -1.777653
 O   -4.836977   -1.642926    0.068723
 O   -1.767002   -1.625680    0.914583
 H    1.800035   -0.391656   -0.981349
 H    3.709740   -0.408411    1.418821
 H    4.128187   -1.607296   -1.359838
 H    3.624294   -3.014579    1.291480
 H    1.764075   -2.728037   -1.113531
 H    1.376370   -4.055139    1.628109
 H    1.515055   -4.898653    0.067638
 H    5.495445    2.720728   -1.523004
 H    6.683259    2.893048   -0.200360
 H    4.998487    3.440646    0.008875
 H    3.443464    1.470120   -0.703999
 H    5.903515   -1.020958    0.436654
 H    4.895734   -4.038305   -0.365796
 H   -0.472237   -2.981773    0.726029
 H   -1.710940    3.613772    0.949740
 H   -1.430539    2.185046   -1.736062
 H   -1.218214    0.955112    1.057084
 H    0.910341    1.491529   -1.065044
 H    0.436646    2.928879    1.597271
 H    2.837252    2.817053    1.077605
 H    2.239327    4.455134    0.752733
 H   -5.616705    1.200989   -0.685926
 H   -5.792835    1.100500    1.087357
 H   -5.921831    2.666165    0.274564
 H   -3.642507    1.961343   -1.550913
 H    2.055075    3.793998   -1.453937
 H   -2.729156    6.413697   -0.928448
 H   -2.442975    5.794655    0.721558
 H   -1.058707    6.213512   -0.325221
 H   -2.942309   -0.393279   -0.226757
 H   -2.841702   -1.540979   -2.223277
 H   -2.542241   -3.995378   -0.558838
 H   -4.514570   -3.541692    0.812745
 H   -2.592148   -3.121475    1.998821
 H   -2.860687   -1.091432    3.304277
 H   -4.474963   -1.727884    2.930456
 H   -3.835071   -0.321314    2.041423
 H   -0.671596   -3.080816   -1.318912
 H   -3.706195   -3.878850   -2.560234
 H   -5.272538   -1.931102   -0.746306
