28 
2lk1_ligand_ani.xyz
 C    1.541643    1.221795    8.226548
 C    0.343702    1.186252    8.941642
 C   -0.929993    1.021483    8.179557
 O   -0.931950    0.922155    6.967345
 C   -2.201018    0.983650    8.969390
 C   -3.411754    0.826791    8.290586
 C   -4.598576    0.788382    8.996080
 C   -4.591861    0.906671   10.393225
 C   -3.398686    1.062298   11.071323
 C   -2.194191    1.102029   10.364982
 C   -0.915813    1.272259   11.127439
 O   -0.911506    1.377442   12.339382
 C    0.353923    1.308048   10.336555
 C    1.565790    1.470503   11.014560
 C    2.754253    1.505603   10.316020
 C    2.728284    1.369509    8.918255
 S    4.259822    1.377783    8.029931
 O    4.017494    1.789948    6.659833
 O    5.266065    2.003833    8.851868
 O    4.633132   -0.203846    7.977994
 H    1.508999    1.142424    7.145448
 H   -3.387437    0.737799    7.208880
 H   -5.541815    0.666314    8.470082
 H   -5.530065    0.875486   10.941074
 H   -3.364652    1.156427   12.152268
 H    1.543794    1.568276   12.094115
 H    3.702525    1.643047   10.826305
 H    4.365888   -0.531360    7.103312
