33 
2mas_ligand_ani.xyz
 C    1.935176   -1.145011   -0.840204
 C    0.971705   -0.285097   -0.308650
 C    1.419683    0.821229    0.418897
 C    2.775075    1.065891    0.596073
 C    3.735803    0.205387    0.048821
 N    5.095308    0.418577    0.274167
 C    3.293047   -0.908817   -0.672615
 C   -0.499243   -0.577049   -0.493253
 C   -1.267413   -0.777069    0.819676
 O   -1.077411   -2.060240    1.390335
 C   -2.722054   -0.641547    0.382680
 O   -3.114447   -1.819007   -0.294277
 C   -2.703225    0.491787   -0.651552
 N   -1.280741    0.522459   -1.157838
 C   -3.043925    1.879688   -0.095818
 O   -1.812990    2.414538    0.392624
 H    1.621925   -2.016644   -1.412940
 H    0.710863    1.515946    0.869763
 H    3.099674    1.931715    1.168465
 H    5.347865    1.375494    0.477573
 H    5.712641    0.008310   -0.412735
 H    4.021357   -1.595100   -1.099212
 H   -0.606397   -1.490974   -1.082284
 H   -1.012531    0.011685    1.543433
 H   -0.128798   -2.236420    1.433105
 H   -3.393168   -0.430995    1.230778
 H   -2.679276   -2.541892    0.183096
 H   -3.380231    0.223314   -1.456609
 H   -1.215433    0.544311   -2.184844
 H   -0.903554    1.438316   -0.792554
 H   -3.459698    2.523693   -0.885499
 H   -3.790150    1.803538    0.707320
 H   -1.976046    3.289778    0.765049
