117 
2mip_ligand_dft.xyz
 N    2.621565   -0.600021   -1.310728
 C    2.740165   -1.872075   -2.093921
 C    1.414785   -2.632948   -2.234418
 O    1.181835   -3.214218   -3.275991
 C    3.823903   -2.749334   -1.443098
 C    5.086468   -1.969094   -1.150102
 C    5.417083   -1.636306    0.164971
 C    5.909377   -1.523324   -2.191016
 C    6.563657   -0.892667    0.442943
 C    7.047967   -0.771556   -1.918174
 C    7.380908   -0.458393   -0.598959
 N    0.624437   -2.676828   -1.132931
 C   -0.623456   -3.401796   -1.129853
 C   -1.773514   -2.378797   -1.116375
 O   -1.598122   -1.294587   -1.696671
 C   -0.628986   -4.511580   -0.056231
 C   -0.406921   -3.963017    1.356971
 C    0.419427   -5.573048   -0.401111
 N   -2.921839   -2.729035   -0.511813
 C   -4.240152   -2.073918   -0.488657
 C   -4.210439   -0.545293   -0.517551
 C   -4.986573   -2.530760    0.789336
 C   -4.312371   -2.119553    2.081289
 C   -4.498547   -0.843953    2.627041
 C   -3.486811   -3.018298    2.759170
 C   -3.855477   -0.471762    3.804012
 C   -2.841310   -2.651882    3.937454
 C   -3.020219   -1.374190    4.460733
 N   -3.822253    0.010973   -1.845582
 C   -3.729417    1.518670   -1.940019
 C   -3.003878    2.025322   -0.677421
 O   -3.609494    2.595689    0.212968
 C   -5.110165    2.138271   -2.112400
 C   -5.097059    3.648130   -2.418257
 C   -4.266722    3.988703   -3.659526
 C   -6.540283    4.132479   -2.579457
 N   -1.683641    1.736538   -0.610307
 C   -0.875868    2.204922    0.500524
 C    0.577376    2.186071    0.003402
 O    0.889844    1.539641   -1.002910
 C   -1.140974    1.406793    1.798042
 C   -0.725777   -0.067155    1.760123
 C    0.768199   -0.253332    1.800691
 O    1.382003    0.559927    2.629028
 O    1.374954   -1.064877    1.106745
 N    1.468664    2.923506    0.679971
 C    2.817840    3.138868    0.185783
 C    3.691433    1.888447    0.322414
 O    3.559075    1.045860    1.204856
 C    3.506231    4.358806    0.854824
 C    3.939321    4.147830    2.319576
 C    2.673339    5.628364    0.648030
 C    2.834273    3.915154    3.353034
 N    4.641738    1.739221   -0.637686
 H    1.826680    0.004395   -1.567390
 H    3.476186   -0.037608   -1.422339
 H    2.517242   -0.761190   -0.292831
 H    3.031990   -1.585615   -3.105507
 H    4.016235   -3.583128   -2.125204
 H    3.423432   -3.175857   -0.515973
 H    4.782997   -1.969188    0.982637
 H    5.674970   -1.787337   -3.219904
 H    6.819493   -0.663426    1.472447
 H    7.690884   -0.450473   -2.731532
 H    8.284972    0.103281   -0.385276
 H    0.846352   -2.141548   -0.297263
 H   -0.696833   -3.872567   -2.119531
 H   -1.605037   -5.017580   -0.100296
 H   -1.094360   -3.147692    1.606392
 H   -0.548960   -4.755529    2.097865
 H    0.615420   -3.589804    1.474224
 H    1.425545   -5.141807   -0.377817
 H    0.255071   -5.998730   -1.395426
 H    0.387871   -6.386851    0.328408
 H   -2.914337   -3.631403   -0.057069
 H   -4.815450   -2.433201   -1.353935
 H   -3.502044   -0.165376    0.218334
 H   -5.202518   -0.164451   -0.272277
 H   -5.091429   -3.621163    0.749471
 H   -6.005420   -2.132283    0.738927
 H   -5.177464   -0.139033    2.153357
 H   -3.364958   -4.031289    2.380894
 H   -4.030194    0.513961    4.223918
 H   -2.216377   -3.371754    4.456568
 H   -2.536284   -1.092805    5.390596
 H   -2.879233   -0.436722   -2.027460
 H   -4.474071   -0.313320   -2.565005
 H   -3.113888    1.701028   -2.826093
 H   -5.696087    1.970277   -1.202771
 H   -5.616078    1.623204   -2.942927
 H   -4.662957    4.157011   -1.550591
 H   -4.608921    3.422894   -4.535103
 H   -4.366250    5.051246   -3.898234
 H   -3.195789    3.795640   -3.521625
 H   -7.140785    3.904689   -1.692647
 H   -7.018988    3.662780   -3.447099
 H   -6.567964    5.215088   -2.731236
 H   -1.179719    1.286163   -1.366007
 H   -1.157545    3.244851    0.704628
 H   -0.650227    1.905180    2.638718
 H   -2.216561    1.473934    1.980984
 H   -1.160828   -0.583001    2.625597
 H   -1.099646   -0.566722    0.862092
 H    2.336945    0.607157    2.374981
 H    1.177460    3.409557    1.515859
 H    2.725127    3.354857   -0.885797
 H    4.434568    4.494809    0.284365
 H    4.653817    3.318139    2.372166
 H    4.502134    5.043553    2.604609
 H    2.451411    5.790092   -0.411756
 H    1.721130    5.607668    1.187733
 H    3.228571    6.497529    1.010736
 H    2.066053    4.696720    3.321378
 H    2.355770    2.937088    3.234783
 H    3.258904    3.935852    4.359944
 H    5.406124    1.095894   -0.438967
 H    4.851394    2.497177   -1.273286
