117 
2mip_ligand_ani.xyz
 N    2.657197   -0.850704   -1.178206
 C    2.718127   -2.066702   -2.018147
 C    1.402050   -2.840844   -2.075744
 O    1.224578   -3.683167   -2.943679
 C    3.823789   -3.021530   -1.525952
 C    5.140252   -2.323746   -1.299981
 C    5.573743   -2.016506   -0.005547
 C    5.939152   -1.930034   -2.379228
 C    6.780224   -1.354233    0.211458
 C    7.144259   -1.266598   -2.169603
 C    7.571556   -0.982285   -0.874332
 N    0.502617   -2.585404   -1.088100
 C   -0.795409   -3.217976   -1.073352
 C   -1.891444   -2.145121   -1.267188
 O   -1.613006   -1.115149   -1.888273
 C   -0.962358   -4.165597    0.140297
 C   -1.013728   -3.433051    1.485404
 C    0.158789   -5.207833    0.129644
 N   -3.115361   -2.423345   -0.767921
 C   -4.402992   -1.724872   -0.926223
 C   -4.307482   -0.197568   -0.773929
 C   -5.399697   -2.336024    0.086117
 C   -4.954639   -2.310237    1.534380
 C   -5.032597   -1.135889    2.289586
 C   -4.448512   -3.455828    2.155781
 C   -4.591083   -1.098230    3.609604
 C   -4.010647   -3.425754    3.477056
 C   -4.074641   -2.242548    4.206711
 N   -3.687823    0.425045   -1.964277
 C   -3.525474    1.902786   -1.891619
 C   -2.719224    2.336254   -0.648522
 O   -3.137366    3.177756    0.133737
 C   -4.865699    2.642140   -1.950401
 C   -4.788613    4.115482   -2.369068
 C   -4.307336    4.293605   -3.811153
 C   -6.161734    4.766309   -2.192837
 N   -1.505601    1.743261   -0.466824
 C   -0.621179    2.245924    0.561614
 C    0.832760    2.116888    0.082727
 O    1.152065    1.468782   -0.909676
 C   -0.897446    1.612691    1.939335
 C   -0.541983    0.127379    2.069108
 C    0.946775   -0.140353    2.041812
 O    1.641104    0.645078    2.857706
 O    1.477796   -0.981647    1.336547
 N    1.738730    2.812751    0.819290
 C    3.107901    3.009512    0.385178
 C    3.984523    1.752707    0.560125
 O    3.947872    1.002420    1.530144
 C    3.794029    4.241448    1.028082
 C    4.188139    4.106552    2.511232
 C    2.998605    5.518669    0.749650
 C    3.057258    3.933357    3.529217
 N    4.852165    1.531712   -0.464329
 H    1.863181   -0.226439   -1.401841
 H    3.499315   -0.276632   -1.345616
 H    2.640011   -1.071937   -0.168985
 H    2.941834   -1.778837   -3.047802
 H    3.922075   -3.820428   -2.266155
 H    3.492240   -3.497025   -0.593330
 H    4.951153   -2.285868    0.845170
 H    5.612434   -2.148969   -3.394653
 H    7.094985   -1.114373    1.225676
 H    7.757547   -0.972817   -3.017397
 H    8.513528   -0.465810   -0.709524
 H    0.688525   -1.850267   -0.416302
 H   -0.819883   -3.830315   -1.982484
 H   -1.908863   -4.711507   -0.005189
 H   -1.794722   -2.666899    1.504560
 H   -1.227438   -4.140596    2.295362
 H   -0.060119   -2.941158    1.711600
 H    1.120320   -4.746710    0.382163
 H    0.264932   -5.677302   -0.855241
 H   -0.039390   -5.996757    0.862675
 H   -3.188441   -3.280875   -0.242842
 H   -4.798804   -1.934607   -1.932330
 H   -3.718938    0.050955    0.112966
 H   -5.314781    0.214166   -0.625462
 H   -5.607049   -3.370347   -0.220786
 H   -6.351826   -1.800145   -0.013764
 H   -5.440373   -0.232923    1.836467
 H   -4.401877   -4.390002    1.599159
 H   -4.654816   -0.170046    4.171715
 H   -3.604754   -4.326505    3.933178
 H   -3.730718   -2.216095    5.236676
 H   -2.770340   -0.064094   -2.136189
 H   -4.291018    0.210458   -2.779046
 H   -2.920319    2.165238   -2.767519
 H   -5.329887    2.578990   -0.960949
 H   -5.518180    2.102127   -2.651524
 H   -4.083103    4.619874   -1.697939
 H   -4.974189    3.773068   -4.511702
 H   -4.301612    5.354715   -4.085460
 H   -3.292443    3.913132   -3.970321
 H   -6.514711    4.678651   -1.159109
 H   -6.906074    4.288841   -2.843661
 H   -6.130110    5.831618   -2.447906
 H   -1.123271    1.070907   -1.120312
 H   -0.841302    3.313838    0.679506
 H   -0.358711    2.178216    2.705958
 H   -1.965220    1.746993    2.129124
 H   -0.922348   -0.252128    3.026418
 H   -1.014691   -0.464620    1.278404
 H    2.588524    0.593591    2.570680
 H    1.491770    3.078779    1.760586
 H    3.051818    3.207726   -0.691799
 H    4.744807    4.336973    0.483306
 H    4.896922    3.277192    2.621526
 H    4.743123    5.018027    2.768786
 H    2.789393    5.625319   -0.320803
 H    2.037901    5.537058    1.275527
 H    3.565841    6.400140    1.069441
 H    2.261087    4.673575    3.386805
 H    2.608236    2.934851    3.484746
 H    3.444854    4.064803    4.544675
 H    5.591276    0.857741   -0.309628
 H    5.016817    2.245588   -1.156537
