32 
2mji_ligand_ani.xyz
 O    4.898967   -0.261025    1.307769
 C    1.344619   -1.489456   -0.849073
 C    1.933889   -0.284525   -0.536682
 C    1.436552    1.915664    0.172149
 N    0.962697    0.601960   -0.221502
 C    2.940564    1.654986    0.413496
 C    3.269087    0.371105   -0.386732
 C    4.302863   -0.512103    0.290143
 C   -2.811774    0.187296    0.055189
 C   -2.973932   -1.066121    0.651524
 C   -4.244682   -1.612205    0.799241
 C   -5.363921   -0.910732    0.359064
 C   -5.210295    0.348475   -0.216937
 C   -3.942567    0.898942   -0.355622
 O   -1.406138    2.065838   -0.146339
 C   -1.478525    0.842838   -0.126269
 C   -0.270763    0.023241   -0.319229
 C   -0.043920   -1.294047   -0.713701
 O    4.498629   -1.653236   -0.403993
 H    1.864349   -2.394075   -1.131236
 H    0.904074    2.257752    1.059035
 H    1.246544    2.634315   -0.628757
 H    3.568455    2.497124    0.122430
 H    3.116840    1.447577    1.470776
 H    3.664032    0.618307   -1.381336
 H   -2.105005   -1.612046    1.009732
 H   -4.356903   -2.589735    1.259230
 H   -6.355433   -1.341341    0.471309
 H   -6.082459    0.904164   -0.553106
 H   -3.805440    1.888228   -0.782178
 H   -0.819626   -2.016617   -0.931401
 H    5.166867   -2.160132    0.087150
