37 
2mov_ligand_ani.xyz
 N    0.816213   -0.962230    0.334016
 C    1.859335   -0.027204   -0.150122
 C    3.120148   -0.868784   -0.274935
 O    3.229979   -1.954149    0.246974
 C    2.129700    1.148409    0.800445
 C    0.922575    2.011193    1.179398
 C    0.121655    2.581236    0.006698
 N   -0.639049    1.569989   -0.740462
 C   -1.935937    1.249270   -0.151719
 N   -2.736427    0.589998   -1.194399
 N   -1.817925    0.268565    0.941062
 C   -2.663813   -0.837840   -0.886675
 O   -1.407545   -1.312288   -1.322154
 C   -2.707683   -0.870413    0.647484
 C   -2.267957   -2.175065    1.289649
 O    4.099621   -0.273567   -0.967117
 H    0.401160   -1.483001   -0.463552
 H    0.035219   -0.469698    0.801583
 H    1.279595   -1.644395    0.967134
 H    1.570071    0.350346   -1.129304
 H    2.587933    0.767096    1.721463
 H    2.886923    1.775533    0.317962
 H    0.246140    1.453863    1.835651
 H    1.293515    2.855091    1.775922
 H    0.810457    3.070430   -0.694787
 H   -0.552895    3.367849    0.389251
 H   -0.847381    1.946559   -1.662230
 H   -2.425178    2.178798    0.195694
 H   -3.698216    0.918122   -1.152522
 H   -1.983605    0.661756    1.862717
 H   -3.466219   -1.406921   -1.367970
 H   -0.962998   -0.483887   -1.593961
 H   -3.742646   -0.655756    0.976072
 H   -2.930526   -2.990071    0.977045
 H   -1.248114   -2.440937    1.006653
 H   -2.318064   -2.101235    2.382077
 H    4.860563   -0.878562   -0.949368
