67 
2n0u_ligand_xtb.xyz
 N   -0.653614    1.122766   -2.084319
 C    2.170928   -0.894688   -1.254219
 C    1.664283    1.831996   -1.719952
 C   -2.541249   -0.048009   -1.165972
 C    2.143126   -0.535354    0.089178
 C    3.293905   -1.538476   -1.755011
 C    3.003682    1.884744   -2.087671
 C    1.207563    2.617534   -0.672795
 C   -3.367490   -0.916122   -1.860546
 C   -3.053057    0.764094   -0.133268
 C    3.211814   -0.813455    0.918728
 C    4.373661   -1.817334   -0.937494
 C    3.882479    2.700403   -1.400492
 C    2.096745    3.443659   -0.006357
 C   -4.716836   -0.986934   -1.571009
 C   -4.415004    0.712004    0.138850
 C    4.324856   -1.454595    0.398460
 C    3.436333    3.487032   -0.352202
 C   -5.235401   -0.158352   -0.579295
Cl    5.666134   -1.808720    1.428598
Cl    1.526532    4.446044    1.282358
 C   -6.617081   -0.203253   -0.277767
 C   -1.263176    2.271277    2.602018
 C   -2.954147    3.629748    1.303765
 N   -7.734644   -0.245655   -0.026978
 C   -0.441372   -1.897232    2.365749
 N    0.018342   -3.157239    2.444589
 O   -0.237572   -1.072643    3.233275
 C   -0.110667   -4.179939    1.428053
 N   -1.187290   -2.493372    0.060979
 C   -1.305225   -3.858242    0.533487
 N   -0.247957   -0.992664   -1.473760
 C   -1.287451   -1.543043    1.141085
 C   -0.404344   -2.303231   -1.046564
 O    0.120542   -3.221732   -1.642242
 C   -1.128737    0.074505   -1.552370
 O   -2.136944    1.477354    0.545895
 C    0.724832    0.904222   -2.451052
 C    0.994503   -0.613653   -2.145855
 C   -2.497565    2.230775    1.708259
 H    1.284148   -0.025812    0.498433
 H    3.323399   -1.833414   -2.793265
 H    3.357645    1.281771   -2.910300
 H    0.164279    2.584524   -0.399461
 H   -2.947116   -1.533559   -2.640168
 H    3.178621   -0.534960    1.960141
 H    5.243817   -2.319213   -1.330348
 H    4.923576    2.730616   -1.683243
 H   -5.366200   -1.660228   -2.108135
 H   -4.864104    1.333166    0.897862
 H    4.116054    4.129336    0.185195
 H   -1.491264    2.819936    3.511099
 H   -0.445548    2.768968    2.089345
 H   -0.949862    1.264693    2.871762
 H   -3.253444    4.191003    2.184343
 H   -2.137762    4.152994    0.812165
 H   -3.794732    3.580064    0.614620
 H    0.610901   -3.358628    3.238296
 H   -0.244072   -5.150276    1.912925
 H    0.795729   -4.217124    0.809803
 H   -2.242400   -3.945903    1.088887
 H   -1.317680   -4.527420   -0.326780
 H   -2.331659   -1.480380    1.475592
 H   -0.979289   -0.546589    0.827630
 H    0.823442    1.096953   -3.525463
 H    1.097918   -1.183906   -3.076476
 H   -3.301240    1.707717    2.243829
