70 
2n14_ligand_ani.xyz
 N   -0.846261    1.217616   -1.905368
 C    2.178656   -0.835820   -1.350790
 C    1.499478    2.028507   -1.498391
 C   -2.674129   -0.070901   -0.935061
 C    2.324797   -0.668752    0.021540
 C    3.254611   -1.323176   -2.087701
 C    1.251064    2.403092   -0.179967
 C    2.659668    2.475624   -2.129162
 C   -3.539673   -0.981220   -1.531839
 C   -3.163839    0.726731    0.111637
 C    3.505246   -1.016605    0.666202
 C    4.450265   -1.668520   -1.463446
 C    2.178377    3.190019    0.495534
 C    3.568047    3.278917   -1.447657
 C   -4.867017   -1.096311   -1.130892
 C   -4.488526    0.635346    0.515466
 C    4.559841   -1.517441   -0.087704
 C    3.335264    3.639972   -0.126008
 C   -5.341719   -0.281952   -0.104291
Cl    6.048088   -1.957371    0.703554
Cl    1.911950    3.614754    2.171377
 C   -7.520212   -1.200487   -0.244478
 C   -2.338638    3.589180   -0.459653
 C   -1.780504    3.483561    2.014463
 C    0.278177   -1.867198    2.341700
 N    0.678365   -3.171155    2.316007
 O    0.800922   -1.035850    3.066132
 C    0.256368   -4.192793    1.364855
 N   -1.075682   -2.429210    0.316635
 C   -1.098976   -3.818933    0.771741
 N   -0.315674   -0.883876   -1.285376
 O   -6.618223   -0.300102    0.361925
 C   -0.897346   -1.503453    1.431441
 C   -0.425343   -2.221002   -0.891567
 O    0.037969   -3.118382   -1.570845
 C   -1.274067    0.116064   -1.386053
 O   -2.271142    1.514510    0.785060
 C    0.561078    1.063676   -2.238676
 C    0.878714   -0.464938   -2.037937
 C   -2.605475    2.912251    0.875265
 H    1.505810   -0.233823    0.592751
 H    3.162079   -1.440564   -3.166389
 H    0.358016    2.048078    0.334440
 H    2.855348    2.189485   -3.161482
 H   -3.159323   -1.612166   -2.332119
 H    3.603629   -0.906349    1.741436
 H    5.286272   -2.055478   -2.038195
 H    4.468829    3.623925   -1.949220
 H   -5.514715   -1.813200   -1.622041
 H   -4.870752    1.249243    1.325854
 H    4.039863    4.259162    0.420676
 H   -8.475736   -1.057939    0.262236
 H   -7.639869   -0.988617   -1.315323
 H   -7.192816   -2.241261   -0.120265
 H   -2.874648    3.075675   -1.262086
 H   -1.270009    3.553629   -0.693516
 H   -2.659263    4.636967   -0.429270
 H   -0.716477    3.466644    1.763157
 H   -1.930546    2.893810    2.922930
 H   -2.065593    4.522750    2.213827
 H    1.468096   -3.371834    2.914475
 H    0.201343   -5.154580    1.884237
 H    0.988362   -4.288060    0.552779
 H   -1.888658   -3.900859    1.525664
 H   -1.348688   -4.459747   -0.075864
 H   -0.755225   -0.477698    1.094010
 H   -1.810448   -1.514381    2.037789
 H    0.689058    1.291354   -3.304355
 H    0.868935   -0.962539   -3.019131
 H   -3.670102    2.997202    1.126269
