26 
2nn1_ligand_ani.xyz
 C  -17.329741   -0.231350  -19.476692
 C  -17.348079    1.145830  -19.275327
 C  -17.930917    1.649689  -18.120011
 C  -18.505210    0.796864  -17.172232
 C  -18.479687   -0.580851  -17.403060
 C  -17.897106   -1.102441  -18.552526
 S  -16.567357   -0.886404  -20.937104
 O  -16.562295    0.164210  -21.942825
 O  -17.141955   -2.199073  -21.186184
 N  -14.977396   -1.130271  -20.479084
 C  -19.096439    1.360064  -15.904318
 C  -18.025061    1.701163  -14.866270
 C  -18.621001    2.269808  -13.601438
 O  -19.796089    2.464049  -13.400252
 O  -17.673750    2.549866  -12.683680
 H  -16.917801    1.806868  -20.021814
 H  -17.943673    2.724155  -17.948381
 H  -18.928191   -1.254709  -16.676785
 H  -17.890767   -2.171818  -18.742821
 H  -14.743336   -2.115486  -20.542130
 H  -14.360094   -0.551228  -21.038598
 H  -19.672422    2.266118  -16.124060
 H  -19.804571    0.649109  -15.465005
 H  -17.439456    0.814801  -14.596941
 H  -17.306997    2.429819  -15.261849
 H  -18.144610    2.907217  -11.912612
