32 
2nn7_ligand_xtb.xyz
 C    2.589540   -0.155111   -0.127581
 C    1.896066    0.393182   -1.186793
 C    0.559661    0.075510   -1.353654
 C   -0.078533   -0.786740   -0.467343
 C    0.643298   -1.326175    0.592935
 C    1.980137   -1.012235    0.765401
 S    4.297773    0.281318    0.106040
 O    4.877118    0.659332   -1.150024
 O    4.946775   -0.709756    0.914028
 N    4.132817    1.680568    1.037528
 C   -1.536560   -1.100502   -0.632377
 C   -2.392941   -0.081176    0.126796
 C   -3.858784   -0.460171    0.088304
 O   -4.630527    0.614216    0.258580
 O   -4.282934   -1.574593   -0.064227
 C   -6.045214    0.396154    0.270018
 C   -6.739025    1.744342    0.232805
 H    2.417118    1.045054   -1.869282
 H    0.006367    0.492573   -2.182132
 H    0.154847   -2.001738    1.279568
 H    2.565555   -1.429614    1.568825
 H    4.507580    2.485620    0.562409
 H    4.548314    1.568271    1.947993
 H   -1.762083   -2.095145   -0.245850
 H   -1.809894   -1.078170   -1.688277
 H   -2.274242    0.923499   -0.279199
 H   -2.090521   -0.054200    1.177031
 H   -6.306309   -0.161250    1.176475
 H   -6.313077   -0.218699   -0.596160
 H   -6.444868    2.340211    1.092433
 H   -6.466856    2.281657   -0.671586
 H   -7.815337    1.600806    0.250494
