32 
2nn7_ligand_dft.xyz
 C    2.603259   -0.178066    0.001547
 C    1.956450   -0.459714   -1.196349
 C    0.620639   -0.843014   -1.166763
 C   -0.070892   -0.950811    0.041752
 C    0.608291   -0.671760    1.231535
 C    1.942369   -0.287518    1.221242
 S    4.308708    0.325040   -0.022867
 O    4.861005   -0.057045   -1.313723
 O    4.917825   -0.084213    1.233112
 N    4.221448    2.000811    0.024922
 C   -1.533142   -1.321944    0.061635
 C   -2.421527   -0.076680   -0.001799
 C   -3.894573   -0.420761    0.014074
 O   -4.646710    0.688176   -0.028772
 O   -4.348560   -1.539995    0.058347
 C   -6.068440    0.482955   -0.020543
 C   -6.723594    1.846773   -0.069883
 H    2.500636   -0.396564   -2.132520
 H    0.109480   -1.072748   -2.098115
 H    0.086364   -0.767707    2.180190
 H    2.473830   -0.091471    2.146411
 H    4.511739    2.397692   -0.863217
 H    4.784192    2.349422    0.794705
 H   -1.771165   -1.886983    0.968330
 H   -1.772422   -1.977074   -0.781720
 H   -2.213695    0.506644   -0.906786
 H   -2.214818    0.596341    0.838764
 H   -6.341504   -0.069818    0.883464
 H   -6.342400   -0.134033   -0.881748
 H   -6.434208    2.448757    0.796255
 H   -6.434884    2.384357   -0.977608
 H   -7.812124    1.734728   -0.065394
