26 
2nnd_ligand_ani.xyz
 N   -0.052608   24.735396   11.168014
 C   -0.313675   25.979653   11.533533
 C    0.744787   26.914741   11.632541
 N    1.999746   26.617581   11.372472
 C    2.238421   25.348134   11.001237
 C    1.225747   24.418784   10.898713
 C   -1.726705   26.378522   11.857025
 C   -1.999309   26.523185   13.363593
 C   -3.433896   27.002930   13.585048
 C   -1.746001   25.213692   14.109747
 O    0.404224   28.161560   12.008624
 C    1.457117   29.114847   12.109733
 H    3.269852   25.084054   10.782682
 H    1.424982   23.393921   10.595645
 H   -1.954581   27.332690   11.367804
 H   -2.384265   25.610463   11.434599
 H   -1.313677   27.287070   13.749839
 H   -3.646702   27.137831   14.651749
 H   -3.617265   27.959378   13.081804
 H   -4.152806   26.272535   13.190463
 H   -1.996511   25.316017   15.171953
 H   -2.363538   24.406279   13.693921
 H   -0.699215   24.900745   14.037369
 H    0.978516   30.043336   12.422471
 H    2.200063   28.794902   12.846623
 H    1.958299   29.243755   11.145799
