26 
2nnd_ligand_dft.xyz
 N    0.539572   -1.807311   -0.502412
 C    0.153971   -0.541036   -0.516070
 C    1.066482    0.469280   -0.112269
 N    2.296393    0.212280    0.282603
 C    2.659735   -1.080287    0.290008
 C    1.792332   -2.079789   -0.099082
 C   -1.249321   -0.204045   -0.933327
 C   -2.178681    0.140705    0.249406
 C   -2.323645   -1.038858    1.212845
 C   -3.543712    0.588296   -0.276533
 O    0.624149    1.737443   -0.151690
 C    1.539907    2.749375    0.245942
 H    3.672530   -1.300710    0.616301
 H    2.091803   -3.123620   -0.094645
 H   -1.651551   -1.069008   -1.472296
 H   -1.226354    0.647387   -1.623639
 H   -1.728541    0.981992    0.791663
 H   -2.757976   -1.905857    0.700120
 H   -1.358004   -1.349489    1.624024
 H   -2.980125   -0.777250    2.050095
 H   -3.451198    1.456253   -0.938850
 H   -4.024660   -0.218794   -0.843330
 H   -4.211872    0.861263    0.547639
 H    1.857991    2.603861    1.282218
 H    2.425550    2.749794   -0.395851
 H    0.995035    3.688003    0.143215
