26 
2nnd_ligand_xtb.xyz
 N    0.505137   -1.798380   -0.503619
 C    0.132285   -0.536011   -0.517860
 C    1.045483    0.468509   -0.113288
 N    2.269267    0.174429    0.288903
 C    2.617273   -1.111055    0.301316
 C    1.739015   -2.095216   -0.097678
 C   -1.258238   -0.195591   -0.944442
 C   -2.150690    0.156735    0.258679
 C   -2.345351   -1.062021    1.155342
 C   -3.497594    0.680627   -0.231153
 O    0.653554    1.750214   -0.150966
 C    1.618648    2.707394    0.243889
 H    3.622185   -1.322143    0.638439
 H    2.002196   -3.142880   -0.101441
 H   -1.678911   -1.052879   -1.470893
 H   -1.218100    0.663619   -1.616871
 H   -1.655069    0.947398    0.831890
 H   -2.857085   -1.852295    0.610570
 H   -1.387912   -1.450350    1.494018
 H   -2.940948   -0.802593    2.027930
 H   -3.366717    1.574734   -0.836351
 H   -4.000935   -0.073026   -0.833088
 H   -4.137076    0.928815    0.612935
 H    1.916479    2.547571    1.282496
 H    2.507092    2.641866   -0.387832
 H    1.140561    3.677886    0.130105
