30 
2nns_ligand_dft.xyz
 C    2.092620    0.069140   -0.014629
 C    1.618999    1.369839   -0.141736
 C    0.260918    1.573832   -0.358002
 C   -0.621637    0.496077   -0.449369
 C   -0.119712   -0.802046   -0.307851
 C    1.233102   -1.023384   -0.089114
 S    3.830380   -0.203470    0.246322
 O    3.983149   -1.483810    0.920235
 O    4.396803    1.026720    0.778681
 N    4.439020   -0.392966   -1.306047
 C   -2.102247    0.708889   -0.631832
 C   -2.848785    0.581359    0.707325
 N   -4.288544    0.634188    0.555609
 C   -4.980332   -0.446099    0.092821
 C   -6.474715   -0.253297   -0.079454
 O   -4.427748   -1.503935   -0.168176
 H    2.304157    2.206510   -0.057258
 H   -0.118340    2.587718   -0.456463
 H   -0.803668   -1.645031   -0.366638
 H    1.620872   -2.028657    0.036465
 H    4.844928   -1.317316   -1.411612
 H    5.109781    0.340686   -1.511120
 H   -2.509001   -0.046259   -1.311475
 H   -2.299051    1.694230   -1.069412
 H   -2.540832    1.375577    1.394185
 H   -2.595480   -0.376755    1.169976
 H   -4.765569    1.511393    0.686821
 H   -6.717917   -0.319025   -1.143916
 H   -6.990984   -1.072606    0.426295
 H   -6.845191    0.698845    0.311192
