39 
2no3_ligand_ani.xyz
 C   17.837573  107.464657   50.987676
 N   18.994697  107.192352   50.381735
 C   18.958345  106.931934   49.078788
 C   17.747126  106.961803   48.366840
 C   16.620105  107.282911   49.102599
 N   16.629901  107.541292   50.414773
 N   20.128969  106.616022   48.441746
 C   21.402040  106.517239   49.005376
 C   22.315882  105.575282   48.480354
 C   23.601638  105.507857   49.020743
 C   24.001860  106.343812   50.052253
 C   23.101943  107.278414   50.556283
 C   21.817566  107.366313   50.036860
 N   17.872022  107.708776   52.338043
 C   18.986864  107.748649   53.193099
 C   18.899873  108.520166   54.357230
 C   19.984724  108.601095   55.219822
 C   21.164816  107.919754   54.954141
 C   21.237683  107.140278   53.802556
 C   20.153240  107.023287   52.936603
 O   22.407774  106.484289   53.550146
 C   21.936822  104.685723   47.338721
 N   22.614625  103.499746   47.252951
 O   21.089624  104.982295   46.499179
 H   17.707304  106.753483   47.301099
 H   15.646387  107.335459   48.619952
 H   20.072304  106.214626   47.507586
 H   24.313291  104.804876   48.594446
 H   25.005680  106.269870   50.460322
 H   23.400724  107.942396   51.363891
 H   21.129231  108.106026   50.427302
 H   16.987071  108.010552   52.717328
 H   17.985404  109.065254   54.575699
 H   19.907314  109.210363   56.116914
 H   22.025727  107.974580   55.612079
 H   20.208956  106.369288   52.075927
 H   22.351314  106.084144   52.670491
 H   22.258186  102.860659   46.557172
 H   23.016396  103.091475   48.082274
