37 
2nq7_ligand_xtb.xyz
 S   -3.090383   -1.699482   -0.005230
 N   -4.602400    0.393627    0.014704
 N   -2.314254    0.898521   -0.015163
 N   -0.600819    2.828990   -0.016507
 N    1.824941    0.118138   -0.004097
 C   -4.805466   -1.890171    0.021245
 C   -5.424243   -0.683104    0.028767
 C   -3.365861    0.028035   -0.003142
 C   -1.021110    0.493742   -0.022382
 C   -0.055432    1.612070   -0.014884
 C    0.180300    3.886042   -0.005333
 C    1.569814    3.792150    0.010812
 C    2.156266    2.544737    0.013349
 C    1.340624    1.404092   -0.001262
 C    3.124784   -0.315123    0.024135
 C    3.237890   -1.842787   -0.001651
 C    2.496370   -2.440784    1.200099
 C    4.719926   -2.213851    0.071747
 C    2.637499   -2.368708   -1.311328
 O   -0.718049   -0.698332   -0.030774
 O    4.080233    0.425704    0.059346
 H   -2.482081    1.900671   -0.010712
 H    1.085027   -0.585666   -0.021802
 H   -5.247920   -2.864637    0.030134
 H   -6.485396   -0.515324    0.045020
 H   -0.324006    4.842368   -0.008640
 H    2.176997    4.683568    0.021262
 H    3.227244    2.425650    0.026726
 H    2.852847   -1.996904    2.127510
 H    1.421352   -2.290258    1.132671
 H    2.681252   -3.511988    1.241978
 H    5.261876   -1.768961   -0.758725
 H    5.156800   -1.841356    0.994760
 H    4.841652   -3.293383    0.034686
 H    1.567036   -2.184763   -1.367989
 H    3.117420   -1.896797   -2.166401
 H    2.798115   -3.442446   -1.378961
