29 
2nta_ligand_xtb.xyz
 C   -5.854807   -0.571458    0.137248
 C   -5.412097    0.691262    0.497485
 C   -4.073383    1.012713    0.393611
 C   -3.151623    0.071451   -0.067204
 C   -3.608851   -1.190748   -0.446177
 C   -4.950650   -1.505444   -0.339891
 C   -1.745396    0.431639   -0.158561
 N    1.866409   -0.157952    0.090427
 N    4.219793   -0.382106    0.419580
 C    0.596793    0.382890   -0.134428
 C   -0.624012   -0.333545    0.033627
 C    0.380432    1.690730   -0.452605
 S   -1.288105    2.066819   -0.528244
 C    2.338185   -1.334849   -0.601638
 C    3.793246   -1.517900   -0.200380
 O    4.452459   -2.501380   -0.394832
 S    3.137055    0.901560    0.261721
 O    3.438379    1.614424   -0.935588
 O    3.042475    1.633679    1.471585
Cl   -0.657987   -1.974008    0.543702
 H   -6.900911   -0.824109    0.222658
 H   -6.112905    1.427021    0.862499
 H   -3.724484    1.994726    0.677185
 H   -2.918183   -1.917975   -0.841689
 H   -5.292299   -2.486053   -0.636089
 H    5.180233   -0.288192    0.707578
 H    1.120662    2.444129   -0.626069
 H    2.293573   -1.222474   -1.694281
 H    1.759952   -2.216827   -0.316247
