33 
2nv7_ligand_dft.xyz
 C   -2.117791    2.840988   -0.251835
 C   -0.721524    3.009966   -0.331697
 C    0.103537    1.918354   -0.256647
 C   -0.418691    0.607200   -0.095240
 C   -1.836999    0.432961   -0.049143
 C   -2.660566    1.587793   -0.120692
 C   -2.372992   -0.897951    0.049993
 C   -1.498520   -1.964478    0.083341
 C   -0.105300   -1.787393    0.057878
 C    0.449687   -0.531485   -0.012357
 C    1.930649   -0.398332    0.005036
 C    2.714129   -1.065371   -0.943672
 C    4.099428   -0.994087   -0.917069
 C    4.734721   -0.247714    0.075060
 C    3.972193    0.420614    1.033283
 C    2.585171    0.341963    0.993272
 O    6.093406   -0.208926    0.057733
 C   -3.794659   -1.262547    0.115890
 N   -4.778506   -0.447525    0.127097
 O   -5.980437   -1.140523    0.199903
 H   -2.771229    3.706787   -0.306999
 H   -0.299603    4.002265   -0.460870
 H    1.176990    2.047567   -0.337548
 H   -3.733925    1.462964   -0.075647
 H   -1.893883   -2.974727    0.151264
 H    0.544078   -2.655297    0.124811
 H    2.224231   -1.641308   -1.723810
 H    4.703938   -1.505964   -1.658288
 H    4.460238    0.997132    1.816372
 H    2.000650    0.856186    1.750876
 H    6.405190    0.335495    0.790404
 H   -4.009937   -2.333368    0.163591
 H   -6.635784   -0.432363    0.202657
