32 
2o3p_ligand_ani.xyz
 C    4.432344    0.884149   -0.008543
 C    3.868602   -0.473705   -0.013410
 C    2.377470   -0.578331   -0.001320
 C    1.644276    0.571307    0.014866
 C    2.174766    1.959954    0.024629
 C    3.671960    1.987045    0.008597
 C    1.685193   -1.862020   -0.008319
 C    0.214406   -1.777181    0.000857
 C   -0.430815   -0.585948    0.015198
 C   -1.888092   -0.357670    0.015273
 C   -2.816184   -1.402585    0.039295
 C   -4.180344   -1.135922    0.032092
 C   -4.647667    0.170053    0.001878
 C   -3.723435    1.226338   -0.018385
 C   -2.370392    0.967283   -0.011459
 O    0.295945    0.580428    0.022112
 O    2.179079   -2.987127   -0.021261
 O   -4.275283    2.481675   -0.044979
 O   -5.976996    0.420291   -0.007395
 O   -0.401977   -2.974263   -0.008853
 O    4.266768    3.197801    0.011889
 O    4.617798   -1.432300   -0.027128
 H    5.513988    0.950615   -0.019462
 H    1.788734    2.483854    0.909646
 H    1.770115    2.503214   -0.840162
 H   -2.481451   -2.429987    0.063918
 H   -4.903352   -1.946181    0.048893
 H   -1.664341    1.791221   -0.027322
 H   -3.572709    3.144431   -0.053525
 H   -6.097219    1.381700   -0.030154
 H    0.331731   -3.621842   -0.018954
 H    3.599303    3.894329    0.024545
