18 
2o48_ligand_xtb.xyz
 C    2.131587   -0.017623   -0.000204
 C    1.465706    1.207519   -0.005941
 C    0.090838    1.236422   -0.005941
 C   -0.661246    0.057443   -0.001574
 C    0.014271   -1.161869    0.001504
 C    1.393975   -1.198717    0.002685
 O    3.485184   -0.013179    0.002584
 O   -2.685035    1.258534    0.011209
 C   -2.137518    0.177174    0.001783
 C   -2.934621   -1.106475   -0.006598
 H    2.049271    2.114090   -0.009357
 H   -0.439630    2.176609   -0.009125
 H   -0.528389   -2.094015    0.003999
 H    1.910139   -2.150403    0.006448
 H    3.823582   -0.917319    0.008998
 H   -2.699530   -1.699997    0.874049
 H   -3.994828   -0.866635   -0.004612
 H   -2.699762   -1.688416   -0.895024
