33 
2o63_ligand_ani.xyz
 C   -4.690257    0.717552   -0.002958
 C   -4.013973   -0.493728    0.008644
 C   -2.594261   -0.523088    0.000831
 C   -1.912368    0.693461   -0.019931
 C   -2.571485    1.914727   -0.032223
 C   -3.965617    1.909151   -0.022533
 C   -1.848491   -1.763625    0.017572
 C   -0.396391   -1.634137    0.011925
 C    0.204584   -0.410562   -0.010784
 C    1.654251   -0.128746   -0.009952
 C    2.613501   -1.146994   -0.047235
 C    3.963325   -0.824666   -0.038758
 C    4.375236    0.505014    0.003149
 C    3.426149    1.520676    0.034974
 C    2.079219    1.214681    0.029439
 O   -0.554505    0.736308   -0.025222
 O   -2.360714   -2.898593    0.037022
 O    3.937708    2.791156    0.070951
 O    5.717282    0.747997    0.010368
 O    4.889015   -1.812430   -0.070264
 O    0.279476   -2.801074    0.034047
 O   -4.686815    3.056313   -0.031260
 O   -4.731702   -1.616761    0.027924
 H   -5.772946    0.735977    0.004059
 H   -1.997263    2.835358   -0.047684
 H    2.328212   -2.188208   -0.084210
 H    1.347123    2.013152    0.056173
 H    3.214838    3.431653    0.083491
 H    5.847792    1.707166    0.040380
 H    5.762760   -1.393413   -0.055294
 H   -0.398296   -3.499599    0.046976
 H   -4.083425    3.809666   -0.041217
 H   -4.107296   -2.373390    0.035846
