32 
2o65_ligand_xtb.xyz
 O    2.289766   -3.029071    0.349366
 C    1.796600   -1.924742    0.214722
 C    2.563017   -0.675123    0.063741
 C    3.976314   -0.650141    0.056240
 O    4.639271   -1.806758    0.184904
 C    4.650765    0.551225   -0.082661
 C    3.953967    1.749380   -0.217640
 O    4.673333    2.887985   -0.348717
 C    1.886293    0.541244   -0.074945
 C    2.570007    1.746487   -0.214327
 O    0.535200    0.629777   -0.084566
 C   -0.209046   -0.496343    0.041335
 C    0.352870   -1.713196    0.191928
 C   -1.651860   -0.235359    0.016494
 C   -2.564571   -1.244656   -0.277086
 C   -3.924722   -0.979946   -0.292994
 O   -4.805511   -1.965563   -0.582451
 C   -4.386839    0.309647   -0.013141
 O   -5.735446    0.542904   -0.035179
 C   -3.473055    1.321744    0.274887
 C   -2.117377    1.051869    0.286865
 O   -3.994234    2.564441    0.538084
 H    5.593171   -1.656573    0.161648
 H    5.730280    0.579821   -0.089746
 H    4.081891    3.645248   -0.438654
 H    2.004987    2.660286   -0.321110
 H   -0.260149   -2.588917    0.318004
 H   -2.242306   -2.242844   -0.516552
 H   -5.697414   -1.591927   -0.543419
 H   -5.872264    1.475300    0.176461
 H   -1.415486    1.839555    0.515840
 H   -3.275909    3.177787    0.725506
