19 
2ohk_ligand_ani.xyz
 N    1.821034    2.013945   -0.001136
 C    1.394074    0.695182   -0.001058
 N    2.315436   -0.237682    0.044404
 C    1.908146   -1.535179    0.036406
 C    0.603328   -1.929606   -0.008612
 C   -0.414656   -0.937995   -0.022798
 C   -1.797880   -1.247635   -0.054653
 C   -2.735151   -0.247695   -0.023650
 C   -2.338010    1.105107    0.047430
 C   -1.004410    1.433075    0.068746
 C   -0.020756    0.417803    0.009936
 H    2.820340    2.090372   -0.147452
 H    1.296804    2.631462   -0.605524
 H    2.711794   -2.268689    0.063016
 H    0.336679   -2.981894   -0.024190
 H   -2.100137   -2.290439   -0.098272
 H   -3.794182   -0.492251   -0.044245
 H   -3.092596    1.886195    0.083914
 H   -0.702097    2.473061    0.159389
