28 
2ohm_ligand_dft.xyz
 N    3.028467    1.810471    0.494005
 C    2.656412    0.482532    0.253074
 N    3.543729   -0.468484    0.494370
 C    3.194780   -1.737073    0.230797
 C    1.950490   -2.091843   -0.254739
 C    1.020244   -1.083237   -0.525358
 C    1.371794    0.237737   -0.291941
 N    0.551212    1.348878   -0.529174
 C   -0.677402    1.173035   -1.280086
 C   -1.790963    0.530308   -0.473934
 C   -1.861918    0.684321    0.909995
 C   -2.907881    0.115083    1.629622
 C   -3.897265   -0.612718    0.973827
 C   -3.831657   -0.772227   -0.407426
 C   -2.781313   -0.206772   -1.124259
 H    3.927081    1.846511    0.960954
 H    2.326314    2.330027    1.010958
 H    3.951256   -2.489474    0.439105
 H    1.701031   -3.132850   -0.429573
 H    0.037586   -1.334570   -0.909987
 H    1.102478    2.134037   -0.858048
 H   -0.515403    0.588167   -2.201421
 H   -1.001092    2.171522   -1.595324
 H   -1.081711    1.243735    1.416686
 H   -2.948473    0.237712    2.708120
 H   -4.711778   -1.058618    1.536879
 H   -4.594490   -1.344164   -0.927644
 H   -2.728584   -0.342964   -2.202547
