28 
2ohm_ligand_ani.xyz
 N    2.991515    1.813241    0.561453
 C    2.648815    0.488118    0.270135
 N    3.549033   -0.455119    0.491168
 C    3.219711   -1.720052    0.193213
 C    1.992360   -2.079768   -0.336524
 C    1.049612   -1.081496   -0.589547
 C    1.377132    0.235310   -0.307688
 N    0.548825    1.350313   -0.517768
 C   -0.694326    1.197914   -1.256649
 C   -1.804758    0.539900   -0.458650
 C   -1.824153    0.597394    0.935314
 C   -2.859802    0.003307    1.650466
 C   -3.888279   -0.654103    0.982303
 C   -3.877613   -0.714184   -0.407742
 C   -2.840775   -0.119474   -1.120763
 H    3.863355    1.855524    1.076665
 H    2.253752    2.319001    1.040827
 H    3.981765   -2.470345    0.395247
 H    1.767569   -3.118855   -0.556209
 H    0.075297   -1.340590   -0.998769
 H    1.096832    2.130494   -0.862904
 H   -0.554542    0.644762   -2.201874
 H   -1.005584    2.210188   -1.542431
 H   -1.013137    1.105064    1.450141
 H   -2.862532    0.054358    2.736804
 H   -4.696538   -1.116832    1.543221
 H   -4.677536   -1.224886   -0.939005
 H   -2.841847   -0.164119   -2.208892
