28 
2ohm_ligand_xtb.xyz
 N    2.806379    1.697795    0.996036
 C    2.490449    0.478757    0.399151
 N    3.345882   -0.503028    0.606801
 C    3.140147   -1.677985    0.023041
 C    2.042388   -1.929768   -0.771540
 C    1.130883   -0.904672   -0.993997
 C    1.347282    0.345656   -0.429209
 N    0.545528    1.438738   -0.684705
 C   -0.772215    1.318968   -1.251009
 C   -1.778878    0.555481   -0.413215
 C   -1.559946    0.282165    0.928719
 C   -2.502946   -0.410326    1.669005
 C   -3.679647   -0.832004    1.077312
 C   -3.908516   -0.560442   -0.261627
 C   -2.963133    0.125488   -1.000744
 H    3.610220    1.598694    1.600950
 H    2.043466    2.176345    1.454779
 H    3.885258   -2.433958    0.228663
 H    1.887292   -2.901944   -1.212460
 H    0.262566   -1.085146   -1.608271
 H    0.693951    2.234882   -0.087423
 H   -0.691366    0.840800   -2.233988
 H   -1.150104    2.333380   -1.419479
 H   -0.644196    0.600457    1.405651
 H   -2.314981   -0.619614    2.711826
 H   -4.414913   -1.371794    1.655223
 H   -4.824742   -0.887260   -0.731037
 H   -3.142191    0.332713   -2.046694
