43 
2ohq_ligand_ani.xyz
 C    5.308006   -1.753796   -1.264460
 O    4.074242   -1.097302   -1.454624
 C    3.563304   -0.405033   -0.401827
 C    4.158519   -0.341777    0.857672
 C    3.543461    0.407168    1.860697
 C    2.365591    1.096014    1.618775
 C    1.760713    1.028156    0.356871
 C    2.360721    0.264539   -0.639194
 C    0.504603    1.770917    0.070468
 C    0.356649    3.102590    0.465696
 C   -0.801385    3.802210    0.154965
 C   -1.834231    3.176513   -0.535605
 C   -1.722349    1.838523   -0.921137
 C   -2.867453    1.134984   -1.622040
 C   -3.852181    0.426667   -0.661570
 C   -3.220906   -0.680770    0.132686
 C   -3.045828   -0.679561    1.490069
 C   -2.382677   -1.777938    2.090729
 C   -1.916779   -2.826205    1.356081
 C   -2.091580   -2.847372   -0.087348
 N   -1.717943   -3.751259   -0.919389
 N   -2.751508   -1.736496   -0.600053
 C   -0.542800    1.157666   -0.618219
 H    6.101684   -1.047324   -0.987652
 H    5.235587   -2.531498   -0.492826
 H    5.553231   -2.216263   -2.221532
 H    5.085973   -0.862383    1.068171
 H    4.004908    0.458405    2.844025
 H    1.896677    1.674920    2.410594
 H    1.913543    0.196533   -1.628047
 H    1.165289    3.598177    0.999406
 H   -0.901186    4.842016    0.455487
 H   -2.733613    3.738393   -0.780378
 H   -2.467476    0.397286   -2.328282
 H   -3.429882    1.858862   -2.222516
 H   -4.684604    0.015639   -1.248100
 H   -4.277403    1.158408    0.032130
 H   -3.397891    0.156273    2.085892
 H   -2.239934   -1.782771    3.170216
 H   -1.409331   -3.664866    1.815405
 H   -1.250870   -4.502952   -0.414393
 H   -2.892491   -1.766990   -1.601583
 H   -0.440376    0.111881   -0.902767
