43 
2ohq_ligand_dft.xyz
 C    5.116442   -1.559812   -1.208878
 O    3.859044   -0.961261   -1.421083
 C    3.371240   -0.142336   -0.454289
 C    4.032447    0.158127    0.736812
 C    3.424634    1.021838    1.647682
 C    2.183449    1.581520    1.387824
 C    1.516708    1.282428    0.190721
 C    2.120612    0.421233   -0.720508
 C    0.180078    1.864232   -0.094050
 C   -0.112501    3.191526    0.237213
 C   -1.375777    3.715856   -0.008564
 C   -2.364922    2.922108   -0.581680
 C   -2.095300    1.597111   -0.924701
 C   -3.182778    0.701908   -1.467169
 C   -3.872352   -0.125467   -0.354015
 C   -2.911870   -1.036977    0.353810
 C   -2.406295   -0.804555    1.594057
 C   -1.392358   -1.681002    2.091524
 C   -0.942902   -2.732640    1.363232
 C   -1.483959   -3.024517    0.044818
 N   -1.200414   -3.974320   -0.774408
 N   -2.458292   -2.108044   -0.363851
 C   -0.819890    1.086408   -0.681426
 H    5.909638   -0.807652   -1.106299
 H    5.112390   -2.202833   -0.319053
 H    5.312178   -2.170014   -2.091403
 H    5.003540   -0.265090    0.965773
 H    3.934337    1.249647    2.579456
 H    1.713070    2.229819    2.120695
 H    1.643347    0.182950   -1.665697
 H    0.661078    3.819921    0.669305
 H   -1.589363    4.750790    0.242357
 H   -3.354245    3.335228   -0.764960
 H   -2.766942    0.021480   -2.219859
 H   -3.948537    1.301010   -1.971797
 H   -4.689900   -0.710303   -0.795081
 H   -4.316888    0.555158    0.377902
 H   -2.731345    0.059168    2.159787
 H   -0.965702   -1.487670    3.071777
 H   -0.165968   -3.389184    1.740916
 H   -0.481356   -4.572548   -0.372323
 H   -2.839771   -2.301381   -1.281063
 H   -0.609196    0.046213   -0.918430
