37 
2ohr_ligand_ani.xyz
 N   -3.981455   -0.466210   -1.873104
 C   -3.566012   -0.771648   -0.575512
 N   -3.980822   -1.901527   -0.025878
 C   -3.545140   -2.199524    1.207072
 C   -2.675847   -1.394280    1.923495
 C   -2.226793   -0.209313    1.335727
 C   -2.670546    0.123067    0.065650
 N   -2.310965    1.276938   -0.634112
 C   -1.561149    2.341082   -0.010232
 C   -0.044800    2.209088    0.005336
 C    0.716730    3.373506    0.126927
 C    2.104737    3.314137    0.193456
 C    2.754173    2.087756    0.137878
 C    2.015436    0.911676   -0.001721
 C    0.621502    0.989100   -0.067066
 C    2.688618   -0.405560   -0.102280
 C    3.793129   -0.745930    0.679623
 C    4.371915   -1.997841    0.527642
 C    3.838174   -2.866890   -0.418705
 N    2.788991   -2.563013   -1.185279
 C    2.235075   -1.365185   -1.011805
 H   -4.730375   -1.079563   -2.172303
 H   -4.225134    0.510977   -1.990708
 H   -3.914701   -3.131984    1.628628
 H   -2.346873   -1.681463    2.917433
 H   -1.506565    0.424540    1.851173
 H   -2.080747    1.101422   -1.604460
 H   -1.938035    2.453400    1.014949
 H   -1.821904    3.276192   -0.521697
 H    0.212100    4.336329    0.172848
 H    2.683924    4.228526    0.293386
 H    3.840388    2.043003    0.175115
 H    0.058802    0.061488   -0.145475
 H    4.178866   -0.044549    1.416473
 H    5.228539   -2.292870    1.126638
 H    4.272086   -3.852981   -0.572199
 H    1.384177   -1.135223   -1.654115
