35 
2ojg_ligand_ani.xyz
 C   -4.621508    1.491605   -0.758162
 N   -3.370088    0.896773   -0.324992
 C   -2.362149    1.837948    0.124204
 C   -3.339558   -0.466286   -0.166180
 O   -4.353927   -1.139079   -0.253914
 C   -2.014674   -1.092453    0.094107
 C   -0.729489   -0.698857   -0.306383
 C    0.150679   -1.686106    0.143903
 C   -0.692758   -2.636457    0.803386
 N   -1.968755   -2.284467    0.763390
 C    1.589750   -1.735406   -0.045829
 N    2.235794   -2.868720   -0.192222
 N    3.565041   -2.587962   -0.446339
 C    3.715438   -1.287834   -0.451026
 C    2.497289   -0.626170   -0.181199
 C    2.256673    0.791677    0.017299
 C    1.392135    1.242417    1.022041
 C    1.191581    2.598741    1.238084
 C    1.845018    3.537437    0.446017
 C    2.705222    3.104617   -0.558706
 C    2.914470    1.748863   -0.764995
 H   -5.262775    0.705323   -1.155671
 H   -5.140203    1.975458    0.080852
 H   -4.433998    2.244174   -1.530802
 H   -1.628000    1.354603    0.770660
 H   -1.845054    2.304142   -0.725057
 H   -2.843320    2.635167    0.701782
 H   -0.440145    0.188606   -0.856654
 H   -0.383099   -3.560416    1.284723
 H    4.695565   -0.846341   -0.616412
 H    0.876497    0.509639    1.637283
 H    0.516152    2.923156    2.026047
 H    1.686098    4.599323    0.611168
 H    3.221307    3.829347   -1.182752
 H    3.589721    1.418661   -1.552088
