42 
2oji_ligand_ani.xyz
 C   -1.096840    2.464835   -0.260108
 C   -1.489789    3.425115    0.660768
 C   -2.697353    3.245428    1.326965
 C   -3.484516    2.129175    1.083912
 C   -3.069646    1.149193    0.175147
 C   -1.867168    1.342664   -0.514125
 C   -3.860836   -0.044647   -0.064229
Cl    0.412335    2.672151   -1.114012
 C   -5.260205   -0.188006   -0.175607
 N   -5.590441   -1.414758   -0.491620
 N   -4.433074   -2.164140   -0.592277
 C   -3.409980   -1.384787   -0.335463
 C   -2.045690   -1.886649   -0.276741
 C   -1.439201   -2.932264   -1.051538
 N   -0.156114   -3.088707   -0.765703
 C    0.126086   -2.160911    0.199896
 C   -1.014078   -1.426632    0.540854
 C    1.489573   -1.986167    0.741925
 O    2.363180   -2.833212    0.697278
 N    1.678392   -0.760177    1.320212
 C    2.990671   -0.360019    1.795191
 C    3.972948    0.006100    0.695560
 C    5.219243   -0.615704    0.630154
 C    6.132338   -0.289620   -0.368852
 C    5.800058    0.666642   -1.321795
 C    4.557396    1.291347   -1.267823
 C    3.648590    0.964144   -0.266059
 H   -0.864345    4.292862    0.845289
 H   -3.026587    3.988736    2.047242
 H   -4.421955    1.999675    1.620243
 H   -1.520548    0.598709   -1.222885
 H   -6.024628    0.576631   -0.060050
 H   -1.922737   -3.556287   -1.798140
 H   -1.115207   -0.655944    1.295958
 H    0.979780   -0.046011    1.170053
 H    3.399680   -1.186797    2.379610
 H    2.842917    0.482880    2.478993
 H    5.474942   -1.370804    1.372367
 H    7.100477   -0.783610   -0.401496
 H    6.507110    0.926156   -2.105877
 H    4.290774    2.039826   -2.010468
 H    2.684259    1.472163   -0.233338
