42 
2ok1_ligand_ani.xyz
 C    5.625168   -1.020899    0.169412
 C    5.160941   -2.014494    1.023239
 C    3.966772   -1.804332    1.703174
 C    3.249256   -0.628246    1.524910
 C    3.705141    0.355911    0.643948
 C    4.920450    0.158034   -0.019905
 C    2.929956    1.571503    0.436474
Cl    7.126266   -1.265053   -0.680440
 C    3.290866    2.919263    0.647159
 N    2.282607    3.727384    0.421941
 N    1.200343    2.960924    0.031840
 C    1.561863    1.697823    0.036429
 C    0.627734    0.680848   -0.386801
 C    0.762413   -0.724154   -0.582850
 N   -0.365219   -1.277389   -1.024173
 C   -1.263046   -0.254922   -1.114825
 C   -0.687575    0.965002   -0.746876
 C   -2.653917   -0.532026   -1.548707
 O   -3.005595   -1.579757   -2.061713
 N   -3.514507    0.509415   -1.328621
 C   -4.945367    0.347498   -1.529563
 C   -5.676104   -0.060110   -0.265684
 C   -5.513816   -1.349482    0.245608
 C   -6.147318   -1.722767    1.426700
 C   -6.947167   -0.811813    2.111402
 C   -7.112599    0.474648    1.608620
 C   -6.479888    0.845544    0.425538
 H    5.728486   -2.930392    1.153618
 H    3.589886   -2.565433    2.378586
 H    2.321079   -0.468138    2.066776
 H    5.302965    0.912613   -0.701635
 H    4.248628    3.312108    0.974540
 H    1.643151   -1.330855   -0.417336
 H   -1.083050    1.978643   -0.771069
 H   -3.221222    1.221704   -0.676735
 H   -5.058096   -0.419807   -2.299603
 H   -5.349335    1.286090   -1.922992
 H   -4.889789   -2.061639   -0.290861
 H   -6.015825   -2.729970    1.813774
 H   -7.440201   -1.104608    3.035496
 H   -7.736194    1.192341    2.136578
 H   -6.607370    1.851989    0.030740
