17 
2ooz_ligand_xtb.xyz
 O    3.623960   -0.395382    0.003979
 C    2.290485   -0.144644    0.000344
 C    1.414234   -1.230068   -0.001000
 C    0.054928   -1.018644   -0.002428
 C   -0.467904    0.278208   -0.001590
 C    0.415807    1.356392   -0.002510
 C    1.780576    1.149618   -0.002075
 C   -1.895255    0.518710    0.002038
 N   -2.723487   -0.443167   -0.002454
 O   -4.063651   -0.070000    0.003636
 H    4.116886    0.434388    0.003854
 H    1.827998   -2.225978   -0.000565
 H   -0.631363   -1.849996   -0.003423
 H    0.029938    2.365531   -0.003161
 H    2.458187    1.993770   -0.002806
 H   -2.229645    1.557720    0.010185
 H   -4.547290   -0.907645   -0.004494
