17 
2ooz_ligand_ani.xyz
 O    3.638690   -0.371490    0.001491
 C    2.302260   -0.121129    0.000571
 C    1.448910   -1.226207   -0.000931
 C    0.077427   -1.040882   -0.002183
 C   -0.470820    0.249596   -0.001911
 C    0.396373    1.342466   -0.000504
 C    1.775822    1.170146    0.000928
 C   -1.922899    0.482504   -0.002344
 N   -2.753307   -0.485235    0.001960
 O   -4.057213   -0.022403    0.001478
 H    4.118905    0.465994    0.002873
 H    1.883210   -2.221788   -0.000890
 H   -0.587826   -1.898197   -0.003109
 H   -0.007042    2.353165   -0.000437
 H    2.438306    2.034641    0.002052
 H   -2.291586    1.513258   -0.005804
 H   -4.575070   -0.838248    0.006090
