15 
2oq6_ligand_xtb.xyz
 C    2.224932    0.245376    0.186387
 C    0.800168   -0.137505   -0.252129
 C   -1.409484    0.771401   -0.807747
 C   -2.344802   -0.007122    0.153092
 O    2.528395    1.376317    0.444981
 O    3.018196   -0.804524    0.228395
 O    0.552330   -1.317642   -0.503002
 O   -3.325370    0.495456    0.614759
 N   -0.049909    0.877795   -0.319546
 O   -1.989335   -1.256215    0.387717
 H   -1.817570    1.770564   -0.950490
 H   -1.405592    0.235972   -1.765341
 H    2.504081   -1.599946   -0.032114
 H    0.307210    1.781680   -0.034030
 H   -1.137372   -1.512865   -0.041608
