51 
2osc_ligand_ani.xyz
 C   -0.397782   -2.051227   -0.770270
 C    0.610553   -1.122528   -0.519262
 C    1.941798   -1.467898   -0.729833
 C    2.313883   -2.729515   -1.213964
 C    1.283125   -3.635187   -1.476285
 C   -0.048971   -3.313887   -1.256563
 C    3.752680   -3.098542   -1.457089
 N   -1.762151   -1.780762   -0.546053
 C   -2.340209   -0.623124   -0.089454
 C   -4.535332   -1.870797    0.313945
 C   -3.829871   -0.685733    0.089836
 C   -4.514568    0.526054    0.065845
 C   -5.894833    0.546826    0.229618
 C   -6.601864   -0.633268    0.437741
 C   -5.913680   -1.842511    0.486990
 C   -6.604568    1.868801    0.190929
 F   -7.932949    1.740651    0.347605
 F   -6.396941    2.506413   -0.977543
 F   -6.163443    2.693139    1.161215
 N    2.926939   -0.482830   -0.465205
 C    4.577070    0.591652    0.957437
 C    5.295538    0.529532    2.145237
 C    5.137310   -0.544398    3.012629
 C    4.259772   -1.548614    2.637599
 N    3.555193   -1.534099    1.505709
 C    3.679341   -0.484472    0.689547
 C    6.050634    2.306563   -0.131522
 C    6.158801    3.400689   -0.974613
 N    5.110404    3.931355   -1.610179
 C    3.951303    3.318669   -1.393322
 N    3.732986    2.239735   -0.643925
 C    4.782385    1.738407    0.029757
 O   -1.725211    0.406175    0.140528
 H    0.354084   -0.134917   -0.153095
 H    1.536266   -4.619838   -1.865567
 H   -0.822511   -4.050045   -1.463913
 H    4.295689   -2.265397   -1.914252
 H    4.260555   -3.333535   -0.515804
 H    3.824778   -3.973391   -2.109713
 H   -2.390741   -2.513773   -0.834386
 H   -4.015089   -2.823426    0.392926
 H   -3.950979    1.443808   -0.075277
 H   -7.679275   -0.601417    0.565541
 H   -6.454148   -2.769839    0.654150
 H    2.757296    0.439614   -0.856881
 H    5.972818    1.340026    2.408953
 H    5.688652   -0.602673    3.944651
 H    4.109549   -2.416693    3.275923
 H    6.927121    1.889150    0.354774
 H    7.122326    3.881185   -1.140369
 H    3.086614    3.733175   -1.905407
