51 
2osc_ligand_dft.xyz
 C   -0.399959   -2.007251   -0.673993
 C    0.613832   -1.103008   -0.364300
 C    1.941401   -1.416195   -0.656762
 C    2.290770   -2.624448   -1.276312
 C    1.256768   -3.518181   -1.554807
 C   -0.067758   -3.228230   -1.263689
 C    3.708597   -2.946421   -1.655480
 N   -1.761693   -1.766967   -0.393250
 C   -2.352808   -0.601468    0.015165
 C   -4.482887   -1.867189    0.645024
 C   -3.838737   -0.697251    0.239567
 C   -4.581995    0.469675    0.063593
 C   -5.956862    0.453232    0.255952
 C   -6.601698   -0.719985    0.646025
 C   -5.859926   -1.876587    0.847811
 C   -6.755537    1.721024    0.103878
 F   -7.986028    1.473643   -0.378805
 F   -6.162946    2.592048   -0.725983
 F   -6.916516    2.342433    1.285000
 N    2.911450   -0.419896   -0.383268
 C    4.815022    0.548321    0.784160
 C    5.791580    0.338937    1.756734
 C    5.906739   -0.879498    2.410333
 C    5.009478   -1.876513    2.051035
 N    4.045705   -1.720942    1.150405
 C    3.922778   -0.540595    0.527554
 C    5.860538    2.692145   -0.029726
 C    5.684405    3.905647   -0.670284
 N    4.514349    4.295395   -1.188713
 C    3.525151    3.419035   -1.057110
 N    3.576411    2.231304   -0.457004
 C    4.745916    1.848578    0.085138
 O   -1.760148    0.451600    0.181964
 H    0.373382   -0.158363    0.103921
 H    1.495390   -4.464366   -2.033463
 H   -0.845300   -3.948364   -1.508711
 H    4.223418   -2.055960   -2.031154
 H    4.270061   -3.300519   -0.785015
 H    3.739210   -3.717644   -2.430905
 H   -2.383923   -2.521480   -0.640870
 H   -3.912969   -2.771169    0.842700
 H   -4.066778    1.379071   -0.224546
 H   -7.676409   -0.724903    0.793357
 H   -6.353762   -2.787541    1.170001
 H    2.666058    0.541818   -0.602389
 H    6.459801    1.151184    2.026537
 H    6.657837   -1.046844    3.173229
 H    5.054364   -2.856269    2.523180
 H    6.837351    2.406038    0.340560
 H    6.516056    4.597441   -0.784811
 H    2.564411    3.697053   -1.483473
