14 
2osm_ligand_ani.xyz
 C   -1.536800    1.088760   -0.002036
 C   -0.148974    0.938337    0.000536
 C    0.401585   -0.353620    0.000919
 C   -0.440232   -1.462495    0.002449
 C   -1.820802   -1.305182    0.001269
 C   -2.365088   -0.024423   -0.001757
 O    0.589776    2.068703    0.001510
 S    2.175645   -0.466281   -0.000777
 H   -1.940352    2.097398   -0.004271
 H   -0.014169   -2.464435    0.004477
 H   -2.465841   -2.178653    0.002499
 H   -3.443301    0.111289   -0.003858
 H    1.535238    1.859263    0.007174
 H    2.261766   -1.802249   -0.013953
