51 
2ovy_ligand_xtb.xyz
 C    3.158010   -1.866372    0.016265
 C    0.523692    0.636827    0.724946
 C    1.840466    0.125348    0.494952
 C   -0.261316   -1.502211    0.839388
 C   -2.541856    0.722429   -1.053920
 C   -0.320736    3.585761   -0.922440
 C   -1.133709    2.374171    0.940401
 C    0.853918    2.912892   -0.174537
 C   -4.237578   -1.306589   -0.637346
 C    6.634159    0.671366    0.360632
 O    5.309070    1.137848    0.233197
 C    4.253622    0.272703    0.217083
 C    3.034850    0.858571    0.481812
 N   -0.479776   -0.196007    0.966927
 N    0.842411   -2.085978    0.473615
 C    1.919559   -1.280406    0.324535
 C    4.310482   -1.122458   -0.069272
 O    5.523492   -1.651903   -0.405860
 C    5.602677   -3.031114   -0.674783
 N    0.248749    1.972486    0.760410
 C   -1.547133    2.791113   -0.472603
 O   -1.629302    1.658532   -1.333487
 N   -3.453303    0.919215   -0.139235
 C   -4.322964   -0.093027    0.092621
 C   -5.317404    0.052305    1.075549
 C   -6.184682   -0.978186    1.321662
 C   -6.096038   -2.181069    0.604684
 C   -5.140381   -2.348043   -0.361268
 N   -3.296508   -1.467717   -1.601209
 C   -2.475644   -0.487905   -1.808536
 H    3.156494   -2.932116   -0.137358
 H   -1.119570   -2.136243    1.028357
 H   -0.197615    3.526647   -2.001339
 H   -0.427749    4.629710   -0.633254
 H   -1.176260    3.237734    1.609356
 H   -1.721445    1.551665    1.337970
 H    1.510592    2.386075   -0.866624
 H    1.438305    3.658028    0.373963
 H    6.736093   -0.032577    1.189684
 H    6.990059    0.200995   -0.558109
 H    7.228686    1.561555    0.567163
 H    3.043314    1.908191    0.724236
 H    4.965000   -3.312174   -1.518104
 H    5.331299   -3.627212    0.201652
 H    6.644905   -3.217121   -0.930390
 H   -2.488179    3.347807   -0.501463
 H   -5.369139    0.982620    1.619636
 H   -6.948667   -0.871210    2.077969
 H   -6.792097   -2.977720    0.822507
 H   -5.052569   -3.262546   -0.926833
 H   -1.720489   -0.608543   -2.572322
