74 
2ow3_ligand_ani.xyz
 C    4.470891    1.888328   -0.899147
 C    3.174181    1.254639   -0.510766
 C    2.864186    3.556741   -0.758304
 C    2.235881    2.275789   -0.327764
 C    0.927013    2.237111    0.242159
 C    0.417613    1.405149    1.331582
 C   -0.120091    3.068652   -0.091412
 N   -1.220332    2.810809    0.661923
 C    2.923227   -0.152854   -0.498827
 C    1.774335   -0.782605   -0.923515
 C    3.070761   -2.431650   -0.194697
 C    0.968214    0.411945    2.163627
 C    0.194345   -0.137681    3.166427
 C   -1.696555    1.256291    2.572386
 C   -1.132762    0.279676    3.369792
 C    5.584518   -2.489385    0.937012
 C    4.860005   -3.679714    0.758623
 O    5.560269    1.397639   -1.094720
 C   -0.195975   -3.259747    0.120375
 C   -2.440612   -2.373232   -2.227888
 C   -3.124412   -1.221484   -2.603251
 C   -3.956701   -1.060562   -0.386783
 C   -3.834116   -0.475964   -1.671898
 C   -2.528716    3.414796    0.512370
 C   -3.577804    2.462435   -0.063165
 C   -4.268590    0.936174   -2.009986
 C   -3.293319    2.023223   -1.498486
 C   -6.265659   -0.569508    0.183306
 C    3.783229   -1.229365   -0.025713
 C    5.061254   -1.270204    0.552249
 C    3.598177   -3.668152    0.191464
 N    1.848386   -2.132490   -0.763428
 C    0.761776   -3.042202   -1.057784
 C   -1.560031   -3.819936   -0.323141
 C   -2.442263   -2.729197   -0.880582
 N   -3.203738   -2.088119    0.014989
 N   -4.856338   -0.529982    0.545707
 C   -4.624091   -0.950499    1.914240
 O    2.386847    4.665813   -0.856417
 N    4.188259    3.242487   -1.039736
 C   -0.908401    1.807884    1.555870
 H   -0.133973    3.858961   -0.835510
 H    0.870717   -0.348684   -1.344431
 H    1.988375    0.062662    2.018821
 H    0.613458   -0.903308    3.813180
 H   -2.721036    1.582043    2.731995
 H   -1.718566   -0.176355    4.165172
 H    6.574015   -2.528897    1.384515
 H    5.298175   -4.624706    1.069464
 H   -0.359846   -2.311175    0.648205
 H    0.281564   -3.941588    0.835335
 H   -1.886262   -2.953970   -2.961181
 H   -3.080654   -0.879865   -3.636162
 H   -2.399703    4.291067   -0.131584
 H   -2.851004    3.778856    1.494473
 H   -4.553276    2.965235   -0.021880
 H   -3.653492    1.587246    0.588164
 H   -5.271930    1.157313   -1.631944
 H   -4.331169    0.996950   -3.102152
 H   -2.264843    1.645806   -1.575432
 H   -3.353651    2.901368   -2.156837
 H   -6.817402    0.142571    0.806958
 H   -6.404983   -0.294469   -0.863707
 H   -6.708056   -1.570370    0.324835
 H    5.637064   -0.358816    0.676640
 H    3.039932   -4.592001    0.058429
 H    0.231173   -2.621333   -1.917393
 H    1.188321   -3.993670   -1.391537
 H   -2.078985   -4.261362    0.533498
 H   -1.415809   -4.611205   -1.070526
 H   -4.832329   -2.021439    2.064529
 H   -3.571637   -0.782183    2.157361
 H   -5.248773   -0.352152    2.584993
 H    4.866939    3.921542   -1.353620
