82 
2oz2_ligand_ani.xyz
 C    2.241997    1.827898    3.047422
 C    2.833455    0.422688    3.322420
 N    3.382064   -0.180844    2.077574
 C    3.805045   -1.569051    2.284957
 C    4.499411    0.669619    1.553718
 C    4.164208    2.175195    1.639149
 N    2.724796    2.397005    1.780860
 C    1.987718    2.119199    0.627428
 O    2.523046    1.849979   -0.444419
 N    0.628129    2.143683    0.815880
 C   -0.264118    1.400681   -0.036968
 C   -0.357662    1.974670   -1.468719
 C   -0.680585    3.449386   -1.460636
 C   -2.002255    3.883611   -1.342297
 C   -2.298353    5.242896   -1.302650
 C   -1.273897    6.181756   -1.380328
 C    0.047622    5.758443   -1.492557
 C    0.342612    4.397978   -1.526669
 C    0.148757   -0.087124   -0.001970
 O    0.978603   -0.478172    0.816132
 N   -0.458735   -0.873790   -0.919437
 C   -0.416495   -2.335556   -0.939999
 C    1.018907   -2.868580   -0.896859
 C    1.919407   -2.284252   -1.995669
 C    3.396777   -2.477687   -1.742650
 C    4.197213   -1.389293   -1.387152
 C    5.555805   -1.560600   -1.130973
 C    6.130591   -2.825160   -1.224241
 C    5.340468   -3.917139   -1.570439
 C    3.983964   -3.741207   -1.825057
 C   -1.264451   -2.934386    0.194559
 C   -2.782877   -2.798964    0.031709
 S   -3.404349   -1.097755    0.054839
 O   -3.248648   -0.525155   -1.288228
 O   -2.811014   -0.418205    1.209760
 C   -5.140977   -1.297478    0.371023
 C   -5.587222   -1.363939    1.686818
 C   -6.943563   -1.555565    1.927423
 C   -7.833728   -1.673635    0.862130
 C   -7.370788   -1.598837   -0.449781
 C   -6.017017   -1.408670   -0.703488
 H    1.153292    1.778112    3.004086
 H    2.518734    2.507890    3.861044
 H    3.639452    0.478827    4.067102
 H    2.064428   -0.246523    3.719268
 H    2.618627   -0.205407    1.381862
 H    4.155158   -1.993622    1.339310
 H    2.965453   -2.161111    2.662242
 H    4.623069   -1.609092    3.016739
 H    4.667200    0.385401    0.514203
 H    5.407664    0.440793    2.123608
 H    4.649740    2.630307    2.508093
 H    4.518100    2.693444    0.747147
 H    0.231184    2.867627    1.394255
 H   -1.257267    1.456470    0.427375
 H    0.598946    1.809302   -1.970712
 H   -1.140178    1.438859   -2.021777
 H   -2.806010    3.149809   -1.280390
 H   -3.331574    5.569676   -1.213549
 H   -1.505946    7.243767   -1.352309
 H    0.849652    6.489769   -1.553648
 H    1.373896    4.054554   -1.596246
 H   -1.258458   -0.475713   -1.392607
 H   -0.871978   -2.615851   -1.901347
 H    1.436147   -2.629768    0.085907
 H    0.992622   -3.963057   -0.980471
 H    1.644263   -2.728754   -2.962873
 H    1.726823   -1.208452   -2.084958
 H    3.742748   -0.400943   -1.311257
 H    6.175606   -0.706425   -0.860306
 H    7.189581   -2.959341   -1.022674
 H    5.782845   -4.907484   -1.644952
 H    3.370289   -4.599349   -2.096119
 H   -1.051738   -4.009334    0.255408
 H   -0.948090   -2.489407    1.143842
 H   -3.132114   -3.238326   -0.908436
 H   -3.286485   -3.299644    0.864017
 H   -4.881698   -1.255158    2.505941
 H   -7.307789   -1.612016    2.949453
 H   -8.893366   -1.822814    1.055129
 H   -8.067629   -1.686401   -1.278604
 H   -5.635082   -1.337858   -1.718243
