66 
2oz5_ligand_ani.xyz
 C   -3.618236   -2.582254    0.221211
 C   -4.531972   -3.601876    0.459990
Cl   -4.166905   -4.819358    1.652698
 C   -5.731395   -3.671249   -0.236847
 C   -6.012456   -2.692332   -1.183981
 C   -5.107604   -1.666618   -1.434378
 C   -3.897692   -1.613778   -0.742232
 C   -2.926640   -0.486252   -1.011237
 N   -3.326779    0.757741   -0.359458
 C   -4.039321    1.660354   -1.090588
 O   -4.364180    1.499327   -2.254382
 C   -4.460903    2.950575   -0.362185
 O   -5.596856    3.133840   -0.025687
 O   -3.493335    3.841225   -0.131312
 C   -2.959637    0.959658    1.027015
 C   -1.602878    1.588764    1.208472
 S   -0.686009    2.181987   -0.141208
 C   -0.949931    1.833438    2.384603
 C    0.301846    2.489929    2.204685
 C    0.583357    2.729735    0.889262
 S    2.048347    3.519449    0.335260
 O    1.765396    4.164788   -0.936143
 O    2.604454    4.261692    1.453721
 N    3.089451    2.240195    0.093564
 C    3.128437    1.636024   -1.243461
 C    4.247047    0.600597   -1.325736
 C    4.226369   -0.427651   -0.180031
 C    2.910397   -1.201049   -0.133761
 C    2.706926   -2.371008   -0.864219
 C    1.464003   -2.996788   -0.865440
 C    0.406826   -2.461447   -0.136574
 C    0.604883   -1.302226    0.611601
 C    1.850878   -0.688624    0.620296
 C    5.450223   -1.337589   -0.169227
 C    6.292519   -1.525313   -1.267028
 C    7.377850   -2.395848   -1.195841
 C    7.645282   -3.090485   -0.021062
 C    6.816927   -2.910038    1.082956
 C    5.730997   -2.044226    1.003965
 H   -2.696353   -2.554232    0.798226
 H   -6.430041   -4.477570   -0.035845
 H   -6.948112   -2.732193   -1.734761
 H   -5.334868   -0.900463   -2.171002
 H   -2.869341   -0.264205   -2.080333
 H   -1.927088   -0.757831   -0.657749
 H   -2.612506    3.510271   -0.407984
 H   -2.986963   -0.015199    1.531264
 H   -3.730237    1.573246    1.511575
 H   -1.346768    1.560838    3.358158
 H    0.974370    2.782499    3.005729
 H    3.995835    2.505465    0.473675
 H    3.248710    2.411433   -2.010167
 H    2.159424    1.156805   -1.419464
 H    5.219186    1.111998   -1.326976
 H    4.159204    0.091101   -2.291574
 H    4.251871    0.142294    0.761031
 H    3.531592   -2.806830   -1.427909
 H    1.321312   -3.906304   -1.442816
 H   -0.564904   -2.952087   -0.152850
 H   -0.203655   -0.850613    1.182354
 H    2.001702    0.224419    1.192181
 H    6.116294   -0.983221   -2.193497
 H    8.017224   -2.524345   -2.066098
 H    8.493910   -3.767303    0.034810
 H    7.016077   -3.444818    2.008632
 H    5.084939   -1.914110    1.871037
