58 
2oz7_ligand_xtb.xyz
 C   -4.547597    0.371724    0.467366
 C    0.986158    0.880765   -0.271835
 C   -3.275805    0.473358    0.045331
 C   -2.574092    1.744966    0.017880
 C   -0.161155   -1.773665   -0.577053
 C   -1.303482    1.891886   -0.364110
 C   -0.450178    0.736052   -0.767886
 C   -1.022391   -0.566442   -0.185609
 C   -2.525020   -0.710053   -0.537421
 C    1.306615   -1.585625   -0.178029
 C    1.862769   -0.286279   -0.753502
 C   -5.306548   -0.881005    0.473519
 C   -2.794038   -0.703377   -2.051621
 C   -3.053501   -2.016064    0.029535
 C   -3.316876   -2.160902    1.486701
 C   -4.478060   -2.104557    0.519726
 O   -6.520695   -0.911742    0.436544
Cl   -3.458036    3.162496    0.503433
 C    1.982690   -0.389975   -2.276709
 C    1.794785    2.121742   -0.649085
 C    3.262606    1.682334   -0.456256
 C    3.236123    0.163827   -0.182009
 C    4.386831   -0.704428   -0.723772
 C    5.364503   -0.096800   -1.687539
 O    4.447494   -1.857766   -0.378297
 O    3.185290   -0.059802    1.242650
 C    4.342837    0.029712    1.896181
 C    4.170378   -0.293296    3.353954
 O    5.383025    0.328198    1.366596
 H   -5.097984    1.247631    0.778582
 H    0.963282    0.823643    0.821702
 H   -0.530454   -2.662287   -0.065778
 H   -0.231766   -1.955796   -1.649187
 H   -0.854931    2.872651   -0.387630
 H   -0.440090    0.687901   -1.862009
 H   -0.973188   -0.475794    0.906799
 H    1.380566   -1.551385    0.909307
 H    1.897069   -2.435083   -0.523894
 H   -3.848841   -0.904656   -2.225952
 H   -2.559728    0.262640   -2.489935
 H   -2.212326   -1.473540   -2.551406
 H   -2.697413   -2.888758   -0.502730
 H   -3.114837   -3.105806    1.967160
 H   -3.160132   -1.301044    2.120491
 H   -5.033214   -3.018821    0.351058
 H    1.018210   -0.580440   -2.735947
 H    2.388403    0.517915   -2.711968
 H    2.639555   -1.219016   -2.531647
 H    1.553835    2.973416   -0.015512
 H    1.604495    2.408119   -1.683731
 H    3.721163    2.188992    0.392209
 H    3.857945    1.915699   -1.334195
 H    4.857137    0.323626   -2.551766
 H    5.916382    0.689573   -1.178248
 H    6.059415   -0.867481   -2.011066
 H    4.963818    0.172529    3.930219
 H    4.239563   -1.373597    3.469108
 H    3.194439    0.032243    3.701130
