39 
2p2a_ligand_ani.xyz
 C    2.452603    0.012244   -0.345127
 C    2.142793   -1.287663   -0.094064
 O    3.112978   -1.946929    0.579400
 N    4.161427   -1.028653    0.729402
 C    3.714786    0.243691    0.350157
 C    0.894171   -2.002442   -0.325917
 N    0.649770   -3.302759   -0.026342
 N   -0.604467   -3.509583   -0.321577
 N   -1.075114   -2.371310   -0.785690
 N   -0.186850   -1.391736   -0.801394
 C   -2.463409   -2.110155   -1.123946
 C   -3.844092    1.230174    1.207618
 C   -3.618569    1.390542   -0.157860
 C   -3.179960    0.311583   -0.921823
 C   -2.974468   -0.934490   -0.330887
 C   -3.176601   -1.082030    1.040651
 C   -3.617383   -0.007263    1.807673
 O    4.319376    1.272635    0.582255
 C    1.706294    1.161264   -0.939300
 C    0.971844    1.930735    0.164192
 C    0.170584    3.131605   -0.322181
 O    0.838701    3.930697   -1.161520
 O   -0.962077    3.342891    0.052594
 N   -0.010506    1.077870    0.902130
 H    4.582890   -1.138882    1.645777
 H   -3.017457   -3.027082   -0.901384
 H   -2.515370   -1.910094   -2.198027
 H   -4.190199    2.071222    1.805647
 H   -3.765290    2.362199   -0.623240
 H   -2.999133    0.435967   -1.988365
 H   -2.982969   -2.050221    1.498307
 H   -3.787709   -0.134384    2.873966
 H    1.001644    0.822984   -1.705370
 H    2.412967    1.842460   -1.415085
 H    1.718691    2.306013    0.864224
 H    0.245541    4.668193   -1.382864
 H   -0.304323    0.267848    0.314317
 H    0.357108    0.754858    1.812188
 H   -0.839590    1.691002    1.047257
