54 
2p2h_ligand_xtb.xyz
 C    5.187924    0.356051    0.018037
 C    3.886804    0.900458    0.034494
 C    2.768143    0.084093   -0.000947
 C    2.925451   -1.295777   -0.073400
 C    4.197515   -1.839792   -0.111101
 C    5.335194   -1.032793   -0.064909
 N    1.848081   -2.176551   -0.101433
 C    0.518768   -1.971603   -0.135687
 N   -0.012242   -0.754983   -0.203131
 C   -1.343606   -0.688582   -0.217705
 N   -2.130498   -1.775811   -0.149969
 C   -1.502137   -2.937156   -0.102812
 N   -0.205563   -3.112798   -0.100342
 O    6.495154   -1.736397   -0.118656
 C    7.752152   -1.095148   -0.094187
 O    6.291549    1.191379    0.025966
 C    6.470305    1.967550    1.194622
 O    3.823225    2.261379    0.086402
 C    2.565469    2.884828   -0.005414
 C   -1.946843    0.630095   -0.305315
 C   -1.118406    1.729067   -0.523432
 C   -1.640901    3.005576   -0.585938
 C   -3.012738    3.141788   -0.422632
 N   -3.829416    2.130001   -0.231365
 C   -3.348284    0.883694   -0.177711
 N   -4.199944   -0.146521   -0.000372
 C   -5.577733   -0.179892    0.153534
 C   -6.392359    0.949780    0.199749
 C   -7.758940    0.806632    0.355039
 C   -8.335463   -0.447126    0.467183
 C   -7.528791   -1.573018    0.424483
 C   -6.163606   -1.443198    0.270031
 H    1.771926    0.483595    0.026170
 H    4.347728   -2.905996   -0.172900
 H    2.088980   -3.160080   -0.086514
 H   -2.122011   -3.825290   -0.062192
 H    7.848618   -0.363780   -0.897808
 H    7.937408   -0.605923    0.865377
 H    8.478506   -1.896073   -0.233633
 H    5.658918    2.684034    1.333429
 H    6.544761    1.329952    2.083646
 H    7.408157    2.501629    1.050727
 H    2.067175    2.636134   -0.947077
 H    1.918023    2.618620    0.836042
 H    2.768837    3.954663    0.021672
 H   -0.063191    1.552917   -0.653675
 H   -1.010915    3.863347   -0.757372
 H   -3.487737    4.114439   -0.453416
 H   -3.725111   -1.055968   -0.005418
 H   -5.944435    1.924306    0.111036
 H   -8.381140    1.689120    0.388371
 H   -9.403671   -0.548388    0.586744
 H   -7.966404   -2.556908    0.511438
 H   -5.534284   -2.321759    0.236046
