130 
2p3c_ligand_dft.xyz
 N    1.051769   -2.494432   -0.010719
 C    2.472753   -2.756314   -0.173391
 N   -1.372979   -1.293940    0.186789
 C    3.079727   -1.828464   -1.237668
 C    2.755759   -4.238330   -0.470166
 C    4.230534   -4.533013   -0.351724
 C    5.076756   -4.460735   -1.461552
 O    2.779735   -2.214145   -2.560863
 C    6.450323   -4.642937   -1.321689
 C    6.997751   -4.905170   -0.068133
 O    0.957416   -3.289113    2.117397
 C    6.161607   -4.987401    1.043153
 C    4.790079   -4.798585    0.900675
 C   -0.935634   -2.035081    1.351304
 C    0.451436   -2.674717    1.187264
 C   -1.979199   -3.079998    1.782133
 C   -5.894100   -2.912121   -0.477821
 C   -6.642463   -3.345992    0.609865
 N   -3.156787    0.390379   -1.389608
 C   -8.024845   -3.166621    0.623537
 C   -8.654900   -2.560884   -0.459338
 C   -7.901275   -2.120603   -1.545364
 O   -0.483515    0.683984    0.832139
 C   -1.717685    0.601601   -1.277191
 C   -1.136562    0.024467    0.027766
 C   -1.388957    2.074349   -1.444061
 O   -1.458918    5.015600    2.610241
 C   -1.337949    3.967903    2.010041
 O   -2.368109    3.173463    1.638556
 C   -3.680537    3.629153    1.973084
 C   -4.636928    2.613718    1.410747
 C   -4.749356    1.353806    2.003403
 C   -5.621421    0.404461    1.482563
 C   -6.386425    0.701910    0.357309
 C   -6.265678    1.947042   -0.252403
 C   -5.392310    2.898305    0.272672
 N   -0.180188    3.412652    1.555799
 C    1.114376    3.906867    1.972874
 C    1.738106    3.052338    3.074967
 C    2.055556    3.988848    0.761137
 O    3.276087    3.888218    0.887737
 N    1.440681    4.177394   -0.426811
 C    2.075063    4.115743   -1.742183
 C    3.270636    5.072586   -1.922421
 C    2.849391    6.512181   -1.628020
 C    3.827616    4.936537   -3.341864
 C    2.393114    2.655290   -2.098252
 O    1.825177    2.108788   -3.051053
 N    3.277963    2.027181   -1.306515
 C    3.711984    0.643289   -1.511697
 C    5.100802    0.440158   -0.854500
 C    5.104519    0.064944    0.617086
 C    4.671667    0.957448    1.604274
 C    4.643862    0.578907    2.942618
 C    5.058594   -0.693878    3.324085
 C    5.514707   -1.580737    2.355877
 C    5.537823   -1.203033    1.015735
 C    2.651581   -0.356058   -1.020309
 O    1.410686   -0.191533   -1.711580
 C   -3.289289   -2.395523    2.172130
 C   -2.197906   -4.154423    0.711835
 C   -3.676435   -0.730494   -1.934543
 O   -3.042115   -1.763808   -2.124535
 O   -4.970077   -0.566374   -2.255696
 C   -5.685638   -1.737701   -2.688664
 C   -6.517046   -2.284474   -1.559295
 H    0.597736   -1.882854   -0.675346
 H    2.954438   -2.508060    0.781840
 H   -1.884013   -1.767031   -0.555341
 H    4.159521   -1.927939   -1.136611
 H    2.385083   -4.473915   -1.472008
 H    2.192867   -4.831532    0.256201
 H    4.649372   -4.239595   -2.436418
 H    1.952338   -1.751451   -2.772181
 H    7.094369   -4.581925   -2.194561
 H    8.068397   -5.049732    0.042493
 H    6.580388   -5.197171    2.023720
 H    4.138157   -4.842301    1.770316
 H   -0.811032   -1.305427    2.157919
 H   -1.549353   -3.563780    2.665340
 H   -4.817483   -3.055123   -0.492038
 H   -6.147071   -3.828939    1.446822
 H   -3.790347    1.142988   -1.150279
 H   -8.609178   -3.504701    1.473946
 H   -9.732097   -2.424131   -0.457026
 H   -8.393321   -1.633876   -2.384067
 H   -1.247597    0.033668   -2.087635
 H   -0.305588    2.198317   -1.415317
 H   -1.752485    2.429708   -2.412200
 H   -1.839940    2.664553   -0.640866
 H   -3.766734    3.712547    3.061108
 H   -3.845969    4.622981    1.546039
 H   -4.146540    1.119024    2.876801
 H   -5.711801   -0.570663    1.950978
 H   -7.067931   -0.040161   -0.043217
 H   -6.850591    2.178343   -1.137493
 H   -5.303439    3.873727   -0.199805
 H   -0.248778    2.434204    1.256036
 H    0.959546    4.927895    2.339853
 H    1.089624    3.066145    3.954957
 H    1.854023    2.016210    2.739925
 H    2.722169    3.440758    3.345749
 H    0.430917    4.132451   -0.392497
 H    1.302086    4.405686   -2.459662
 H    4.048635    4.789449   -1.208172
 H    3.702275    7.188556   -1.742774
 H    2.065843    6.840436   -2.322683
 H    2.468409    6.620001   -0.608610
 H    4.661017    5.630917   -3.486940
 H    3.061514    5.168635   -4.091432
 H    4.197039    3.925478   -3.542256
 H    3.629872    2.546057   -0.506709
 H    3.824956    0.504832   -2.593584
 H    5.669312    1.364659   -1.012168
 H    5.629586   -0.335601   -1.415688
 H    4.357546    1.966090    1.351745
 H    4.298311    1.288070    3.689203
 H    5.030026   -0.989180    4.368553
 H    5.847777   -2.576066    2.631460
 H    5.895968   -1.917054    0.276437
 H    2.465904   -0.175275    0.044291
 H    1.496079    0.533237   -2.367331
 H   -3.729764   -1.869735    1.317635
 H   -3.131068   -1.658128    2.967406
 H   -4.018349   -3.130006    2.531942
 H   -2.912397   -4.904746    1.066810
 H   -1.263025   -4.670284    0.469894
 H   -2.601903   -3.735824   -0.218673
 H   -4.964271   -2.470046   -3.055634
 H   -6.314698   -1.400025   -3.514784
