43 
2p3i_ligand_ani.xyz
 C   -2.572775   -0.563034    1.250016
 C   -2.434619   -0.102368   -0.226196
 C   -2.326639    1.405574   -0.366540
 C   -1.019340    1.980717    0.161500
 C    0.178092    1.168276   -0.372010
 C   -0.042916   -0.335505   -0.160260
 C    1.063230   -1.220917   -0.802855
 C    1.983888   -1.871894    0.236457
 C    3.136851   -2.616867   -0.428279
 C    2.163129    2.613278   -0.156279
 C    3.545284    2.704355    0.449985
 C   -3.824678   -1.905615   -0.959795
 N    1.417429    1.566732    0.270869
 O   -2.405157   -1.696980    1.624601
 O   -2.905471    0.432462    2.085091
 O   -3.544771   -0.510383   -0.950572
 O   -0.964200    3.322653   -0.255392
 O   -1.281258   -0.705736   -0.768667
 O    0.535331   -2.280873   -1.564545
 O    2.525247   -0.879386    1.095972
 O    3.976877   -3.061577    0.633438
 O    1.736134    3.440901   -0.962182
 H   -2.383501    1.629156   -1.436650
 H   -3.171631    1.897016    0.118946
 H   -1.008840    1.923187    1.262475
 H    0.244385    1.366891   -1.449574
 H   -0.099636   -0.544425    0.916228
 H    1.684341   -0.565462   -1.442403
 H    1.387680   -2.584867    0.824926
 H    3.679081   -1.921696   -1.088643
 H    2.755967   -3.454970   -1.023721
 H    3.484523    3.161885    1.443254
 H    4.167441    3.333694   -0.188154
 H    4.002006    1.714438    0.559763
 H   -4.562059   -2.048869   -1.751979
 H   -4.244347   -2.242028   -0.005685
 H   -2.932185   -2.498551   -1.180179
 H    1.855790    0.879386    0.874112
 H   -2.965706    0.030346    2.967670
 H   -0.053942    3.542666   -0.533775
 H   -0.363142   -2.022727   -1.819686
 H    3.283635   -1.299014    1.531752
 H    4.839222   -3.287857    0.268833
