104 
2p4j_ligand_dft.xyz
 O    1.916711    0.338558    0.899447
 C    5.133770   -1.201814    0.907473
 C    6.298129   -0.565426    1.322752
 C    7.513616   -0.857539    0.708274
 C    7.555358   -1.785794   -0.326935
 C    6.386425   -2.415386   -0.747271
 C    5.166072   -2.131803   -0.136646
 C    2.594131    3.203343   -0.829779
 C    1.752850   -2.171267   -1.576405
 C   -2.853550   -0.126315   -1.413797
 C    1.334353    0.232400   -2.216497
 C   -1.389685   -0.067204   -1.731418
 C   -2.312914    1.344716    1.854375
 C   -4.562806   -1.159897    0.044454
 C   -4.692045   -0.788237    1.533359
 C   -4.974708   -2.620768   -0.186178
 C   -4.795061   -3.138994   -1.618236
 C   -5.605399   -2.329802   -2.635045
 C    3.899990   -2.843161   -0.571327
 C    3.435030   -3.854992    0.484230
 N    2.873752   -1.852452   -0.880969
 O    1.492955   -3.289652   -1.998846
 C    0.835137   -0.999119   -1.796129
 C    0.468064    1.299308   -2.429094
 C   -0.893803    1.149262   -2.190691
 C   -0.528810   -1.151498   -1.571815
 N    1.008158    2.545140   -2.899936
 C    0.551319    2.981977   -4.226103
 S    1.159806    3.750220   -1.736484
 O    0.018472    3.739507   -0.816081
 O    1.478791    4.978756   -2.442177
 O   -3.659637    0.580129   -2.014161
 N   -3.193970   -0.944265   -0.391692
 C   -5.165603   -4.622743   -1.683036
 C   -4.775611    0.721544    1.816055
 C   -3.686988    1.669302    1.286459
 C   -4.030043    3.123341    1.661860
 O   -3.654994   -1.449259    2.239561
 O   -2.176106    0.704673    2.912146
 N   -1.255000    1.822894    1.179319
 C    0.139603    1.782154    1.617182
 C    0.374867    2.338032    3.043056
 C   -0.262665    3.721782    3.180047
 C    1.876479    2.402718    3.338451
 C    0.799734    0.411744    1.426356
 N    0.117523   -0.641865    1.902320
 C    0.666075   -1.990281    1.985715
 C    1.405259   -2.176931    3.311946
 C   -0.445754   -3.017446    1.797018
 H    4.191105   -0.960078    1.395005
 H    6.256561    0.160543    2.129513
 H    8.423312   -0.362580    1.034870
 H    8.498077   -2.017278   -0.813952
 H    6.422793   -3.136203   -1.560328
 H    2.420321    2.217791   -0.385138
 H    3.438531    3.183036   -1.519276
 H    2.762769    3.943512   -0.043952
 H    2.396640    0.365408   -2.394676
 H   -5.187441   -0.491277   -0.553515
 H   -5.651053   -1.202881    1.879270
 H   -6.030781   -2.724857    0.101555
 H   -4.398906   -3.249923    0.505640
 H   -3.731975   -3.044644   -1.878959
 H   -6.672529   -2.342143   -2.376130
 H   -5.502759   -2.760162   -3.637336
 H   -5.276118   -1.287440   -2.687249
 H    4.091547   -3.388130   -1.501185
 H    2.499665   -4.321812    0.164654
 H    3.288716   -3.363598    1.451570
 H    4.193297   -4.633624    0.614744
 H    2.842641   -0.994888   -0.335927
 H   -1.581871    1.974411   -2.343316
 H   -0.906273   -2.129805   -1.290198
 H    0.784690    2.178883   -4.928068
 H   -0.525966    3.184455   -4.258360
 H    1.096496    3.881125   -4.511162
 H   -2.478398   -1.357458    0.191372
 H   -4.994902   -5.027525   -2.686429
 H   -4.574186   -5.214685   -0.975436
 H   -6.225699   -4.769814   -1.440447
 H   -4.853431    0.852716    2.902779
 H   -5.727377    1.069332    1.396480
 H   -3.648619    1.608460    0.193918
 H   -3.291351    3.826589    1.264519
 H   -5.007606    3.394305    1.252062
 H   -4.069067    3.244602    2.750186
 H   -3.190495   -0.778719    2.769136
 H   -1.410015    2.357690    0.333009
 H    0.652063    2.448142    0.926480
 H   -0.096646    1.662023    3.762655
 H   -1.351137    3.678750    3.083826
 H    0.117305    4.405648    2.411091
 H   -0.032547    4.150154    4.160764
 H    2.355101    1.420667    3.285873
 H    2.042532    2.807365    4.341777
 H    2.388389    3.057964    2.622900
 H   -0.723918   -0.429034    2.436149
 H    1.379665   -2.082329    1.166007
 H    0.717550   -2.054440    4.156570
 H    1.845750   -3.177359    3.374706
 H    2.208292   -1.439249    3.409940
 H   -0.896501   -2.931151    0.804425
 H   -0.040038   -4.029007    1.892000
 H   -1.240761   -2.894097    2.540963
