16 
2p7a_ligand_dft.xyz
 C   -0.037826   -1.493488   -0.000117
 C    0.791648   -0.380791   -0.000304
 C    0.271848    0.919813   -0.000369
 C    1.164712    2.130854    0.000078
 C   -1.113629    1.061131   -0.000113
 C   -1.958477   -0.048004   -0.000193
 C   -1.418627   -1.332425   -0.000102
Cl    2.527664   -0.629568    0.000151
 O   -3.296629    0.190607    0.000329
 H    0.395283   -2.487909    0.000274
 H    1.815428    2.139720    0.880904
 H    1.816521    2.139521   -0.879913
 H    0.572809    3.049663   -0.000363
 H   -1.560058    2.050644    0.000301
 H   -2.065586   -2.206375    0.000428
 H   -3.769552   -0.649998   -0.000103
