16 
2p7a_ligand_ani.xyz
 C   -0.039804   -1.494140   -0.000801
 C    0.793322   -0.384361   -0.000296
 C    0.274890    0.917087   -0.000317
 C    1.169549    2.127756   -0.000332
 C   -1.108644    1.062600   -0.000260
 C   -1.954569   -0.045505   -0.000004
 C   -1.419143   -1.329667   -0.000630
Cl    2.520312   -0.629803    0.000623
 O   -3.294799    0.194318    0.000692
 H    0.393865   -2.489527   -0.001267
 H    1.816386    2.134012    0.882619
 H    1.818974    2.132071   -0.881383
 H    0.579417    3.048033   -0.002196
 H   -1.553158    2.054489   -0.000300
 H   -2.070489   -2.201387   -0.001026
 H   -3.765527   -0.648208    0.003263
