85 
2p83_ligand_ani.xyz
 N   -0.432093    1.033495    1.355065
 C    0.772301   -0.936112    0.599736
 C    1.975206   -0.563937    1.205189
 C    4.422173   -0.701790    1.506833
 C    1.841192   -3.862546   -1.526593
 C   -0.524156   -0.238959    0.863327
 C    5.628640   -0.542384   -0.690494
 C    6.446728   -1.656337   -1.340136
 C   -1.509709    2.037661    1.345592
 C   -2.103757    2.263417   -0.055244
 C   -5.403560   -1.419040    1.111752
 C   -4.719110   -2.060794    0.071802
 C   -5.318014   -2.180722   -1.173266
 C   -7.258733   -1.003217   -0.391799
 C    0.554532    2.508819   -2.746043
 C   -1.081636    2.820733   -1.020279
 C    3.163213   -1.197571    0.849296
 C    3.128142   -2.270956   -0.038569
 C    1.917998   -2.697193   -0.592311
 C    0.749690   -2.006988   -0.295245
 O    4.396203   -0.344445    2.678232
 N    5.574889   -0.643011    0.763359
 C    6.772534   -0.212101    1.483972
 C    6.868850    1.302508    1.687466
 C    8.187070    1.709122    2.340796
 C    6.464256   -1.538154   -2.861214
 O   -1.601073   -0.788270    0.634249
 C   -2.582603    1.825619    2.456898
 C   -3.825782    0.990410    2.104926
 N   -3.567299   -0.426748    2.438044
 C   -4.771089   -1.273882    2.484526
 C   -6.585578   -1.656506   -1.419499
 C   -6.661747   -0.888116    0.868063
 O   -8.494931   -0.446656   -0.512236
 C   -0.428737    1.981888   -1.924297
 C   -0.740072    4.173530   -0.966962
 C    0.243256    4.655301   -1.815225
 C    0.915182    3.846096   -2.717355
 O   -2.001134    1.281585    3.633531
 C   -9.128025   -0.537744   -1.769764
 N    2.850453   -4.781880   -1.384825
 O    0.961423   -3.984065   -2.359754
 F    0.566122    5.958869   -1.759189
 F    1.184698    1.693124   -3.608863
 H    0.492888    1.434880    1.284799
 H    2.021562    0.194617    1.982338
 H    6.081857    0.423591   -0.964231
 H    4.612807   -0.525189   -1.093555
 H    7.472462   -1.618547   -0.955352
 H    6.047659   -2.634327   -1.047336
 H   -0.996018    2.960565    1.641130
 H   -2.939100    2.968293    0.035923
 H   -2.495990    1.317593   -0.435518
 H   -3.720410   -2.464155    0.229827
 H   -4.788163   -2.685492   -1.978883
 H    4.057389   -2.761071   -0.314146
 H   -0.183504   -2.308495   -0.760359
 H    6.766214   -0.718447    2.453658
 H    7.646835   -0.567208    0.924551
 H    6.024433    1.627891    2.303630
 H    6.770372    1.803221    0.715196
 H    8.305505    1.232438    3.320672
 H    8.233857    2.792550    2.489042
 H    9.044635    1.419257    1.722042
 H    7.076459   -2.324390   -3.313913
 H    6.875838   -0.572458   -3.175980
 H    5.452564   -1.621169   -3.275069
 H   -2.938905    2.833660    2.715890
 H   -4.119233    1.085469    1.057409
 H   -4.670296    1.350390    2.703756
 H   -2.918654   -0.797871    1.719922
 H   -3.061845   -0.383286    3.338955
 H   -5.498090   -0.827253    3.172385
 H   -4.495078   -2.248853    2.893820
 H   -7.029108   -1.761737   -2.404429
 H   -7.209491   -0.368713    1.650334
 H   -0.670329    0.925486   -1.994890
 H   -1.224538    4.856303   -0.273370
 H    1.685713    4.241783   -3.369178
 H   -1.120798    0.957060    3.383283
 H  -10.090340   -0.035385   -1.660755
 H   -8.542641   -0.036557   -2.551986
 H   -9.294364   -1.583184   -2.061486
 H    2.724498   -5.641336   -1.899944
 H    3.338477   -4.846398   -0.504666
