85 
2p83_ligand_xtb.xyz
 N   -0.836228   -0.349997    2.122147
 C    0.785568   -1.569878    0.855759
 C    1.798943   -0.624888    0.998509
 C    4.132415    0.138348    0.867390
 C    2.651218   -4.563101   -0.441877
 C   -0.623383   -1.216319    1.116852
 C    4.569622    0.191226   -1.564517
 C    5.686884   -0.689607   -2.135913
 C   -2.019556    0.472265    2.343665
 C   -2.396972    1.232894    1.054820
 C   -4.892838   -1.285895   -0.787752
 C   -3.807294   -1.094008   -1.638800
 C   -3.844811   -0.070362   -2.567415
 C   -6.037197    0.576040   -1.824505
 C    0.749540    2.197141   -0.800777
 C   -1.197323    2.012544    0.581319
 C    3.101215   -0.934877    0.637301
 C    3.411061   -2.220109    0.206165
 C    2.408317   -3.174354    0.075825
 C    1.093195   -2.833671    0.366105
 O    4.281440    0.567566    1.999900
 N    4.815495    0.593317   -0.196272
 C    5.762688    1.674871    0.022791
 C    5.086498    3.046267   -0.034403
 C    6.100236    4.166316    0.154682
 C    5.267938   -1.301198   -3.466243
 O   -1.531992   -1.696790    0.431910
 C   -3.204083   -0.312714    3.013368
 C   -4.329331   -0.790709    2.083567
 N   -3.913855   -1.987852    1.339780
 C   -4.845811   -2.374339    0.252401
 C   -4.944958    0.764354   -2.667965
 C   -5.992834   -0.452395   -0.877994
 O   -7.163050    1.320442   -1.822785
 C   -0.402345    1.516465   -0.443768
 C   -0.834007    3.193979    1.215917
 C    0.315621    3.855070    0.820087
 C    1.137299    3.371248   -0.183488
 O   -2.741435   -1.467861    3.673503
 C   -7.316658    2.333300   -2.794457
 N    3.885838   -5.064117   -0.222326
 O    1.784828   -5.175865   -1.025658
 F    0.650216    4.992615    1.438866
 F    1.526195    1.685184   -1.769472
 H   -0.012225   -0.073946    2.634487
 H    1.590493    0.378408    1.342517
 H    4.469063    1.090765   -2.178822
 H    3.620254   -0.345699   -1.613979
 H    6.591017   -0.096199   -2.278463
 H    5.926937   -1.481844   -1.424208
 H   -1.701373    1.218976    3.078310
 H   -3.219534    1.912297    1.279298
 H   -2.702965    0.543328    0.268863
 H   -2.949203   -1.744675   -1.581415
 H   -3.008868    0.079489   -3.233110
 H    4.431364   -2.457374   -0.052884
 H    0.316924   -3.568216    0.214240
 H    6.204390    1.534296    1.011830
 H    6.547389    1.607520   -0.731607
 H    4.334461    3.092120    0.755830
 H    4.583676    3.163032   -0.998109
 H    6.601217    4.064989    1.113909
 H    5.608002    5.134948    0.125882
 H    6.852006    4.139962   -0.630829
 H    6.073966   -1.902169   -3.878187
 H    5.021812   -0.521200   -4.182378
 H    4.394342   -1.937259   -3.339268
 H   -3.670408    0.382274    3.726715
 H   -4.617797   -0.012157    1.378438
 H   -5.196276   -1.040284    2.701168
 H   -2.916499   -1.805740    0.909934
 H   -3.785819   -2.749273    2.011571
 H   -5.839924   -2.549598    0.669504
 H   -4.475051   -3.300681   -0.189911
 H   -4.946978    1.546686   -3.408854
 H   -6.852453   -0.587151   -0.239916
 H   -0.663767    0.611646   -0.969280
 H   -1.436766    3.614455    2.005394
 H    2.034792    3.892555   -0.471134
 H   -2.197943   -1.233075    4.432345
 H   -8.304641    2.755457   -2.622310
 H   -6.562554    3.117297   -2.678002
 H   -7.269060    1.924332   -3.807237
 H    4.072193   -6.006331   -0.525964
 H    4.557877   -4.614962    0.372916
