50 
2p8s_ligand_xtb.xyz
 C    5.556228   -0.424892    0.907309
 C    4.206067   -0.612941    0.690091
 C    3.465958    0.156575   -0.205250
 C    4.146307    1.148697   -0.904666
 C    5.500932    1.357253   -0.709265
 C    6.213444    0.567072    0.197244
 C    2.005292   -0.119002   -0.501487
 C    1.859934   -1.461303   -1.238906
 C    0.400063   -1.749074   -1.595306
 C   -0.436752   -1.771036   -0.315745
 C   -0.339738   -0.415519    0.400953
 C    1.129120   -0.165137    0.759673
 N   -1.855699   -2.225917   -0.580520
 C   -2.595874   -1.406490   -1.607915
 C   -4.056541   -1.114101   -1.227769
 N   -4.022900   -0.507981    0.073649
 C   -3.258908   -1.091857    1.038577
 C   -2.631285   -2.387518    0.702447
 C   -4.360038    0.697882    0.622471
 N   -3.827069    0.806442    1.806198
 N   -3.133150   -0.298100    2.065439
 F    6.107652    2.317046   -1.391083
 F    3.564617   -1.575229    1.395085
 N    1.264568    1.119629    1.519210
 C   -5.101568    1.745054   -0.152430
 F   -4.287061    2.144358   -1.166241
 F   -5.423948    2.798018    0.555598
 F   -6.186938    1.232856   -0.733171
 F    7.504348    0.761236    0.385849
 H    6.095735   -1.045818    1.604760
 H    3.640435    1.765742   -1.630798
 H    1.639356    0.676393   -1.158963
 H    2.257892   -2.264690   -0.619153
 H    2.451981   -1.428060   -2.152316
 H    0.352479   -2.713284   -2.102140
 H    0.046766   -0.984721   -2.287752
 H   -0.014459   -2.533157    0.349625
 H   -0.933293   -0.416043    1.316712
 H   -0.694431    0.389427   -0.247096
 H    1.477771   -0.963269    1.420909
 H   -1.752387   -3.169159   -0.969291
 H   -2.570770   -1.919300   -2.569615
 H   -2.086911   -0.447847   -1.715392
 H   -4.495067   -0.436902   -1.964298
 H   -4.666596   -2.022592   -1.200340
 H   -1.979280   -2.726865    1.507590
 H   -3.409021   -3.142402    0.551724
 H    0.753264    1.093942    2.413224
 H    0.918036    1.920752    0.972657
 H    2.264363    1.282775    1.717640
