43 
2p93_ligand_xtb.xyz
 C    5.983316    1.823088   -0.252932
 C    4.889773    2.620915   -0.087883
 C    3.728637    1.879521    0.190320
 C    2.440021   -2.868229    0.864473
 C    1.507569   -3.254628   -0.294095
 C   -0.895065   -2.867806   -0.140447
 C   -1.960808   -1.824912   -0.052863
 C   -3.244199   -2.180414   -0.458458
 C   -4.284692   -1.275435   -0.397295
 C   -1.733850   -0.543995    0.443523
 C   -5.301605    1.626396    1.314475
 C   -6.273123    2.563703    1.448611
 C   -6.909799    2.178315   -0.828694
 C    3.938865    0.528645    0.238022
 S    5.607711    0.144101   -0.069577
 C    2.903134   -0.473598    0.525146
 O    1.748345   -0.138587    0.743797
 N    3.314786   -1.759114    0.538263
 N    0.354684   -2.391670   -0.347438
 O   -1.143443   -4.058353   -0.075981
 C   -4.048314    0.005166    0.086699
 C   -2.773406    0.364599    0.509876
 N   -5.105041    0.950711    0.157166
 C   -7.098101    2.843081    0.336151
 C   -5.884336    1.179386   -0.996270
 O   -5.660931    0.571393   -2.026224
Cl    7.576379    2.325241   -0.599858
 H    4.922785    3.691848   -0.162331
 H    2.758551    2.311530    0.355486
 H    3.066232   -3.716680    1.140053
 H    1.826564   -2.580724    1.723673
 H    1.129488   -4.270819   -0.151847
 H    2.057862   -3.206785   -1.240834
 H   -3.408808   -3.183466   -0.821168
 H   -5.273522   -1.552935   -0.723975
 H   -0.757667   -0.243756    0.794679
 H   -4.649165    1.355234    2.132290
 H   -6.412539    3.076087    2.385101
 H   -7.518887    2.366526   -1.698838
 H    4.263779   -1.968579    0.273424
 H    0.535564   -1.401095   -0.257610
 H   -2.592449    1.364427    0.877794
 H   -7.876479    3.586555    0.426098
