50 
2p95_ligand_ani.xyz
 C    3.868616    0.856777    0.267125
 C    3.361252   -1.505012   -0.708794
 C    4.078655   -0.586734    0.015359
 C   -1.703530    0.661659   -0.809215
 C    2.180439    3.339027    1.245483
 C    1.395025    4.652699    1.006802
 C    0.949515    4.621600   -0.482231
 C    1.154994    3.173064   -0.937201
 C   -4.020769    0.962120   -0.183586
 C   -6.121611   -1.768501   -0.929800
 C   -4.220226   -0.414756   -0.274853
 C    2.431933    2.779426   -0.164141
 C   -6.108229   -0.683874    1.264975
 C   -1.920791   -0.712466   -0.927905
 C   -7.394810   -1.315872    1.472439
 C   -0.322324    1.162725   -1.077132
 C   -2.771909    1.493523   -0.460538
 N   -5.508374   -0.973394    0.008704
 C   -3.172461   -1.247929   -0.666121
 C   -7.334056   -2.333633   -0.714682
 C   -7.979272   -2.099647    0.532360
 O   -5.548290    0.033503    2.079929
 N   -0.008045    2.375359   -0.559566
 O    0.497536    0.480559   -1.699519
 N    2.720268    1.368139   -0.233680
 O    4.698081    1.508719    0.896004
 C    3.949201   -2.802210   -0.679849
 S    5.484671   -1.287024    0.733691
 C    5.092789   -2.818530    0.064252
Cl    6.096167   -4.184991    0.350694
 H    2.446013   -1.278977   -1.252518
 H    1.576827    2.620469    1.810147
 H    3.120643    3.474216    1.786031
 H    0.536200    4.722681    1.681771
 H    2.017945    5.532711    1.199034
 H    1.589289    5.278750   -1.081390
 H   -0.081205    4.958337   -0.636705
 H    1.310513    3.069833   -2.015594
 H   -4.835489    1.608488    0.124070
 H   -5.565990   -1.892007   -1.854582
 H    3.269606    3.339787   -0.601463
 H   -1.095796   -1.345430   -1.238138
 H   -7.858187   -1.118820    2.431072
 H   -2.652043    2.574266   -0.417772
 H   -3.343946   -2.318938   -0.739350
 H   -7.791382   -2.953107   -1.476897
 H   -8.948735   -2.550599    0.729894
 H   -0.701535    2.828951    0.013869
 H    2.102869    0.812378   -0.817786
 H    3.554689   -3.679491   -1.180544
