23 
2p99_ligand_ani.xyz
Cl    2.733723    2.063969    0.369696
 C    2.660233    0.342228    0.095747
 C    3.872450   -0.340983    0.138442
 C    3.898152   -1.717962   -0.026294
 C    2.708646   -2.412189   -0.224517
 C    1.505254   -1.725219   -0.262843
 C    1.446248   -0.329035   -0.121426
 C    0.140097    0.334514   -0.212528
 O   -0.935190   -0.454562    0.035984
 C   -0.293225    1.591038   -0.551195
 C   -1.710119    1.566383   -0.480424
 C   -2.057256    0.295773   -0.111228
 C   -3.310514   -0.399163    0.144617
 O   -3.395395   -1.565369    0.499514
 N   -4.483448    0.413720   -0.057765
 N   -5.576171   -0.134499    0.146462
 H    4.789426    0.216124    0.305286
 H    4.845482   -2.247925    0.006358
 H    2.716683   -3.491864   -0.347165
 H    0.582205   -2.276266   -0.411769
 H    0.317897    2.433681   -0.836411
 H   -2.401206    2.372623   -0.674818
 H   -5.421563   -1.121265    0.438724
