23 
2p9a_ligand_dft.xyz
Cl    2.729741   -2.091815    0.306087
 C    2.667090   -0.358923    0.079962
 C    3.880462    0.320448    0.120419
 C    3.910165    1.701551   -0.019279
 C    2.722006    2.404099   -0.195241
 C    1.516699    1.721885   -0.237422
 C    1.456079    0.324597   -0.105456
 C    0.138124   -0.313737   -0.168889
 O   -0.903944    0.510786    0.072916
 C   -0.326201   -1.572436   -0.474285
 C   -1.736221   -1.504548   -0.412170
 C   -2.042997   -0.212051   -0.074224
 C   -3.303975    0.451864    0.132419
 O   -3.475629    1.613263    0.421240
 N   -4.449861   -0.494119   -0.061985
 N   -5.553987    0.029077    0.109100
 H    4.795416   -0.242065    0.268778
 H    4.861019    2.223558    0.013274
 H    2.732537    3.483613   -0.302997
 H    0.590347    2.267255   -0.376732
 H    0.269478   -2.433173   -0.728783
 H   -2.451626   -2.292767   -0.592575
 H   -5.426654    1.040835    0.357514
