23 
2p9a_ligand_ani.xyz
Cl    2.882257   -2.037992    0.098350
 C    2.687298   -0.306252    0.018383
 C    3.864859    0.436428    0.008038
 C    3.813789    1.821459   -0.030247
 C    2.580528    2.464183   -0.054425
 C    1.411994    1.718907   -0.047435
 C    1.427393    0.313342   -0.020211
 C    0.140070   -0.394115   -0.040149
 O   -0.946937    0.416710    0.029317
 C   -0.287784   -1.695400   -0.137159
 C   -1.706432   -1.663036   -0.118891
 C   -2.063494   -0.347319   -0.017122
 C   -3.318172    0.389008    0.036665
 O   -3.401670    1.605749    0.118283
 N   -4.492015   -0.444601   -0.017600
 N   -5.584756    0.139597    0.020960
 H    4.817650   -0.083830    0.031812
 H    4.734959    2.396434   -0.038448
 H    2.525799    3.549213   -0.079226
 H    0.455515    2.230866   -0.065567
 H    0.313775   -2.585987   -0.222437
 H   -2.391903   -2.494988   -0.175080
 H   -5.428195    1.166273    0.087994
