24 
2pax_ligand_ani.xyz
 C    1.689091   -1.637251   -0.003672
 O    2.094543   -2.783555   -0.012149
 C    0.263953   -1.247512   -0.016822
 C   -0.706193   -2.226940   -0.041861
 C   -2.058027   -1.883430   -0.030636
 C   -2.461094   -0.557933    0.010989
 N   -3.813921   -0.222384    0.020693
 C   -1.821422    1.858203   -0.056800
 C   -0.842941    2.829954   -0.054670
 C    0.508321    2.472368   -0.017265
 C    0.870133    1.143704    0.005186
 C    2.310654    0.795804    0.029441
 O    3.215769    1.607426    0.051159
 N    2.583158   -0.569284    0.022763
 C   -0.109383    0.119809   -0.004329
 C   -1.484921    0.485265   -0.012210
 H   -0.395409   -3.265906   -0.063032
 H   -2.810918   -2.670288   -0.042683
 H   -4.430959   -1.006917    0.188144
 H   -4.047977    0.549839    0.630115
 H   -2.866507    2.150020   -0.118213
 H   -1.122235    3.880365   -0.080613
 H    1.293717    3.221092   -0.011065
 H    3.564109   -0.819760    0.036967
