44 
2pbw_ligand_ani.xyz
 O   -2.566792    1.208179   -0.641358
 C   -3.498414    0.560868   -0.204411
 O   -4.755160    1.022372   -0.243239
 C   -3.397966   -0.784080    0.491590
 C   -2.996240   -0.504636    1.956210
 C   -2.423384   -1.682553   -0.219013
 C   -1.121436   -1.380206   -0.309565
 C   -0.117477   -2.226437   -0.935677
 C    1.106012   -1.850909   -1.346364
 C    2.137324   -2.914723   -1.648459
 C    1.569864   -0.414609   -1.554063
 C    0.491241    0.539996   -2.133221
 N    0.130421    1.547698   -1.095635
 C    1.070693    1.404529    0.049669
 C    1.717424    2.723232    0.444117
 O    1.159916    3.776585   -0.193158
 O    2.630013    2.836300    1.222280
 C    2.145858    0.369820   -0.339005
 C    2.681997   -0.438576    0.849562
 C    1.642159   -1.188615    1.647593
 O    0.658927   -0.704460    2.165323
 O    1.925532   -2.499919    1.766825
 H   -4.728021    1.895235   -0.671123
 H   -4.393044   -1.232472    0.470963
 H   -2.973295   -1.435436    2.529346
 H   -2.002170   -0.050599    2.017312
 H   -3.715911    0.172074    2.426020
 H   -2.794366   -2.589125   -0.691070
 H   -0.764667   -0.443988    0.116197
 H   -0.402982   -3.270649   -1.074025
 H    1.678573   -3.908220   -1.691042
 H    2.631310   -2.727942   -2.608845
 H    2.923459   -2.947378   -0.883725
 H    2.375985   -0.498148   -2.291092
 H   -0.397145   -0.010072   -2.448467
 H    0.884117    1.060293   -3.011395
 H    0.227352    2.510532   -1.457731
 H   -0.857432    1.448866   -0.807244
 H    0.517929    1.066963    0.928258
 H    1.630510    4.568119    0.118389
 H    2.996167    0.939050   -0.730746
 H    3.442826   -1.145831    0.513935
 H    3.156072    0.264756    1.544139
 H    1.186364   -2.890993    2.264240
