109 
2pem_ligand_ani.xyz
 N   -1.440305    1.304658   -1.446743
 C   -1.654084    2.767729   -1.521115
 C   -0.286021    3.459398   -1.524606
 O    0.166396    3.940379   -2.558765
 C   -2.590314    3.226531   -0.409238
 N    0.403563    3.474886   -0.345421
 C    1.821646    3.834129   -0.402316
 C    2.590978    2.558136   -0.802733
 O    2.990544    1.718117    0.002431
 C    2.340501    4.593252    0.827542
 C    3.798086    5.002269    0.572286
 C    2.180848    3.862428    2.159287
 C    4.340893    6.045766    1.546966
 N    2.720361    2.420303   -2.152208
 C    3.135400    1.168096   -2.778515
 C    2.067862    0.087785   -2.511885
 O    0.894896    0.303717   -2.806246
 C    4.567478    0.791710   -2.414081
 N    2.478521   -1.074106   -1.944018
 C    1.547594   -2.102705   -1.535699
 C    1.165671   -2.060440   -0.046612
 O    0.548300   -3.001879    0.458921
 C    2.037327   -3.505425   -1.930301
 C    3.396999   -3.851861   -1.367358
 C    4.545320   -3.698026   -2.148013
 C    3.534662   -4.310125   -0.054208
 C    5.804900   -3.997856   -1.634760
 C    4.791540   -4.611028    0.460988
 C    5.929316   -4.456368   -0.327547
 N    1.492506   -0.959646    0.669715
 C    0.873468   -0.752841    1.972592
 C   -0.590380   -0.340203    1.711087
 O   -0.866939    0.807898    1.362730
 C    1.615006    0.311883    2.772502
 C    3.089427    0.000171    3.001991
 C    3.309762   -1.180029    3.915798
 O    2.452044   -1.798280    4.502965
 O    4.617734   -1.475891    4.039637
 N   -1.493113   -1.346749    1.850474
 C   -2.882294   -1.267952    1.433319
 C   -3.015714   -1.465545   -0.093952
 O   -2.065209   -1.415172   -0.868450
 C   -3.584522    0.017320    1.950941
 C   -5.096132   -0.059257    1.957762
 C   -5.754434   -0.894990    2.864572
 C   -5.864470    0.673335    1.048379
 C   -7.142258   -0.991514    2.870354
 C   -7.254113    0.574374    1.046606
 C   -7.897457   -0.255957    1.960429
 N   -4.276146   -1.736312   -0.525133
 C   -4.612021   -1.798216   -1.929621
 C   -4.678512   -0.391877   -2.529324
 O   -5.360301   -0.356350   -3.681489
 C   -5.888643   -2.604826   -2.147733
 O   -4.144197    0.593728   -2.065178
 H   -1.181193    1.015343   -0.492011
 H   -2.322574    0.829633   -1.683199
 H   -0.707128    0.984157   -2.103411
 H   -2.091754    3.006702   -2.495693
 H   -3.564172    2.745165   -0.544507
 H   -2.726593    4.310227   -0.437324
 H   -2.203470    2.945202    0.573701
 H    0.115969    2.809654    0.369640
 H    1.898388    4.530763   -1.241632
 H    1.723739    5.503472    0.865965
 H    4.423274    4.099969    0.602663
 H    3.872390    5.392737   -0.451339
 H    1.139701    3.571462    2.343253
 H    2.486837    4.500568    2.994146
 H    2.806087    2.964521    2.169849
 H    4.388866    5.662180    2.571651
 H    3.708892    6.941915    1.554529
 H    5.352857    6.353472    1.264422
 H    2.081716    2.986795   -2.701777
 H    3.076312    1.354883   -3.856228
 H    4.905407   -0.081693   -2.983047
 H    5.221348    1.632171   -2.662453
 H    4.663267    0.598241   -1.345032
 H    3.450394   -1.199344   -1.698538
 H    0.613602   -1.892349   -2.070120
 H    1.288153   -4.227593   -1.590222
 H    2.071971   -3.548534   -3.024480
 H    4.447780   -3.331844   -3.169515
 H    2.643859   -4.422290    0.561231
 H    6.687111   -3.872039   -2.256743
 H    4.884001   -4.971669    1.482223
 H    6.910061   -4.693134    0.077015
 H    1.972184   -0.170131    0.240481
 H    0.892188   -1.703786    2.510846
 H    1.529264    1.261546    2.240066
 H    1.119462    0.427352    3.741257
 H    3.589887    0.859775    3.467324
 H    3.616351   -0.182928    2.058859
 H    4.665292   -2.224965    4.656924
 H   -1.080252   -2.266867    1.727239
 H   -3.380877   -2.120393    1.913115
 H   -3.220443    0.169004    2.971276
 H   -3.252766    0.880731    1.366891
 H   -5.168276   -1.477583    3.575257
 H   -5.367832    1.297904    0.310095
 H   -7.633735   -1.645859    3.585879
 H   -7.834819    1.147855    0.328543
 H   -8.981731   -0.331012    1.963166
 H   -5.038544   -1.653413    0.134775
 H   -3.768389   -2.280282   -2.439205
 H   -5.324519    0.562130   -3.997957
 H   -5.763734   -3.605932   -1.725874
 H   -6.112645   -2.694815   -3.212375
 H   -6.744932   -2.122103   -1.661391
