109 
2pem_ligand_dft.xyz
 N   -1.523186    1.504482   -1.093680
 C   -1.653673    2.985096   -0.981123
 C   -0.255735    3.601223   -0.907488
 O    0.147158    4.304263   -1.822763
 C   -2.559425    3.335789    0.192471
 N    0.478148    3.316460    0.202215
 C    1.894126    3.683179    0.203918
 C    2.588175    2.507569   -0.490731
 O    2.880399    1.459428    0.087050
 C    2.439478    4.120311    1.570811
 C    3.904350    4.557089    1.397585
 C    2.276795    3.108955    2.705443
 C    4.508449    5.202192    2.643845
 N    2.728824    2.670227   -1.826837
 C    3.039780    1.541666   -2.692157
 C    1.974753    0.448580   -2.470113
 O    0.779622    0.744754   -2.471519
 C    4.499937    1.108063   -2.563314
 N    2.422254   -0.806018   -2.308895
 C    1.578366   -1.965295   -2.091381
 C    1.031696   -2.082217   -0.664687
 O    0.300691   -3.024033   -0.371241
 C    2.367282   -3.247068   -2.441593
 C    3.707350   -3.274191   -1.740938
 C    4.868958   -2.913404   -2.430087
 C    3.799548   -3.551229   -0.371756
 C    6.092426   -2.814497   -1.769783
 C    5.018802   -3.449902    0.289963
 C    6.166877   -3.074394   -0.405925
 N    1.408341   -1.142792    0.227549
 C    0.874172   -1.184702    1.576812
 C   -0.548271   -0.625174    1.497807
 O   -0.766775    0.596251    1.416200
 C    1.759415   -0.404128    2.536229
 C    3.131772   -1.046579    2.716366
 C    3.070599   -2.354065    3.470186
 O    2.063963   -2.898114    3.860971
 O    4.294913   -2.873616    3.673020
 N   -1.494068   -1.579485    1.484959
 C   -2.905469   -1.414658    1.198753
 C   -3.126594   -1.330327   -0.324429
 O   -2.218674   -1.080896   -1.107941
 C   -3.561222   -0.235039    1.960932
 C   -5.071181   -0.317615    1.960840
 C   -5.725664   -1.329201    2.671072
 C   -5.837372    0.572100    1.203653
 C   -7.110248   -1.458883    2.612976
 C   -7.223024    0.447543    1.145586
 C   -7.862443   -0.573012    1.844995
 N   -4.397996   -1.551061   -0.726173
 C   -4.827785   -1.357608   -2.089571
 C   -4.743618    0.112699   -2.500378
 O   -5.248026    0.303583   -3.715725
 C   -6.241850   -1.916624   -2.265782
 O   -4.264487    1.016512   -1.842919
 H   -1.303449    1.073752   -0.173354
 H   -2.409935    1.083456   -1.403724
 H   -0.767996    1.202441   -1.738361
 H   -2.079254    3.339573   -1.920233
 H   -3.555130    2.911663    0.034061
 H   -2.657743    4.420833    0.274184
 H   -2.158259    2.953092    1.135776
 H    0.189797    2.556882    0.814763
 H    1.960625    4.555286   -0.449860
 H    1.849165    5.010820    1.828195
 H    4.505062    3.682669    1.111943
 H    3.966687    5.267622    0.562803
 H    1.270406    2.677729    2.741372
 H    2.444144    3.596784    3.669603
 H    3.000124    2.295520    2.605811
 H    4.599908    4.487037    3.466951
 H    3.894160    6.040865    2.990588
 H    5.509593    5.587786    2.431046
 H    2.238579    3.454640   -2.239484
 H    2.867800    1.892770   -3.714758
 H    4.752074    0.343682   -3.305256
 H    5.144868    1.970559   -2.746147
 H    4.715769    0.729604   -1.560861
 H    3.418501   -0.956181   -2.211797
 H    0.698528   -1.882405   -2.735832
 H    1.745032   -4.097347   -2.151571
 H    2.506717   -3.285940   -3.526257
 H    4.815712   -2.717676   -3.499386
 H    2.908865   -3.852258    0.174428
 H    6.984999   -2.539222   -2.323330
 H    5.073637   -3.653792    1.354845
 H    7.116556   -2.994629    0.113490
 H    1.980031   -0.345587   -0.038519
 H    0.831984   -2.229410    1.891337
 H    1.885640    0.603676    2.144119
 H    1.253679   -0.331321    3.503647
 H    3.800223   -0.374698    3.265642
 H    3.620146   -1.230943    1.751432
 H    4.169551   -3.697083    4.173081
 H   -1.123336   -2.502228    1.276518
 H   -3.384648   -2.334164    1.552392
 H   -3.177257   -0.267868    2.985931
 H   -3.231852    0.712378    1.531867
 H   -5.146633   -2.019932    3.280509
 H   -5.341682    1.352850    0.634041
 H   -7.602274   -2.249214    3.171119
 H   -7.804164    1.148882    0.554377
 H   -8.942145   -0.673463    1.798815
 H   -5.120194   -1.637152   -0.023293
 H   -4.134989   -1.888229   -2.753586
 H   -5.150501    1.243676   -3.940851
 H   -6.245520   -2.980377   -2.015929
 H   -6.579288   -1.798242   -3.295949
 H   -6.946003   -1.398349   -1.605397
