66 
2ph8_ligand_ani.xyz
 C   -0.098999   -1.208583    2.496913
 C    0.812074   -0.235135    2.896634
 C   -0.679261    1.249564   -3.268498
 C   -1.808558    0.799600   -2.595369
 O   -2.455327   -1.328794    2.027416
 C   -1.478533   -1.329350    3.092519
 C   -2.170010    1.355696   -1.365323
 C   -3.475680    0.964383   -0.702509
 C   -3.499935   -0.292582    0.185887
 C    0.102604    2.259844   -2.722073
 C   -0.231586    2.836660   -1.493860
 C   -1.362300    2.360570   -0.825658
 C    2.422845    2.365497    2.137504
 C    1.936303    2.435911    0.679954
 C    1.180504    3.755231    0.468819
 C    0.590836    3.981484   -0.933301
 C    2.034491   -0.122212    2.237319
 C    2.984477    1.000278    2.573910
 N    2.380017   -0.938496    1.227173
 C    0.256662   -2.038201    1.445019
 C    1.494120   -1.840645    0.826974
 N    1.833057   -2.648080   -0.298568
 S    1.095014   -2.209660   -1.759379
 C    1.884290   -0.674830   -2.188461
 O    1.485064   -3.205892   -2.738849
 O   -0.314632   -1.935779   -1.508962
 C    3.241004   -3.035884   -0.399491
 C    3.080940    2.225366   -0.310930
 C   -2.685527   -0.109102    1.467309
 O   -2.331297    0.930503    1.959631
 C   -4.937349   -0.613091    0.606991
 N   -2.911950   -1.508570   -0.498176
 H    0.560633    0.451666    3.700908
 H   -0.414255    0.809346   -4.227233
 H   -2.415795    0.016937   -3.044042
 H   -1.622636   -2.290396    3.595354
 H   -1.696905   -0.516414    3.787810
 H   -4.229522    0.822128   -1.488187
 H   -3.825540    1.791749   -0.077307
 H    0.985832    2.604719   -3.254077
 H   -1.637646    2.788327    0.136258
 H    3.185154    3.140801    2.300430
 H    1.580840    2.619950    2.796650
 H    1.212625    1.616252    0.521084
 H    0.365559    3.798491    1.205458
 H    1.848568    4.596187    0.705253
 H    1.402234    4.209946   -1.635805
 H   -0.031800    4.887674   -0.897746
 H    3.169350    1.021052    3.656349
 H    3.943905    0.798916    2.086196
 H   -0.395792   -2.824734    1.082597
 H    1.506394   -0.388082   -3.171295
 H    1.628608    0.088952   -1.449192
 H    2.966634   -0.814342   -2.247763
 H    3.902038   -2.161972   -0.345833
 H    3.387067   -3.573352   -1.337514
 H    3.471792   -3.708337    0.431365
 H    3.516726    1.225651   -0.189424
 H    3.877584    2.968466   -0.171740
 H    2.731629    2.299600   -1.347104
 H   -5.364880    0.225489    1.165819
 H   -5.570915   -0.792254   -0.270571
 H   -4.969866   -1.498293    1.248514
 H   -1.953502   -1.332443   -0.874686
 H   -2.840201   -2.247885    0.227601
 H   -3.532946   -1.836333   -1.256639
