43 
2ph9_ligand_ani.xyz
 C    0.509110    1.745710    1.070034
 C   -0.375753    2.676298    1.421369
 C   -1.444134    3.193974    0.484046
 C   -1.106903    2.843225   -0.970663
 C   -0.653501    1.398649   -1.129873
 C    0.565708    0.998324   -0.249274
 O   -1.712695    0.495917   -0.767134
 C   -1.784888   -1.846829   -0.101829
 C   -1.021668   -2.896069    0.398952
 C    0.338360   -2.725744    0.684181
 C    2.449042   -1.338281    0.825129
 N    3.280466   -0.692833   -0.276535
 C    3.161177    0.820284   -0.296111
 C    1.888164    1.281851   -0.991763
 C   -1.113689   -0.637656   -0.312396
 C    0.231453   -0.464484   -0.035929
 C    0.990343   -1.513404    0.474891
 C   -3.764860   -3.120842   -0.218857
 O   -3.102405   -1.886260   -0.397446
 O   -2.732595    2.737500    0.865053
 C    4.694422   -1.122933   -0.204074
 H    1.251826    1.412784    1.792628
 H   -0.398842    3.057761    2.438969
 H   -1.496390    4.283523    0.588460
 H   -0.294974    3.494358   -1.322104
 H   -1.982584    3.037854   -1.598605
 H   -0.399614    1.198088   -2.179838
 H   -1.474110   -3.865323    0.580614
 H    0.894560   -3.572022    1.080882
 H    2.562889   -0.720110    1.721766
 H    2.888913   -2.313981    1.039138
 H    2.866973   -1.028444   -1.171135
 H    4.032761    1.201343   -0.834602
 H    3.230856    1.192657    0.729369
 H    1.852855    0.774496   -1.965345
 H    1.960838    2.357769   -1.189496
 H   -4.798525   -2.952386   -0.521707
 H   -3.738454   -3.440262    0.831056
 H   -3.322497   -3.905117   -0.846844
 H   -2.763713    1.799235    0.624671
 H    5.142917   -0.796365    0.741760
 H    4.764422   -2.211927   -0.267298
 H    5.263897   -0.683786   -1.027373
