56 
2phb_ligand_dft.xyz
 N    0.667625    1.536350    0.748283
 N    5.170761   -1.723361   -0.179266
 C    1.757013    0.668609    0.578459
 C    2.790294    1.101486   -0.259973
 C    3.916726    0.355636   -0.522328
 C   -0.503932    1.258266    1.368267
 C   -5.729867   -3.054786   -0.196447
 C   -5.165104   -0.807295   -0.860472
 C   -4.693451   -3.057502    0.729545
 C    6.476821   -1.184796   -0.012482
 C    7.301081   -3.439689   -0.557648
 C   -1.157552    3.804950    1.492021
 C   -1.597753    2.341862    1.295096
 C   -2.179979    3.659517   -0.667638
 C    0.559052    4.691702   -1.642472
 C    4.038242   -0.891037    0.088854
 C    3.040351   -1.343260    0.944418
 C    1.902542   -0.579053    1.185820
 F    2.658689    2.309341   -0.845324
 O   -0.766593    0.194207    1.924441
 C   -5.964828   -1.938431   -0.987477
 C   -4.119527   -0.796852    0.067862
 C   -3.894254   -1.931498    0.857157
Cl   -6.745206   -4.472161   -0.363937
 N   -3.265836    0.296777    0.285073
 C    4.950797   -3.029977   -0.540545
 C    7.541695   -2.148665   -0.215472
 C    5.966575   -3.905354   -0.736506
 O    6.638826   -0.010536    0.281163
 C   -1.066584    4.390629    0.082902
 N   -2.233071    2.353291   -0.020930
 O    0.228484    4.095005   -0.407153
 C   -3.198523    1.458282   -0.450583
 O   -3.903764    1.722980   -1.413482
 H    0.723632    2.426680    0.248845
 H    4.685053    0.748805   -1.173997
 H   -5.340663    0.061048   -1.479432
 H   -4.510709   -3.931892    1.344472
 H    8.130472   -4.126314   -0.702116
 H   -0.214262    3.908650    2.032735
 H   -1.932922    4.333374    2.053385
 H   -2.314709    2.049885    2.070315
 H   -3.134945    4.190600   -0.561740
 H   -1.985224    3.550881   -1.736686
 H    1.605780    4.455307   -1.831430
 H    0.433323    5.781875   -1.590058
 H   -0.050575    4.301319   -2.466898
 H    3.153822   -2.299237    1.445536
 H    1.128013   -0.939409    1.846785
 H   -6.773858   -1.945988   -1.709928
 H   -3.081927   -1.931465    1.579551
 H   -2.542364    0.127779    0.977277
 H    3.909571   -3.299268   -0.673453
 H    8.544842   -1.764021   -0.073729
 H    5.754067   -4.925255   -1.030170
 H   -1.217118    5.478206    0.071569
