30 
2pix_ligand_ani.xyz
 C    3.195635   -0.368043    0.005908
 O    2.187727   -2.411057    0.774504
 C    4.419248    0.292931   -0.159872
 C    4.481693    1.617129   -0.566849
 O    4.283292   -2.539126    0.125897
 C    3.298175    2.301609   -0.827774
 C    2.070995    1.688198   -0.617547
 C    1.997646    0.376386   -0.130562
 C    3.158216   -1.827941    0.334130
 N    0.783451   -0.210374    0.172653
 C   -0.461514    0.397717    0.351487
 C   -1.583999   -0.315877   -0.072931
 C   -2.856120    0.219980    0.086535
 C   -3.035435    1.457764    0.697433
 C   -1.919797    2.148811    1.155715
 C   -0.639234    1.630183    0.989254
 C   -4.039041   -0.584236   -0.374520
 F   -3.832568   -1.104351   -1.599602
 F   -5.163830    0.150012   -0.429849
 F   -4.282356   -1.623541    0.447894
 H    5.352988   -0.223235    0.063250
 H    5.444001    2.101430   -0.707501
 H    4.923083   -2.031949   -0.390303
 H    3.323924    3.328221   -1.182167
 H    1.157450    2.232169   -0.837621
 H    0.845481   -1.206543    0.372211
 H   -1.456055   -1.289810   -0.538861
 H   -4.033253    1.869822    0.810575
 H   -2.040743    3.111246    1.642797
 H    0.220789    2.175987    1.367421
