101 
2pk5_ligand_ani.xyz
 O    5.064151   -2.366077    1.665856
 C    4.491894   -1.769761    0.765112
 N    4.261405   -0.431567    0.794131
 C    4.411453    0.299369    2.027586
 C    4.266864    1.791075    1.830676
 C    4.725228    2.557951    0.767420
 C    4.415057    3.916256    0.738588
 C    3.642123    4.481219    1.758656
 C    3.197143    3.706694    2.828267
 C    3.529355    2.357325    2.870070
 C    3.168037    1.301154    3.892034
 C    3.326902   -0.023255    3.115720
 O    2.074297   -0.303812    2.535064
 C    4.046569   -2.505387   -0.507300
 C    5.123369   -2.505953   -1.619171
 C    6.551863   -2.426370   -1.093400
 C    4.941265   -3.752877   -2.489028
 S    4.743334   -1.006797   -2.593277
 C    2.954840   -1.203723   -2.324172
 N    2.813334   -1.963664   -1.084530
 C    1.683178   -2.061548   -0.332206
 O    1.714110   -2.629722    0.760166
 C    0.391837   -1.379556   -0.806401
 O    0.326734   -1.450141   -2.207954
 C   -0.837551   -1.988198   -0.093099
 C   -1.235210   -3.352600   -0.680502
 C   -2.407858   -3.948909    0.061639
 C   -2.243481   -4.504137    1.333682
 C   -3.336490   -4.993734    2.041729
 C   -4.612358   -4.922773    1.489128
 C   -4.790799   -4.371600    0.222387
 C   -3.693003   -3.892271   -0.482752
 N   -1.983236   -1.077713   -0.026473
 C   -2.515692   -0.347862   -1.016921
 O   -2.103361   -0.305599   -2.180330
 C   -3.735657    0.493876   -0.600911
 C   -5.018365   -0.358869   -0.494527
 S   -5.394787   -0.811536    1.201508
 O   -6.452133   -1.816314    1.175670
 C   -6.087452    0.675148    1.912675
 O   -4.124585   -1.092160    1.881155
 N   -3.876659    1.559605   -1.559772
 C   -4.444241    2.730213   -1.171430
 O   -5.144736    2.820289   -0.172887
 C   -4.116207    3.937738   -2.057310
 O   -2.724405    4.027850   -2.349632
 C   -1.875027    4.177545   -1.277603
 C   -0.678348    3.397878   -1.324370
 C   -0.352985    2.535888   -2.405072
 C    0.218142    3.465196   -0.243576
 C    1.353462    2.612113   -0.277851
 N    1.649980    1.805590   -1.278651
 C    0.798954    1.791974   -2.333273
 C   -0.034896    4.352966    0.833491
 C   -1.167658    5.123642    0.828504
 C   -2.106880    5.033101   -0.225895
 H    3.659125   -0.027150    0.087496
 H    5.391644    0.049119    2.449944
 H    5.300135    2.099684   -0.034504
 H    4.756534    4.535280   -0.087140
 H    3.384171    5.536715    1.712432
 H    2.600909    4.157661    3.618514
 H    3.854737    1.334800    4.747400
 H    2.145313    1.397740    4.264602
 H    3.671948   -0.852536    3.754470
 H    2.099841   -1.184998    2.126235
 H    3.862401   -3.528164   -0.168057
 H    7.258862   -2.465523   -1.926679
 H    6.747281   -3.268838   -0.421440
 H    6.729491   -1.503460   -0.535376
 H    5.171737   -4.646540   -1.898271
 H    5.611712   -3.724468   -3.352486
 H    3.911406   -3.834954   -2.853529
 H    2.477394   -1.721974   -3.159737
 H    2.513695   -0.208562   -2.214282
 H    0.465645   -0.328430   -0.480558
 H   -0.517581   -1.012923   -2.448828
 H   -0.545897   -2.137828    0.948907
 H   -0.366229   -4.017769   -0.616483
 H   -1.479305   -3.231506   -1.740705
 H   -1.247107   -4.550643    1.773090
 H   -3.193107   -5.423894    3.029948
 H   -5.469863   -5.288255    2.049705
 H   -5.789177   -4.294212   -0.202862
 H   -3.830512   -3.467783   -1.476112
 H   -2.553529   -1.157406    0.813446
 H   -3.549895    0.932263    0.389469
 H   -4.942346   -1.314610   -1.023158
 H   -5.877042    0.190969   -0.886634
 H   -6.107785    0.524865    2.994454
 H   -7.105307    0.787592    1.533724
 H   -5.484750    1.543762    1.640731
 H   -3.220659    1.532149   -2.331179
 H   -4.492870    4.835737   -1.558272
 H   -4.602871    3.852321   -3.032523
 H   -0.995300    2.488175   -3.275111
 H    2.010379    2.613174    0.586105
 H    1.074625    1.128616   -3.150801
 H    0.690424    4.394507    1.642192
 H   -1.371738    5.808220    1.647652
 H   -3.001889    5.648508   -0.200848
