99 
2pk6_ligand_ani.xyz
 C   -2.547943    1.706990   -1.989007
 C   -0.512522    2.186126   -0.708316
 C    0.188827    0.816276   -0.527103
 C    0.440849   -1.455927   -1.425424
 C    1.830269   -1.460486   -2.114552
 C    2.630319   -2.724902   -1.764600
 C   -0.521974   -2.449200   -2.090119
 C   -1.810488   -2.624585   -1.317472
 C   -1.857638   -3.479329   -0.213740
 C   -4.185290   -2.966925    0.127946
 C   -4.147461   -2.098418   -0.960750
 C    4.377096   -3.761861   -0.448592
 C    3.302081   -1.809400    0.486888
 C    2.255327   -3.206689    2.292829
 C    4.169811   -1.683837    2.891812
 C   -0.140066    3.194562    0.382725
 C   -4.067891    1.680068   -1.921767
 C   -0.364107    1.723479    2.767580
 C   -7.156514   -0.236045    1.209991
 C   -5.897195    0.328416    0.923882
 C   -7.311922   -0.890948    2.464536
 C   -5.164053   -0.463915    3.076289
 C   -4.882214    0.195061    1.905362
 C    4.730493    1.616151   -0.360854
 O    5.543472   -1.058009   -0.066393
 C    4.369437   -0.756397    0.156973
 N    3.912165    0.512440    0.119488
 C    3.876822    2.843064   -0.591160
 C    2.997959    3.082711   -1.639651
 C    2.310984    4.293111   -1.675904
 C    2.488844    5.233242   -0.658193
 C    3.356664    4.981167    0.402736
 C    4.055959    3.779183    0.432142
 C    5.041535    3.256410    1.452837
 C    5.761573    2.123287    0.701222
 O    6.249046    1.141199    1.576920
 C    3.566884   -2.576812    1.810690
 S    4.725755   -3.917515    1.333699
 N    3.278709   -2.809265   -0.564659
 O    2.668318   -3.649134   -2.572753
 O    1.715076   -1.366552   -3.512622
 C   -3.035676   -3.654119    0.503302
 C   -2.965789   -1.926700   -1.674967
 N   -0.120412   -0.113569   -1.453672
 O    0.988069    0.612050    0.387494
 S   -1.098504    3.138091    1.919079
 N   -1.950234    2.066527   -0.841519
 O   -1.939752    1.420149   -3.019658
 O   -4.458294    1.472364   -0.571198
 C   -5.703264    0.965246   -0.346148
 C   -6.733446    1.032374   -1.257617
 C   -7.991922    0.479333   -0.939001
 C   -8.209822   -0.145977    0.259646
 N   -6.366626   -1.007177    3.368646
 H   -0.146984    2.573245   -1.671313
 H    0.557321   -1.725660   -0.370967
 H    2.364223   -0.576903   -1.749269
 H   -0.729879   -2.110179   -3.113133
 H   -0.010696   -3.415898   -2.182608
 H   -0.957835   -4.017106    0.086263
 H   -5.107961   -3.105277    0.687830
 H   -5.041345   -1.545811   -1.244704
 H    5.267917   -3.388022   -0.965453
 H    4.066832   -4.717136   -0.877463
 H    2.336233   -1.308509    0.556348
 H    1.538656   -2.419114    2.553502
 H    1.822680   -3.838756    1.511217
 H    2.428661   -3.822411    3.180209
 H    3.449957   -0.902803    3.167960
 H    5.089506   -1.193312    2.559619
 H    4.396856   -2.277214    3.781429
 H    0.920215    3.102691    0.625899
 H   -0.296680    4.202906   -0.011701
 H   -4.466070    2.632779   -2.294970
 H   -4.409303    0.871326   -2.577614
 H   -0.697746    0.778181    2.337202
 H   -0.682147    1.776276    3.811586
 H    0.725110    1.772547    2.719356
 H   -8.280756   -1.330088    2.704474
 H   -4.401210   -0.577073    3.844449
 H   -3.894783    0.601690    1.723670
 H    5.253417    1.292922   -1.272473
 H    2.923320    0.674994    0.297349
 H    2.855468    2.338443   -2.420594
 H    1.630868    4.511404   -2.496295
 H    1.933115    6.167857   -0.686587
 H    3.477395    5.716958    1.194255
 H    5.739485    4.016241    1.817760
 H    4.520328    2.836716    2.322444
 H    6.588577    2.567142    0.121511
 H    6.432839    0.350760    1.037457
 H    1.844150   -2.276024   -3.832611
 H   -3.057609   -4.327393    1.357405
 H   -2.932854   -1.233985   -2.516193
 H   -0.653694    0.173322   -2.270447
 H   -2.532514    2.158433   -0.016497
 H   -6.600949    1.512626   -2.222099
 H   -8.792500    0.548453   -1.671889
 H   -9.175538   -0.580393    0.502247
