125 
2pmc_ligand_ani.xyz
 N    0.160549    0.585593    2.686800
 C    1.067030   -0.578290    2.858952
 C    2.460603   -0.081006    2.411891
 O    2.666970    1.129924    2.387125
 C    0.503274   -1.792687    2.102221
 C    0.949785   -3.135260    2.620561
 O    0.037943   -4.087743    2.384992
 O    2.013897   -3.366620    3.153269
 N    3.408818   -0.990748    2.111651
 C    4.694139   -0.605934    1.558662
 C    4.675288   -0.792989    0.032709
 O    4.314018   -1.848217   -0.482019
 C    5.818667   -1.454331    2.168169
 C    7.248076   -1.060956    1.765047
 C    7.616730    0.356750    2.210135
 C    8.241508   -2.070868    2.343272
 N    5.123624    0.256560   -0.704237
 C    5.011952    0.352755   -2.170425
 C    3.546047    0.612927   -2.570367
 O    3.206354    1.678428   -3.082274
 C    5.629571   -0.829770   -2.932686
 C    7.007859   -1.287252   -2.441989
 C    7.514158   -2.422907   -3.332758
 C    8.025962   -0.149248   -2.382746
 N    2.675317   -0.386454   -2.288846
 C    1.235081   -0.163136   -2.250628
 C    0.881945    0.742095   -1.047453
 O    0.348274    0.267193   -0.046994
 C    0.537911   -1.517150   -2.134710
 C   -0.934380   -1.501959   -1.796232
 O   -1.613473   -0.483325   -2.303925
 O   -1.440413   -2.384071   -1.120449
 N    1.195188    2.055156   -1.171968
 C    1.372978    2.906978   -0.001575
 C    0.080677    3.246372    0.747433
 O    0.108081    3.474134    1.954526
 C    2.057248    4.202965   -0.424274
 O    1.217243    4.837766   -1.370529
 N   -1.049521    3.308932    0.013214
 C   -2.314976    3.640850    0.621168
 C   -2.869168    2.479543    1.485761
 O   -2.364267    1.369716    1.572624
 C   -3.320340    4.169218   -0.414683
 C   -3.978934    3.159713   -1.368132
 C   -5.137796    3.835819   -2.104585
 C   -3.006385    2.539864   -2.372643
 N   -4.016766    2.776282    2.166257
 C   -4.557611    1.881338    3.173723
 C   -4.981182    0.499716    2.671338
 O   -4.955841   -0.464005    3.415525
 N   -5.438676    0.439330    1.383854
 C   -5.601584   -0.837227    0.726294
 C   -4.365117   -1.112578   -0.119617
 O   -3.862067   -2.312192    0.040261
 C   -6.853881   -0.839735   -0.166672
 C   -7.059291   -2.150225   -0.893581
 C   -7.431837   -3.298385   -0.191499
 C   -6.824693   -2.251243   -2.264904
 C   -7.587378   -4.514698   -0.848774
 C   -6.973315   -3.466268   -2.927895
 C   -7.358256   -4.600309   -2.219725
 O   -3.921241   -0.263525   -0.891056
 H    0.713135    1.449134    2.853001
 H   -0.161023    0.619782    1.700717
 H   -0.663435    0.562879    3.301846
 H    1.147365   -0.816591    3.924025
 H   -0.590772   -1.748496    2.121168
 H    0.783687   -1.747907    1.048703
 H    0.408883   -4.918177    2.730063
 H    3.215127   -1.977807    2.233916
 H    4.830225    0.453740    1.798841
 H    5.639320   -2.500303    1.879643
 H    5.722601   -1.397908    3.261727
 H    7.324981   -1.106195    0.666157
 H    8.648839    0.593784    1.928870
 H    6.972108    1.118428    1.756680
 H    7.536452    0.453632    3.300448
 H    8.018290   -3.089946    2.008033
 H    9.267800   -1.833305    2.041941
 H    8.204015   -2.061232    3.439988
 H    5.279283    1.127675   -0.218403
 H    5.539240    1.267869   -2.443526
 H    5.703244   -0.528641   -3.987558
 H    4.951266   -1.687054   -2.902110
 H    6.879549   -1.688399   -1.428613
 H    7.652113   -2.072375   -4.363725
 H    6.804209   -3.257772   -3.354171
 H    8.477056   -2.807392   -2.978118
 H    7.698333    0.657964   -1.719661
 H    8.194790    0.278422   -3.380313
 H    8.989414   -0.515378   -2.010440
 H    3.047351   -1.166241   -1.747705
 H    0.933038    0.348152   -3.169103
 H    0.652565   -2.066123   -3.074929
 H    1.011308   -2.112185   -1.348991
 H   -2.523906   -0.486794   -1.905764
 H    1.734502    2.311099   -1.997686
 H    2.003805    2.408107    0.745173
 H    3.036471    3.959921   -0.868375
 H    2.226696    4.828413    0.463454
 H    1.436835    5.775284   -1.402192
 H   -0.983290    3.109822   -0.974202
 H   -2.111978    4.459978    1.324932
 H   -4.116534    4.695218    0.128169
 H   -2.807619    4.944146   -1.002302
 H   -4.393271    2.332764   -0.774372
 H   -5.642009    3.128746   -2.773099
 H   -5.884831    4.224826   -1.403284
 H   -4.776644    4.674866   -2.713327
 H   -3.554419    1.930668   -3.100082
 H   -2.451412    3.306425   -2.929490
 H   -2.287916    1.872756   -1.883107
 H   -4.340259    3.728795    2.176220
 H   -5.438274    2.368064    3.604165
 H   -3.854156    1.697751    3.993254
 H   -5.245592    1.234506    0.789493
 H   -5.678946   -1.601582    1.503152
 H   -3.015551   -2.395421   -0.479852
 H   -6.758462   -0.019761   -0.888796
 H   -7.710967   -0.609793    0.475648
 H   -7.598159   -3.237911    0.883790
 H   -6.518558   -1.363899   -2.816918
 H   -7.884243   -5.398735   -0.289253
 H   -6.789808   -3.526490   -3.998196
 H   -7.477581   -5.551023   -2.733943
