125 
2pmc_ligand_dft.xyz
 N    0.407254   -0.030136   -2.398268
 C   -0.434047   -1.253918   -2.372427
 C   -1.879871   -0.755552   -2.150515
 O   -2.141617    0.425519   -2.366589
 C    0.182736   -2.195814   -1.326411
 C   -0.230258   -3.637894   -1.449621
 O    0.680142   -4.455642   -0.931920
 O   -1.271023   -4.034884   -1.937179
 N   -2.786335   -1.661674   -1.767762
 C   -4.157080   -1.278430   -1.482116
 C   -4.244221   -0.880017   -0.001007
 O   -3.814881   -1.635701    0.869117
 C   -5.102294   -2.444469   -1.787458
 C   -6.594311   -2.140064   -1.590665
 C   -7.077259   -0.969252   -2.451048
 C   -7.413731   -3.398708   -1.886110
 N   -4.802222    0.324907    0.258199
 C   -4.999373    0.938978    1.581767
 C   -3.653022    1.475467    2.102279
 O   -3.442966    2.674188    2.249893
 C   -5.715066    0.051463    2.612202
 C   -6.984317   -0.649838    2.112304
 C   -7.672722   -1.352977    3.284874
 C   -7.952551    0.295187    1.398341
 N   -2.730749    0.504722    2.323308
 C   -1.293792    0.742519    2.405206
 C   -0.844410    1.197177    1.006774
 O   -0.380281    0.392450    0.197460
 C   -0.647670   -0.586010    2.828259
 C    0.764190   -0.803635    2.349354
 O    1.551878    0.238435    2.491776
 O    1.120101   -1.885039    1.900193
 N   -1.096013    2.485865    0.721838
 C   -1.221782    2.969077   -0.646925
 C    0.119349    3.229078   -1.329591
 O    0.295936    2.906125   -2.504418
 C   -2.091648    4.222509   -0.622139
 O   -1.495574    5.129751    0.283006
 N    1.079193    3.819268   -0.592480
 C    2.423136    3.913448   -1.110414
 C    2.837642    2.522791   -1.604068
 O    2.375685    1.495624   -1.134508
 C    3.432244    4.471122   -0.091117
 C    3.892437    3.533948    1.037858
 C    5.012916    4.216523    1.827284
 C    2.753921    3.113182    1.968140
 N    3.784768    2.488371   -2.589787
 C    3.854694    1.300395   -3.426231
 C    3.896803    0.010625   -2.608924
 O    3.092691   -0.897312   -2.823377
 N    4.904455   -0.083125   -1.721045
 C    5.015853   -1.199417   -0.799165
 C    3.919985   -1.134000    0.264045
 O    3.192418   -2.221360    0.305670
 C    6.395716   -1.176654   -0.124120
 C    6.561688   -2.308122    0.862955
 C    6.898600   -3.588217    0.418460
 C    6.336900   -2.101802    2.224823
 C    7.010683   -4.642392    1.318262
 C    6.448519   -3.155393    3.127492
 C    6.785138   -4.427607    2.675639
 O    3.782318   -0.163545    0.998193
 H   -0.040038    0.737784   -2.918986
 H    0.487822    0.344098   -1.434954
 H    1.364528   -0.234692   -2.740403
 H   -0.382472   -1.711101   -3.366119
 H    1.274372   -2.151499   -1.405570
 H   -0.065296   -1.854774   -0.314749
 H    0.332849   -5.361220   -0.995346
 H   -2.505732   -2.636385   -1.680449
 H   -4.388219   -0.423926   -2.122983
 H   -4.817697   -3.290724   -1.149585
 H   -4.927276   -2.746616   -2.827951
 H   -6.756535   -1.876165   -0.537960
 H   -8.155306   -0.824271   -2.330509
 H   -6.595413   -0.022169   -2.182581
 H   -6.880324   -1.155531   -3.513786
 H   -7.096024   -4.237262   -1.257545
 H   -8.478492   -3.223576   -1.702889
 H   -7.299275   -3.699705   -2.934353
 H   -5.025912    0.903489   -0.537504
 H   -5.606796    1.827378    1.400606
 H   -5.967406    0.711524    3.453052
 H   -5.029757   -0.706409    3.001091
 H   -6.668154   -1.424359    1.403082
 H   -8.033775   -0.623352    4.019710
 H   -6.987820   -2.037045    3.797250
 H   -8.533846   -1.934269    2.940114
 H   -7.524138    0.708184    0.477876
 H   -8.237554    1.131818    2.048475
 H   -8.869702   -0.233495    1.119206
 H   -3.005887   -0.433037    2.026272
 H   -1.094979    1.532740    3.134150
 H   -0.662829   -0.658961    3.920664
 H   -1.222961   -1.428178    2.437953
 H    2.420487    0.075297    2.029656
 H   -1.593909    3.022773    1.427843
 H   -1.709681    2.209081   -1.263916
 H   -3.098709    3.936260   -0.290242
 H   -2.155601    4.633738   -1.638214
 H   -2.128186    5.825972    0.491831
 H    0.882998    4.058916    0.367789
 H    2.406269    4.583628   -1.979581
 H    4.314529    4.789211   -0.660002
 H    3.005098    5.388137    0.337019
 H    4.300722    2.618668    0.587578
 H    5.395163    3.552049    2.608532
 H    5.852772    4.495820    1.181213
 H    4.647319    5.128337    2.314963
 H    3.143366    2.531741    2.809177
 H    2.244498    3.991621    2.388231
 H    2.022957    2.486262    1.452635
 H    4.000756    3.361710   -3.050698
 H    4.754732    1.360734   -4.044942
 H    2.984867    1.230545   -4.088206
 H    5.400950    0.767019   -1.488837
 H    4.880944   -2.124710   -1.362284
 H    2.487365   -2.141281    1.008061
 H    6.514232   -0.213901    0.387922
 H    7.156117   -1.232737   -0.910492
 H    7.080691   -3.759672   -0.640143
 H    6.073162   -1.108938    2.580455
 H    7.278813   -5.631646    0.960198
 H    6.277468   -2.980363    4.185219
 H    6.876418   -5.248651    3.379914
