43 
2pmn_ligand_xtb.xyz
 N   -5.425959   -3.708940    0.053710
 C   -4.771849   -2.766423    0.034312
 C   -3.962737   -1.610900    0.010322
 C   -4.515921   -0.357647    0.284691
 C   -3.720713    0.765434    0.262106
 C   -2.354230    0.674517   -0.033388
 C   -1.812075   -0.585768   -0.307450
 C   -2.602341   -1.713602   -0.286773
 C   -1.547982    1.871781   -0.062150
 C   -1.947658    3.210276   -0.078152
 N   -0.907483    4.042132   -0.118224
 C    0.170261    3.266518   -0.124205
 C    1.535971    3.589884   -0.146698
 C    2.434595    2.568635   -0.133685
 C    1.961761    1.218775   -0.094213
 N    0.680420    0.916239   -0.070237
 N   -0.183342    1.929005   -0.096802
 N    2.859325    0.205100   -0.144018
 C    2.503848   -1.171236    0.128362
 C    2.506614   -1.396395    1.648973
 O    3.812923   -1.157806    2.132782
 C    3.476148   -2.094291   -0.624742
 C    3.419077   -1.789332   -2.120629
 C    3.157667   -3.568458   -0.386737
 H   -5.568243   -0.279486    0.515924
 H   -4.155259    1.727424    0.483373
 H   -0.762558   -0.664874   -0.538070
 H   -2.177622   -2.683526   -0.502231
 H   -2.947023    3.598513   -0.077906
 H    1.826815    4.627029   -0.169887
 H    3.497664    2.748708   -0.150590
 H    3.811011    0.436876    0.100058
 H    1.485764   -1.323990   -0.238354
 H    1.793536   -0.691871    2.101020
 H    2.177214   -2.414959    1.882997
 H    3.829784   -1.314556    3.081492
 H    4.484822   -1.887740   -0.253434
 H    3.622613   -0.739439   -2.312401
 H    4.153444   -2.386927   -2.654748
 H    2.432653   -2.024518   -2.514269
 H    2.114115   -3.775940   -0.613839
 H    3.357560   -3.857673    0.640719
 H    3.776991   -4.185954   -1.032784
