22 
2poq_ligand_ani.xyz
 O    2.784883   -1.540322   -0.224593
 C    1.803052   -0.894730    0.019052
 C    1.528372    0.515836   -0.457548
 O    2.701844    1.284015   -0.494329
 C    0.547687    1.005479    0.597078
 O   -0.302603    2.053232    0.196405
 O    0.802827   -1.315926    0.823095
 C   -0.198304   -0.283298    0.983031
 C   -1.408899   -0.670314    0.143610
 O   -1.077705   -0.591762   -1.226602
 C   -2.650486    0.169236    0.420655
 O   -3.638978   -0.301511   -0.493044
 H    1.032175    0.472866   -1.437979
 H    3.417557    0.664131   -0.704908
 H    1.146527    1.309232    1.467915
 H    0.254325    2.796513   -0.071375
 H   -0.473976   -0.281435    2.044600
 H   -1.641553   -1.713557    0.409630
 H   -1.924143   -0.639531   -1.697616
 H   -2.976731    0.023030    1.462701
 H   -2.423161    1.225472    0.254064
 H   -4.301688    0.388222   -0.609758
