22 
2pou_ligand_ani.xyz
 S    3.141127   -0.542952   -0.129022
 O    3.971464    0.527657   -0.657801
 O    3.143121   -1.880340   -0.700652
 N    3.523151   -0.707383    1.490761
 S   -2.221044   -1.598399    0.008434
 O   -2.809493   -1.556927    1.336233
 O   -3.019628   -1.412465   -1.189997
 N   -1.451007   -3.074655   -0.147840
 C    1.471127    0.034958   -0.099271
 C    0.437769   -0.887960   -0.076988
 C   -0.874100   -0.429013   -0.031272
 C   -1.152306    0.947404    0.001769
 C   -0.083742    1.852794   -0.035050
 C    1.229197    1.401012   -0.089068
Cl   -2.762139    1.534854    0.092470
Cl   -0.356380    3.556683   -0.016290
 H    4.269241   -0.066779    1.740707
 H    3.761549   -1.672078    1.695688
 H   -1.598373   -3.632064    0.686844
 H   -1.788604   -3.549672   -0.978427
 H    0.645345   -1.949615   -0.104919
 H    2.047933    2.111409   -0.128967
