71 
2pqz_ligand_ani.xyz
 O   -3.740475   -2.659319   -0.791983
 S   -2.935517   -1.465197   -1.021086
 N   -1.744718   -1.341990    0.170448
 C   -2.186489   -1.561759    1.554560
 C   -1.554266   -0.550126    2.488195
 C   -1.979893    0.779377    2.431201
 C   -1.406747    1.742870    3.255235
 C   -0.392696    1.393794    4.144540
 C    0.052788    0.076337    4.191390
 C   -0.517836   -0.886650    3.362029
 C   -0.412170   -1.871826   -0.163626
 C   -0.391961   -3.257093   -0.852454
 N    0.731576   -3.188400   -1.822751
 C    0.804903   -1.773868   -2.290202
 C    0.411173   -0.922751   -1.073496
 N    1.572538   -0.276626   -0.412399
 S    2.722837   -1.292691    0.310159
 O    2.427031   -1.447648    1.728972
 C    4.211982   -0.344507    0.140689
 C    4.785441    0.257507    1.255645
 C    5.944182    1.010783    1.093789
 C    6.516904    1.154171   -0.168280
 C    5.935752    0.536683   -1.274186
 C    4.779566   -0.221604   -1.122486
 O    2.871786   -2.487157   -0.520250
 C    1.227881    0.918427    0.374532
 C    0.872907    2.088012   -0.510675
 C    1.729318    2.449280   -1.549377
 C    1.436406    3.538492   -2.364274
 C    0.276108    4.277209   -2.152002
 C   -0.585439    3.918859   -1.120403
 C   -0.290769    2.830803   -0.303214
 O   -2.284606   -1.259092   -2.307556
 C   -3.974098   -0.059798   -0.696170
 C   -5.249055   -0.254886   -0.174214
 C   -6.058045    0.849985    0.069417
 C   -5.594963    2.133635   -0.213954
 C   -4.318438    2.310572   -0.743848
 C   -3.498344    1.214314   -0.987425
 H   -1.942701   -2.587685    1.861082
 H   -3.276256   -1.471739    1.590780
 H   -2.757510    1.063848    1.721475
 H   -1.750839    2.773981    3.202207
 H    0.050890    2.147218    4.788218
 H    0.853447   -0.206448    4.870042
 H   -0.131777   -1.904911    3.386144
 H    0.117661   -1.956590    0.793820
 H   -0.230234   -4.064783   -0.133754
 H   -1.329483   -3.453391   -1.378979
 H    1.623306   -3.389726   -1.330405
 H    0.629360   -3.846291   -2.600566
 H    1.809447   -1.543636   -2.637729
 H    0.077221   -1.614737   -3.087461
 H   -0.222334   -0.092351   -1.392463
 H    4.324211    0.127484    2.231141
 H    6.400020    1.489112    1.956067
 H    7.420967    1.745270   -0.289756
 H    6.386537    0.642665   -2.257101
 H    4.330819   -0.725989   -1.975043
 H    0.402520    0.694778    1.065714
 H    2.092683    1.172892    0.995115
 H    2.635417    1.865913   -1.717808
 H    2.115236    3.810588   -3.168941
 H    0.044801    5.126671   -2.788520
 H   -1.492397    4.495016   -0.949874
 H   -0.975046    2.549633    0.495304
 H   -5.594203   -1.265196    0.028981
 H   -7.054198    0.707914    0.479987
 H   -6.231131    2.994567   -0.026326
 H   -3.970904    3.314129   -0.976677
 H   -2.502920    1.345396   -1.406033
