71 
2pqz_ligand_dft.xyz
 O   -3.819271   -2.701514   -0.579105
 S   -2.960947   -1.562774   -0.864159
 N   -1.738441   -1.447566    0.277655
 C   -2.132815   -1.538443    1.700113
 C   -1.472937   -0.443869    2.502792
 C   -1.999132    0.851714    2.476306
 C   -1.358504    1.882905    3.153052
 C   -0.178094    1.633689    3.854402
 C    0.344134    0.346025    3.893505
 C   -0.307927   -0.690436    3.227273
 C   -0.409892   -1.924845   -0.068849
 C   -0.354083   -3.363203   -0.653136
 N    0.673123   -3.296070   -1.745589
 C    0.663927   -1.894587   -2.289828
 C    0.380444   -1.016477   -1.071318
 N    1.558051   -0.337263   -0.507844
 S    2.728583   -1.268225    0.255253
 O    2.405426   -1.510550    1.654793
 C    4.162647   -0.241081    0.156719
 C    4.724396    0.234207    1.337439
 C    5.863297    1.029981    1.257166
 C    6.417037    1.331087    0.016293
 C    5.842933    0.840524   -1.156973
 C    4.706664    0.046000   -1.094393
 O    2.914949   -2.442147   -0.614134
 C    1.223925    0.912291    0.212495
 C    0.745220    1.980667   -0.742860
 C    1.348180    2.157109   -1.990056
 C    0.926982    3.176134   -2.837418
 C   -0.091027    4.040134   -2.439470
 C   -0.688189    3.874483   -1.193682
 C   -0.280823    2.840998   -0.353266
 O   -2.262243   -1.493211   -2.146070
 C   -3.873207   -0.071721   -0.582323
 C   -5.112887   -0.147569    0.044864
 C   -5.797344    1.034720    0.313504
 C   -5.244150    2.258628   -0.052870
 C   -4.006774    2.313207   -0.694917
 C   -3.308484    1.143835   -0.962546
 H   -1.885585   -2.530936    2.095702
 H   -3.219741   -1.444210    1.753527
 H   -2.916083    1.051124    1.927218
 H   -1.782851    2.882511    3.139852
 H    0.322003    2.441984    4.378797
 H    1.256849    0.139913    4.443084
 H    0.107956   -1.693722    3.268714
 H    0.136106   -1.910715    0.876002
 H   -0.034218   -4.109127    0.074948
 H   -1.300434   -3.671617   -1.094638
 H    1.614926   -3.423976   -1.334481
 H    0.514033   -3.998893   -2.469066
 H    1.618278   -1.694425   -2.773032
 H   -0.164746   -1.820638   -2.991546
 H   -0.268183   -0.202971   -1.393224
 H    4.276345   -0.018868    2.292178
 H    6.317779    1.411412    2.165105
 H    7.306283    1.950578   -0.039865
 H    6.286306    1.073286   -2.119158
 H    4.253876   -0.351658   -1.996554
 H    0.478939    0.724272    0.993740
 H    2.131939    1.257770    0.715961
 H    2.151445    1.491002   -2.292947
 H    1.399804    3.303892   -3.806197
 H   -0.412879    4.841085   -3.097391
 H   -1.469108    4.556666   -0.870637
 H   -0.756362    2.702952    0.613921
 H   -5.530706   -1.113712    0.307604
 H   -6.764701    0.996245    0.802716
 H   -5.783006    3.177429    0.155545
 H   -3.584160    3.266778   -0.992144
 H   -2.343406    1.181595   -1.456776
