52 
2psj_ligand_ani.xyz
 O   -1.198928   -3.635901   -0.627934
 C   -1.709452   -2.554566   -0.817271
 C   -3.179513   -2.404820   -1.216378
 C   -3.978547   -1.498607   -0.306026
 C   -4.058908   -1.768892    1.062856
 C   -4.774548   -0.942852    1.917179
 C   -5.428975    0.178533    1.410533
 O   -6.101309    0.966475    2.295509
 C   -5.370782    0.460606    0.046593
 C   -4.645124   -0.375942   -0.797821
 N   -1.047252   -1.343548   -0.696284
 C    0.309123   -1.155657   -0.443829
 C    0.712189   -0.053898    0.351914
 C   -0.283925    0.883293    1.004101
 C   -0.958788    1.822470    0.019268
 C   -2.326494    2.089588    0.093439
 C   -2.929364    2.950866   -0.819453
 C   -2.170953    3.559412   -1.815313
 C   -0.804834    3.309427   -1.885441
 C   -0.202375    2.450307   -0.972105
 N    1.992552    0.198992    0.548008
 C    2.898081   -0.609710   -0.033313
 C    2.471060   -1.713625   -0.770920
 N    1.186463   -1.997145   -0.970827
 C    4.325441   -0.278765    0.169151
 C    4.707918    0.513571    1.257558
 C    6.035814    0.831734    1.479599
 C    7.014198    0.368377    0.599377
 O    8.302329    0.712811    0.862798
 C    6.650982   -0.410392   -0.498449
 C    5.315518   -0.729247   -0.704850
 H   -3.578404   -3.422930   -1.216712
 H   -3.235779   -2.036204   -2.250251
 H   -3.547108   -2.643257    1.462992
 H   -4.838565   -1.145056    2.982096
 H   -6.490297    1.709535    1.816652
 H   -5.885134    1.334757   -0.353525
 H   -4.596385   -0.153143   -1.861199
 H   -1.623286   -0.512718   -0.648269
 H    0.288823    1.460492    1.737987
 H   -1.044417    0.315943    1.556563
 H   -2.930329    1.621977    0.868706
 H   -3.997979    3.149045   -0.753931
 H   -2.639894    4.231157   -2.529226
 H   -0.203385    3.786452   -2.655503
 H    0.870431    2.265047   -1.020911
 H    3.189558   -2.409105   -1.197576
 H    3.938453    0.880473    1.930648
 H    6.335532    1.442588    2.326068
 H    8.875722    0.335218    0.184106
 H    7.408983   -0.770591   -1.192024
 H    5.057931   -1.322139   -1.578352
