37 
2pvh_ligand_dft.xyz
 N    3.855669   -0.649987   -0.094506
 C    4.458847   -1.834446   -0.059834
 C    3.571575   -2.923270    0.019869
 C    2.309757   -2.348528    0.037063
 N    2.539948   -0.984593   -0.035588
 N    1.049221   -2.825885    0.107699
 C    0.106033   -1.900006    0.106621
 N    0.268669   -0.549874    0.032972
 C    1.495724   -0.103831   -0.040298
 N    1.844563    1.194175   -0.121937
 C    1.022888    2.340814   -0.114418
 C   -0.344596    2.307332   -0.397969
 C   -1.072129    3.493322   -0.377927
 C   -0.459013    4.709264   -0.094446
 C    0.907105    4.736195    0.173245
 C    1.645428    3.560366    0.167145
 N   -1.178191   -2.364114    0.173346
 C   -2.394265   -1.656309    0.130310
 C   -2.566625   -0.404007    0.728427
 C   -3.804806    0.225761    0.665754
 C   -4.888468   -0.384319    0.040280
 C   -4.722109   -1.642550   -0.530542
 C   -3.483810   -2.272149   -0.493199
 H    5.539939   -1.867212   -0.093835
 H    3.802523   -3.975402    0.062239
 H    2.849096    1.336088   -0.126643
 H   -0.829977    1.368168   -0.624640
 H   -2.135391    3.456129   -0.596097
 H   -1.037484    5.627564   -0.084515
 H    1.404046    5.675942    0.393916
 H    2.709744    3.584928    0.387726
 H   -1.230118   -3.370197    0.103293
 H   -1.736133    0.072231    1.231764
 H   -3.921536    1.201386    1.128951
 H   -5.852878    0.112357    0.002777
 H   -5.556536   -2.136514   -1.019368
 H   -3.353669   -3.245340   -0.959950
