45 
2pvn_ligand_ani.xyz
 N   -1.937315    2.995579    0.049290
 C   -0.883519    3.780083    0.028051
 C    0.337489    3.070040   -0.108363
 C   -0.046438    1.726875   -0.167042
 N   -1.414197    1.745898   -0.073177
 N    0.619638    0.561636   -0.276966
 C   -0.166766   -0.511818   -0.294230
 N   -1.537625   -0.559503   -0.234414
 C   -2.152328    0.583197   -0.115433
 N   -3.482361    0.792635   -0.023211
 C   -4.546411   -0.129558    0.026270
 C   -5.763677    0.330020    0.540744
 C   -6.864921   -0.513342    0.612155
 C   -6.768786   -1.825905    0.161022
 C   -5.560831   -2.278276   -0.359079
 C   -4.447497   -1.444958   -0.432678
 N    0.377924   -1.765360   -0.390107
 C    1.714628   -2.167692   -0.229243
 C    2.774880   -1.319187   -0.535465
 C    4.076212   -1.700642   -0.224087
 C    4.349514   -2.990089    0.230543
 C    3.289768   -3.865274    0.449732
 C    1.977366   -3.461880    0.232394
 C    1.655466    3.600610   -0.189118
 N    2.721242    4.056939   -0.254715
 N    5.116198   -0.748186   -0.350932
 C    5.177602    0.496281    0.242715
 O    6.149565    1.206720    0.061466
 C    4.021187    0.903594    1.130663
 H   -0.984939    4.854713    0.107537
 H   -3.723451    1.770544    0.100435
 H   -5.838750    1.355908    0.895092
 H   -7.801076   -0.139720    1.019415
 H   -7.626421   -2.490924    0.212692
 H   -5.475842   -3.302614   -0.714287
 H   -3.509866   -1.805124   -0.840753
 H   -0.323032   -2.487195   -0.312028
 H    2.591396   -0.369313   -1.022962
 H    5.374702   -3.290561    0.430841
 H    3.489903   -4.871454    0.808264
 H    1.153439   -4.144039    0.427652
 H    5.985273   -1.023975   -0.790321
 H    4.283212    1.857394    1.592016
 H    3.090445    1.027853    0.570199
 H    3.836331    0.154810    1.906795
