16 
2pvv_ligand_dft.xyz
 N   -2.445095    1.861927    0.045379
 C   -1.778724    0.797828   -0.146523
 C   -0.341132    0.885355   -0.573197
 O    0.403013    0.128180    0.403210
 C   -2.351827   -0.612081   -0.093493
 O   -3.194469   -0.870612    0.921311
 S    1.926916   -0.233628    0.044103
 O    2.039373   -0.519434   -1.356934
 O    2.352579   -1.121039    1.089707
 O    2.641173    1.195097    0.255536
 O   -2.111537   -1.418625   -0.946957
 H   -3.424603    1.658711    0.266839
 H   -0.013760    1.926835   -0.571327
 H   -0.210891    0.433136   -1.560313
 H   -3.135545   -0.180002    1.596629
 H    2.858865    1.290711    1.197164
