16 
2pvv_ligand_ani.xyz
 N   -2.378093    1.865080    0.193605
 C   -1.758963    0.814868   -0.147379
 C   -0.339595    0.880900   -0.623970
 O    0.368587    0.098814    0.367517
 C   -2.357060   -0.583374   -0.137133
 O   -2.928883   -0.951622    1.021472
 S    1.887177   -0.244527    0.076516
 O    2.073114   -0.674947   -1.288897
 O    2.366210   -1.030662    1.176814
 O    2.459200    1.263101    0.195818
 O   -2.339064   -1.293417   -1.100045
 H   -3.330770    1.648395    0.501310
 H   -0.000183    1.915719   -0.606709
 H   -0.211173    0.430251   -1.611422
 H   -2.640709   -0.363791    1.734509
 H    3.375043    1.261788   -0.127721
