79 
2pwr_ligand_ani.xyz
 C    5.911888    0.377604   -1.103532
 O   -6.275139    3.744997    0.079360
 N    8.567234    1.525494   -1.078462
 C   -6.167109    0.131387    0.039941
 O    7.941654    2.733947    0.735763
 N   -8.046604    2.331498   -0.010437
 C    5.811305    0.915512    1.250374
 C    6.455251    1.015822    0.015550
 C   -4.527626    1.687709   -0.802263
 C   -5.798703    1.440834   -0.280835
 C    1.099089    0.642518    0.360579
 C   -6.703572    2.613030   -0.061865
 S    2.696364   -1.498680    0.407579
 C    7.707119    1.837399   -0.054895
 S   -2.908118   -1.993322   -1.016335
 O    2.364373   -1.631762    1.820761
 O   -2.252470   -1.767773   -2.297185
 C    0.677590    1.748317   -0.575423
 C    1.514010    2.111695   -1.629609
 C   -0.531192    2.426218   -0.406623
 C    4.760364   -0.387078   -0.981112
 C   -5.288628   -0.918075   -0.185206
 C    4.660507    0.152306    1.383314
 C   -3.643252    0.647238   -1.039183
 C    0.864512   -2.143203   -2.226278
 N    0.856177   -3.547263   -1.723481
 C    0.406733   -1.284266   -1.037945
 C   -0.381211   -2.252367   -0.117041
 C   -0.281865   -3.649905   -0.773639
 C    4.148279   -0.496774    0.263873
 C   -4.033179   -0.651775   -0.724986
 N    1.521454   -0.559808   -0.376913
 C    1.157585    3.138332   -2.498470
 C   -0.890444    3.450254   -1.278860
 C   -0.048491    3.811046   -2.325838
 N   -1.742557   -1.782863    0.187803
 C   -2.189541   -1.980971    1.573807
 C   -1.635626   -0.899687    2.479367
 C   -0.586931   -1.138608    3.370544
 C   -0.085066   -0.112519    4.168095
 C   -0.613114    1.171420    4.073135
 C   -2.147894    0.396185    2.377298
 C   -1.642524    1.422737    3.168771
 O   -3.642562   -3.230916   -0.780038
 O    2.923936   -2.705461   -0.387051
 H    6.380487    0.496167   -2.076995
 H    9.465255    1.985157   -1.031098
 H    8.559254    0.597252   -1.472684
 H   -7.133984   -0.067660    0.495883
 H   -8.648111    3.142774   -0.002267
 H   -8.403843    1.513984   -0.480818
 H    6.230745    1.450122    2.096326
 H   -4.265262    2.720234   -1.012100
 H    0.284783    0.396972    1.057984
 H    1.944127    0.974328    0.971930
 H    2.453703    1.577273   -1.768119
 H   -1.200223    2.144039    0.404343
 H    4.357647   -0.916322   -1.840828
 H   -5.570147   -1.942363    0.042738
 H    4.158268    0.047449    2.340797
 H   -2.660463    0.838804   -1.464394
 H    0.142514   -2.041783   -3.038283
 H    1.861332   -1.869334   -2.564532
 H    0.805436   -4.229487   -2.485046
 H    1.746723   -3.687765   -1.208225
 H   -0.263416   -0.496881   -1.388975
 H    0.137579   -2.288495    0.849564
 H   -0.096681   -4.433312   -0.034056
 H   -1.198417   -3.901899   -1.313431
 H    1.821278    3.412006   -3.315012
 H   -1.835295    3.971922   -1.141051
 H   -0.331022    4.610697   -3.004948
 H   -1.883269   -2.977176    1.919413
 H   -3.283208   -1.961249    1.594684
 H   -0.136824   -2.128514    3.433311
 H    0.727785   -0.319024    4.859462
 H   -0.222002    1.973916    4.690914
 H   -2.942067    0.605825    1.659330
 H   -2.052482    2.426717    3.077553
