20 
2pyy_ligand_ani.xyz
 N    0.871564    1.747563    0.124413
 C    1.132459    0.431949    0.800030
 C    1.728078   -0.530002   -0.218770
 O    2.348904    0.154602   -1.206298
 C   -0.080482   -0.150512    1.538785
 C   -1.135544   -0.876322    0.701999
 C   -1.949321    0.005113   -0.207006
 O   -2.939583   -0.666393   -0.804889
 O   -1.774618    1.191932   -0.403929
 O    1.715782   -1.732813   -0.164013
 H    1.103027    2.533206    0.749651
 H   -0.132948    1.787439   -0.147639
 H    1.462089    1.787550   -0.721218
 H    1.930736    0.582574    1.531820
 H    2.734539   -0.507058   -1.803575
 H   -0.551013    0.661311    2.104240
 H    0.303345   -0.865851    2.270846
 H   -1.843845   -1.387034    1.364244
 H   -0.669960   -1.656740    0.090310
 H   -3.411947   -0.028323   -1.366759
