34 
2pzi_ligand_ani.xyz
 O   -2.611935   -1.603826   -0.128258
 C   -2.742223   -0.395852   -0.017869
 C   -4.074054    0.266862    0.084662
 C   -5.146641   -0.486320    0.836831
 C   -5.215741   -0.399112   -0.645750
 N   -1.655341    0.456965    0.023579
 C   -0.340124    0.050407   -0.041214
 S    0.143236   -1.619761   -0.129253
 C    1.820080   -1.146505   -0.068796
 C    2.911777   -2.171409   -0.030994
 C    4.283008   -1.524167   -0.237463
 C    4.401467   -0.255719    0.604044
 C    3.383500    0.785639    0.136798
 C    1.991452    0.202701    0.006684
 C    0.742294    0.919637   -0.031364
 C    0.532211    2.382288   -0.045288
 O   -0.557379    2.898065    0.212065
 N    1.608638    3.180419   -0.342070
 H   -4.070643    1.352700    0.148727
 H   -5.843353    0.095873    1.431367
 H   -4.843667   -1.437949    1.263164
 H   -4.955864   -1.292613   -1.205354
 H   -5.962492    0.243505   -1.100724
 H   -1.762529    1.467072    0.137836
 H    2.728602   -2.955822   -0.773887
 H    2.879512   -2.672235    0.948740
 H    4.406489   -1.264140   -1.296978
 H    5.074516   -2.240113    0.010191
 H    5.412534    0.160735    0.536163
 H    4.230439   -0.497563    1.662155
 H    3.704892    1.155602   -0.848914
 H    3.380605    1.649151    0.810497
 H    1.366259    4.149074   -0.493738
 H    2.362323    2.816616   -0.903893
