61 
2q11_ligand_ani.xyz
 C   -1.753500    1.486769   -2.415834
 N   -2.302540    1.356099   -1.079011
 C   -3.427311    0.640537   -0.791369
 O   -3.960251    0.640342    0.316181
 C   -3.997156   -0.270294   -1.879345
 C   -3.176076   -1.566577   -2.093137
 N   -2.187484   -1.831255   -1.054335
 C   -0.793404   -1.893796   -1.470902
 C    0.121481   -1.927352   -0.278745
 C    1.452111   -1.531930   -0.361443
 C    2.300616   -1.621461    0.740510
 C    3.736151   -1.195088    0.721862
 O    4.546746   -1.751446    1.442597
 C    4.177330   -0.082302   -0.184722
 C    3.353374    0.983011   -0.558092
 C    3.842036    1.993444   -1.378831
 C    5.157869    1.950445   -1.831158
 C    5.991135    0.902768   -1.443756
 C    5.506910   -0.099027   -0.613364
 C    1.806471   -2.189143    1.925866
 C    0.480407   -2.553095    2.026797
 C   -0.393556   -2.380618    0.941293
 N   -1.752520   -2.626692    1.131849
 C   -2.564869   -2.282871    0.178452
 N   -3.946872   -2.391473    0.382349
 C   -1.619140    2.093830   -0.005358
 C   -2.447219    3.256663    0.562997
 C   -1.610365    4.068896    1.556825
 C   -1.062249    3.184225    2.682251
 C   -0.276715    1.991038    2.126659
 C   -1.124266    1.189369    1.134290
 H   -2.018326    2.447269   -2.884287
 H   -0.658333    1.431564   -2.362067
 H   -2.099179    0.681929   -3.066495
 H   -4.119500    0.266516   -2.824800
 H   -5.000461   -0.532181   -1.541263
 H   -2.635327   -1.516450   -3.040900
 H   -3.858348   -2.420633   -2.159244
 H   -0.570925   -1.012127   -2.082079
 H   -0.628030   -2.775725   -2.111976
 H    1.844706   -1.145937   -1.301561
 H    2.326581    1.028003   -0.202819
 H    3.190139    2.810905   -1.672209
 H    5.537044    2.736871   -2.477987
 H    7.023145    0.872358   -1.784734
 H    6.147042   -0.911427   -0.280350
 H    2.486038   -2.322169    2.763058
 H    0.071260   -2.956989    2.949174
 H   -4.088574   -2.831097    1.285719
 H   -4.359996   -1.459401    0.420465
 H   -0.727651    2.529154   -0.483352
 H   -3.335728    2.847990    1.057434
 H   -2.793884    3.890632   -0.262064
 H   -2.210742    4.886896    1.973413
 H   -0.771385    4.540390    1.022971
 H   -1.906286    2.802465    3.275816
 H   -0.439361    3.773144    3.366672
 H    0.059026    1.340838    2.943395
 H    0.635360    2.345460    1.619208
 H   -0.551768    0.345721    0.725893
 H   -1.992967    0.763469    1.648316
