68 
2q2y_ligand_ani.xyz
 C    6.195708   -0.365873   -0.493438
 C    5.057926    0.244775    0.007677
 C    3.834060   -0.149554   -0.527887
 C    3.746795   -1.141493   -1.517393
 C    4.911660   -1.721903   -1.997659
 C    6.147002   -1.338798   -1.484611
 N    2.659805    0.452092   -0.092906
 N    2.598386    1.030831    1.085711
 C    1.348043    1.653409    1.104693
 C    0.388716    0.571155    0.429136
 C    1.376995    0.121089   -0.694014
 C    0.087352   -0.569351    1.416792
 C    1.485893    2.984346    0.310949
 C    1.140688    4.277538    1.008281
 O    1.943283    2.930355   -0.808315
 C   -0.914358   -1.503257    1.107970
 C   -1.195518   -2.572776    1.952646
 C   -0.480866   -2.741151    3.132904
 C    0.520917   -1.830876    3.448943
 C    0.814209   -0.764415    2.602411
 O    2.537729   -1.529799   -2.026421
 F    7.391611   -0.002124   -0.000905
 C    1.440315   -1.345897   -1.135432
 C   -0.884483    1.190535   -0.174498
 C   -1.885572    1.753714    0.841860
 C   -3.182201    2.254883    0.200377
 N   -4.023436    1.147181   -0.306536
 C   -4.829684    0.482922    0.790615
 C   -4.969030    1.550757   -1.391076
 C   -5.868335   -0.488285    0.176667
 C   -5.512154    0.278237   -2.077430
 N   -5.450997   -0.882656   -1.178657
 C   -4.238156   -1.566426   -1.192530
 C   -4.176603   -2.785793   -0.306365
 O   -3.257363   -1.144779   -1.791258
 H    5.134322    1.010012    0.773654
 H    4.833294   -2.480684   -2.770696
 H    7.068998   -1.784585   -1.842243
 H    1.025474    1.908451    2.124347
 H    1.216098    0.723129   -1.601534
 H    0.118800    4.241125    1.404591
 H    1.819519    4.422404    1.857893
 H    1.243871    5.117749    0.319140
 H   -1.491557   -1.400684    0.185292
 H   -1.981412   -3.272822    1.679969
 H   -0.700206   -3.571624    3.797952
 H    1.090547   -1.948467    4.368294
 H    1.614027   -0.090198    2.893476
 H    1.561557   -2.005435   -0.266246
 H    0.544378   -1.637798   -1.686601
 H   -0.565665    2.001672   -0.840452
 H   -1.370204    0.449349   -0.827265
 H   -2.136942    0.991308    1.588770
 H   -1.430893    2.587534    1.389013
 H   -3.772378    2.837434    0.921104
 H   -2.954059    2.931105   -0.634532
 H   -3.393021    0.443062   -0.720782
 H   -4.145750   -0.045836    1.463361
 H   -5.331562    1.266051    1.370785
 H   -5.776769    2.150137   -0.950642
 H   -4.444693    2.191239   -2.107179
 H   -5.979238   -1.378166    0.797403
 H   -6.852497   -0.014022    0.100646
 H   -4.912523    0.028019   -2.954384
 H   -6.551757    0.428949   -2.385675
 H   -5.150929   -3.272432   -0.216045
 H   -3.433778   -3.484729   -0.698535
 H   -3.850968   -2.465539    0.692402
