68 
2q2y_ligand_dft.xyz
 C    6.199052   -0.423448   -0.587984
 C    5.104619    0.185922   -0.030599
 C    3.834245   -0.247157   -0.453334
 C    3.673607   -1.283417   -1.395375
 C    4.817628   -1.863578   -1.951538
 C    6.068047   -1.436649   -1.553856
 N    2.675308    0.383278   -0.000766
 N    2.645869    1.256430    0.892209
 C    1.281511    1.751442    0.999203
 C    0.374568    0.618270    0.417195
 C    1.362950    0.032661   -0.623669
 C    0.048189   -0.431103    1.496500
 C    1.315930    3.097497    0.185251
 C    1.360609    4.357555    0.993472
 O    1.358066    3.045292   -1.019115
 C   -0.943139   -1.396460    1.255334
 C   -1.200225   -2.401977    2.181184
 C   -0.485299   -2.466170    3.374103
 C    0.503226   -1.523325    3.622281
 C    0.770927   -0.522948    2.690234
 O    2.470751   -1.737317   -1.791437
 F    7.415014   -0.047783   -0.223025
 C    1.389149   -1.456768   -0.912899
 C   -0.895427    1.145422   -0.280123
 C   -1.859541    1.861666    0.676053
 C   -3.142170    2.327233   -0.009687
 N   -4.001098    1.167457   -0.433305
 C   -4.774832    0.544637    0.710612
 C   -4.927510    1.454568   -1.578958
 C   -5.794822   -0.481805    0.149602
 C   -5.364085    0.088209   -2.151986
 N   -5.289753   -0.958204   -1.133047
 C   -4.122578   -1.719434   -1.066728
 C   -4.167109   -2.950174   -0.201397
 O   -3.105911   -1.368360   -1.661183
 H    5.215074    0.981343    0.696119
 H    4.697274   -2.654290   -2.682953
 H    6.965417   -1.880677   -1.970993
 H    1.082137    1.978838    2.047220
 H    1.326027    0.595041   -1.561881
 H    0.519979    4.405873    1.695137
 H    2.276072    4.362163    1.599023
 H    1.356598    5.227009    0.335389
 H   -1.500967   -1.402403    0.321890
 H   -1.949547   -3.156297    1.962345
 H   -0.689647   -3.249948    4.095593
 H    1.078081   -1.563618    4.541521
 H    1.569436    0.174082    2.922903
 H    1.504765   -2.040429    0.007246
 H    0.480619   -1.769832   -1.428172
 H   -0.605346    1.829797   -1.081310
 H   -1.380732    0.296479   -0.774521
 H   -2.084887    1.235711    1.546374
 H   -1.385222    2.766412    1.073962
 H   -3.747940    2.964150    0.638260
 H   -2.904746    2.889677   -0.916455
 H   -3.366405    0.441880   -0.804852
 H   -4.041291    0.062781    1.361594
 H   -5.258434    1.355745    1.260306
 H   -5.756610    2.050342   -1.189500
 H   -4.389779    2.046014   -2.320836
 H   -5.929812   -1.299665    0.858493
 H   -6.774507   -0.024871   -0.007392
 H   -4.724409   -0.199451   -2.985595
 H   -6.394538    0.151103   -2.510363
 H   -5.147519   -3.429820   -0.223152
 H   -3.404401   -3.645882   -0.554776
 H   -3.930513   -2.690866    0.837500
