17 
2q38_ligand_ani.xyz
 C   15.433854    6.576723   15.634696
 C   14.943917    5.555005   16.443133
 C   15.262289    4.250675   16.092361
 C   16.263632    2.501667   14.780007
 C   16.216871    6.292928   14.512639
 S   14.770048    2.771602   16.945144
 N   15.601642    1.834433   15.808311
 O   16.891669    1.948173   13.909238
 C   16.038284    3.957653   14.981293
 C   16.525882    4.982463   14.176067
 O   13.341642    2.546338   16.834545
 O   15.408269    2.671001   18.243536
 H   15.203417    7.609303   15.880753
 H   14.335553    5.775899   17.314837
 H   16.587623    7.108419   13.897150
 H   15.614691    0.824859   15.879718
 H   17.131717    4.732860   13.310571
