86 
2q63_ligand_dft.xyz
 C   -2.216450    2.952634   -0.309084
 C   -3.655404    2.934229    0.240320
 C   -4.518630    4.000981   -0.450833
 C   -4.455424    3.924080   -1.980258
 C   -3.009215    3.970765   -2.480704
 C   -2.163667    2.865011   -1.843349
 N   -1.992131    0.511255    0.204371
 C   -3.387031    0.434700    0.734710
 C   -4.256845    1.530608    0.106092
 C   -1.382742    1.874521    0.365872
 C   -3.933810   -0.941861    0.323081
 N   -4.908546   -1.431743    1.103353
 C   -5.680942   -2.671990    0.835977
 C   -4.731795   -3.875664    0.849647
 C   -6.702364   -2.791561    1.969214
 C   -6.397010   -2.550866   -0.513739
 O   -3.485094   -1.466665   -0.689750
 C   -1.066101   -0.551483    0.715446
 C   -0.340490   -1.197280   -0.505860
 C    1.154437   -1.447431   -0.220723
 O   -0.548608   -0.429613   -1.665053
 N    1.840347   -0.320156    0.404438
 C    1.330418   -2.690434    0.662935
 C    2.167477    0.806244   -0.281902
 O    1.579671    1.129873   -1.320451
 C    3.312662    1.609167    0.243818
 C    4.200641    2.074358   -0.732736
 C    5.352066    2.745976   -0.353308
 C    5.612373    2.970260    0.993381
 C    4.710767    2.530649    1.959690
 C    3.537135    1.842427    1.608549
 O    4.909394    2.742112    3.285459
 C    2.589789    1.453199    2.718124
 S    3.046933   -2.992660    1.223518
 C    3.911490   -2.828339   -0.334525
 C    4.699971   -1.699782   -0.569151
 C    5.347808   -1.549003   -1.791772
 C    5.207906   -2.518894   -2.780251
 C    4.430334   -3.650051   -2.541844
 C    3.787591   -3.811312   -1.318580
 H   -1.757223    3.907385   -0.020668
 H   -3.608663    3.170653    1.313421
 H   -5.555312    3.918804   -0.103760
 H   -4.159817    4.987658   -0.130994
 H   -5.028283    4.752818   -2.407925
 H   -4.936279    3.003862   -2.337771
 H   -2.569270    4.946457   -2.234202
 H   -2.979399    3.877891   -3.570695
 H   -2.528909    1.891058   -2.199167
 H   -1.120499    2.937742   -2.171381
 H   -2.019755    0.306061   -0.815477
 H   -3.319572    0.557221    1.821827
 H   -4.418523    1.271631   -0.946369
 H   -5.239402    1.494203    0.588431
 H   -0.382753    1.817357   -0.070309
 H   -1.292713    2.047734    1.443546
 H   -5.183079   -0.891886    1.912049
 H   -4.224501   -3.956710    1.816998
 H   -3.982817   -3.788910    0.059362
 H   -5.300522   -4.795947    0.685825
 H   -7.299026   -3.696962    1.832346
 H   -7.390164   -1.938037    1.978250
 H   -6.209002   -2.862410    2.945569
 H   -5.677799   -2.440619   -1.328201
 H   -7.073854   -1.690062   -0.516651
 H   -6.990234   -3.451903   -0.696718
 H   -1.644994   -1.293347    1.265338
 H   -0.359873   -0.077024    1.399737
 H   -0.816248   -2.161690   -0.701316
 H    1.620198   -1.648073   -1.194144
 H    0.214852    0.189317   -1.754362
 H    2.496535   -0.599286    1.127681
 H    0.959180   -3.561187    0.116754
 H    0.749556   -2.605428    1.589313
 H    3.979683    1.890597   -1.777932
 H    6.052328    3.098466   -1.103276
 H    6.515028    3.496075    1.295281
 H    5.721483    3.246074    3.419196
 H    1.571127    1.308135    2.350958
 H    2.575588    2.231706    3.484016
 H    2.908614    0.529722    3.217555
 H    4.809282   -0.940165    0.199443
 H    5.956579   -0.667798   -1.968682
 H    5.709279   -2.397614   -3.735173
 H    4.331383   -4.413909   -3.306548
 H    3.196589   -4.701390   -1.123656
