86 
2q63_ligand_xtb.xyz
 C    2.698388   -3.016678   -0.484106
 C    4.123999   -2.706479   -0.009132
 C    5.150251   -3.497430   -0.827012
 C    4.965279   -3.323293   -2.331913
 C    3.544543   -3.694189   -2.743380
 C    2.532263   -2.830845   -1.995223
 N    1.986175   -0.732626    0.185633
 C    3.328056   -0.412985    0.717115
 C    4.383941   -1.199648   -0.064070
 C    1.694579   -2.179732    0.306659
 C    3.621766    1.091399    0.508371
 N    4.503522    1.595009    1.373648
 C    5.037015    2.970275    1.338336
 C    3.879207    3.957930    1.485980
 C    6.002039    3.099120    2.513187
 C    5.767851    3.191053    0.013946
 O    3.081760    1.689530   -0.399162
 C    0.884836    0.115241    0.696389
 C    0.251860    0.832370   -0.536291
 C   -1.242702    1.159109   -0.343997
 O    0.483435    0.066177   -1.680854
 N   -2.025781    0.085337    0.241894
 C   -1.414557    2.398769    0.536309
 C   -2.056118   -1.212471   -0.109647
 O   -1.211273   -1.723986   -0.847649
 C   -3.184616   -1.994095    0.449237
 C   -3.779088   -2.896810   -0.433647
 C   -4.878624   -3.631741   -0.043164
 C   -5.381887   -3.484468    1.236693
 C   -4.776548   -2.611771    2.131974
 C   -3.661319   -1.850058    1.753397
 O   -5.231542   -2.463992    3.400756
 C   -3.034279   -0.975241    2.798438
 S   -3.174411    2.700311    0.945865
 C   -3.837622    2.870894   -0.706952
 C   -4.781173    1.958130   -1.151278
 C   -5.302781    2.088599   -2.426697
 C   -4.878111    3.118790   -3.249448
 C   -3.938184    4.029464   -2.794609
 C   -3.419201    3.913753   -1.517451
 H    2.486804   -4.066903   -0.258841
 H    4.212329   -3.021960    1.038218
 H    6.157834   -3.194934   -0.537295
 H    5.040435   -4.555457   -0.582036
 H    5.678307   -3.962582   -2.852577
 H    5.177711   -2.294099   -2.626001
 H    3.364132   -4.746620   -2.516893
 H    3.420518   -3.557606   -3.817659
 H    2.675177   -1.789677   -2.290994
 H    1.518551   -3.116636   -2.280007
 H    1.954601   -0.513430   -0.847038
 H    3.343907   -0.680213    1.779682
 H    4.384010   -0.848682   -1.096548
 H    5.368540   -0.983664    0.353873
 H    0.687616   -2.361385   -0.077725
 H    1.726695   -2.443671    1.367708
 H    4.911716    0.989215    2.068724
 H    3.340883    3.780623    2.414653
 H    3.191592    3.857120    0.651461
 H    4.262961    4.973085    1.497344
 H    6.418540    4.101367    2.538197
 H    6.825542    2.394241    2.417653
 H    5.490004    2.921861    3.456853
 H    5.080653    3.071045   -0.818630
 H    6.583503    2.479855   -0.096087
 H    6.178037    4.195474   -0.017823
 H    1.263625    0.848005    1.407187
 H    0.146956   -0.513725    1.194689
 H    0.789885    1.770951   -0.706456
 H   -1.634840    1.386150   -1.348682
 H   -0.152691   -0.700056   -1.645006
 H   -2.815997    0.444365    0.772376
 H   -1.006788    3.277620    0.041228
 H   -0.926634    2.267001    1.501159
 H   -3.370528   -2.997278   -1.426877
 H   -5.344698   -4.319950   -0.730027
 H   -6.243318   -4.056878    1.551961
 H   -5.994254   -3.035806    3.550594
 H   -1.980431   -0.794948    2.602705
 H   -3.137093   -1.458594    3.767404
 H   -3.552675   -0.018243    2.867360
 H   -5.109827    1.160621   -0.501231
 H   -6.040406    1.382623   -2.776081
 H   -5.285043    3.217199   -4.243843
 H   -3.614323    4.839119   -3.430383
 H   -2.701769    4.632833   -1.151182
