73 
2q6b_ligand_ani.xyz
 N   -0.887410   -0.834638    0.463784
 C   -2.004232    1.000866   -0.197527
 C   -0.690828    1.379654    0.156574
 C   -3.169755    1.867772   -0.612236
 C    0.948689    5.299165   -0.119043
 C    0.436389    3.369628    1.186418
 C   -0.582685   -2.203627    0.918199
 C   -3.348113   -1.173402   -0.232540
 C    0.968094    4.650254    1.104036
 C   -5.794826   -1.114319   -0.254071
 C    2.307613   -0.594150   -0.001985
 C    3.745959   -0.668920    0.494072
 C    4.693291   -1.267063   -0.548583
 C    7.097609   -1.648750   -1.251613
 C   -6.820029   -0.225989   -0.594318
 F    1.471613    6.534297   -0.211075
 C   -0.123882    2.739701    0.069826
 C   -0.138631    3.439831   -1.141353
 C    0.404405    4.713470   -1.249315
 C   -0.031812    0.238834    0.587671
 C    1.392638    0.074972    1.032641
 O    3.752528   -1.433449    1.682741
 C    6.160521   -1.082912   -0.185508
 O    6.394739   -1.727664    1.061176
 C    8.543278   -1.424312   -0.894474
 O    9.376990   -1.663545   -1.914964
 O    8.941233   -1.079469    0.199971
 C   -1.587955   -2.699940    1.956956
 C   -0.430268   -3.191186   -0.239166
 C   -4.278807    1.911128    0.449664
 C   -4.543775    0.548142    1.105214
 N   -4.540442   -0.587147    0.174046
 O   -3.337156   -2.275909   -0.764232
 C   -2.108668   -0.361922    0.019757
 C   -8.069813   -0.693946   -0.982709
 C   -8.324563   -2.060163   -1.009739
 C   -7.311467   -2.944772   -0.653533
 C   -6.051981   -2.486534   -0.284833
 H   -3.594208    1.449965   -1.535281
 H   -2.842899    2.886972   -0.846890
 H    0.439658    2.858466    2.147038
 H    0.385796   -2.118107    1.418235
 H    1.401473    5.140721    1.968698
 H    1.959365   -1.607783   -0.230754
 H    2.275468   -0.024447   -0.939927
 H    4.087883    0.361264    0.717261
 H    4.505269   -0.796055   -1.522000
 H    4.474842   -2.338378   -0.647564
 H    6.943871   -2.730999   -1.334942
 H    6.898903   -1.208429   -2.233121
 H   -6.634085    0.842043   -0.555030
 H   -0.565124    2.970025   -2.025532
 H    0.404370    5.253429   -2.189897
 H    1.810237    1.064573    1.249605
 H    1.451210   -0.476070    1.982250
 H    4.684806   -1.641280    1.866926
 H    6.362732   -0.007003   -0.066307
 H    7.308483   -1.519339    1.312331
 H   10.275982   -1.506690   -1.578969
 H   -2.539416   -2.971159    1.492196
 H   -1.766031   -1.936806    2.719962
 H   -1.186226   -3.591851    2.451473
 H   -0.074490   -4.152282    0.150079
 H    0.301797   -2.825710   -0.966236
 H   -1.384866   -3.337156   -0.747543
 H   -5.194304    2.315200    0.000525
 H   -4.005381    2.605077    1.254150
 H   -3.762047    0.356158    1.849797
 H   -5.499382    0.547796    1.636404
 H   -8.848813    0.016338   -1.247275
 H   -9.301820   -2.434136   -1.302865
 H   -7.493895   -4.016750   -0.672063
 H   -5.273762   -3.192547   -0.028296
