73 
2q6b_ligand_dft.xyz
 N   -0.842643   -0.785853    0.504704
 C   -2.061185    0.995246   -0.126277
 C   -0.749472    1.429798    0.175188
 C   -3.231334    1.819296   -0.576535
 C    0.706956    5.423717   -0.125654
 C    0.206964    3.505968    1.207474
 C   -0.416383   -2.145182    0.884089
 C   -3.273105   -1.236923   -0.159415
 C    0.689666    4.807210    1.115540
 C   -5.711332   -1.258387   -0.254240
 C    2.358074   -0.288680   -0.071935
 C    3.761902   -0.506810    0.477825
 C    4.716667   -1.035322   -0.599974
 C    7.103883   -1.565363   -1.254146
 C   -6.685574   -0.453973   -0.847954
 F    1.166313    6.682877   -0.222782
 C   -0.240307    2.813835    0.075937
 C   -0.204565    3.472936   -1.158502
 C    0.262026    4.778588   -1.269018
 C   -0.027142    0.314472    0.576100
 C    1.408181    0.264517    0.999212
 O    3.645354   -1.416180    1.553358
 C    6.176955   -1.020284   -0.163771
 O    6.293678   -1.799049    1.017292
 C    8.550900   -1.530977   -0.833416
 O    9.392858   -1.655743   -1.866263
 O    8.943781   -1.415656    0.310106
 C   -1.340841   -2.747778    1.942044
 C   -0.238747   -3.054326   -0.332916
 C   -4.353192    1.853725    0.472650
 C   -4.571606    0.474214    1.103316
 N   -4.488223   -0.658056    0.169813
 O   -3.203362   -2.348558   -0.670788
 C   -2.101335   -0.371320    0.098057
 C   -7.911698   -0.994132   -1.221813
 C   -8.169067   -2.346326   -1.021137
 C   -7.193913   -3.150833   -0.437644
 C   -5.972274   -2.614090   -0.046876
 H   -3.636789    1.397273   -1.504182
 H   -2.908892    2.839120   -0.806935
 H    0.166485    3.016686    2.176432
 H    0.564069   -2.012080    1.345807
 H    1.039100    5.347061    1.988909
 H    1.991090   -1.249126   -0.450304
 H    2.388975    0.405248   -0.920562
 H    4.152720    0.463036    0.839966
 H    4.621294   -0.425604   -1.507180
 H    4.419898   -2.061308   -0.853141
 H    6.844540   -2.610966   -1.463932
 H    6.991110   -1.012492   -2.192120
 H   -6.476718    0.596238   -1.026715
 H   -0.542382    2.947067   -2.046924
 H    0.292456    5.293188   -2.223279
 H    1.718261    1.286452    1.240081
 H    1.532564   -0.314760    1.919349
 H    4.549916   -1.684186    1.782219
 H    6.466702    0.020896    0.051968
 H    7.217399   -1.721512    1.305134
 H   10.292114   -1.651088   -1.498603
 H   -2.311400   -3.012515    1.517058
 H   -1.487340   -2.047679    2.770837
 H   -0.886631   -3.660650    2.340164
 H    0.194507   -4.007432   -0.011273
 H    0.440155   -2.599707   -1.060818
 H   -1.199775   -3.233759   -0.815894
 H   -5.274290    2.225005    0.008517
 H   -4.098489    2.553455    1.277751
 H   -3.820534    0.315059    1.882028
 H   -5.550885    0.422021    1.585429
 H   -8.660992   -0.355885   -1.680731
 H   -9.122179   -2.772245   -1.319659
 H   -7.385589   -4.207575   -0.276654
 H   -5.214311   -3.241177    0.403770
