73 
2q6b_ligand_xtb.xyz
 N   -0.905770   -0.836075    0.522880
 C   -1.985143    1.001459   -0.160491
 C   -0.674563    1.364332    0.206292
 C   -3.093394    1.868422   -0.654657
 C    0.971564    5.248176   -0.048358
 C    0.386359    3.350993    1.262761
 C   -0.613200   -2.204488    0.913680
 C   -3.317349   -1.127532   -0.285373
 C    0.926857    4.620921    1.182917
 C   -5.738784   -1.068087   -0.258439
 C    2.298094   -0.433016    0.001062
 C    3.704846   -0.683067    0.550922
 C    4.654419   -1.142009   -0.565578
 C    7.046651   -1.499626   -1.293951
 C   -6.767210   -0.211535   -0.640931
 F    1.500915    6.490720   -0.134224
 C   -0.099534    2.708890    0.126207
 C   -0.045017    3.371560   -1.097943
 C    0.489441    4.642783   -1.193892
 C   -0.041409    0.210773    0.641799
 C    1.370506    0.094404    1.102603
 O    3.602290   -1.650636    1.568222
 C    6.118485   -1.138676   -0.116658
 O    6.271889   -2.056361    0.940782
 C    8.493346   -1.420754   -0.884964
 O    9.279127   -0.997651   -1.872559
 O    8.918678   -1.700432    0.208880
 C   -1.663807   -2.722241    1.896033
 C   -0.497234   -3.115449   -0.308036
 C   -4.210486    1.957529    0.392211
 C   -4.478478    0.591211    1.038627
 N   -4.485023   -0.533307    0.119472
 O   -3.303427   -2.153132   -0.946859
 C   -2.108546   -0.358984    0.063229
 C   -8.004319   -0.717744   -0.993190
 C   -8.231646   -2.083005   -0.975540
 C   -7.212094   -2.937946   -0.594721
 C   -5.974921   -2.438786   -0.230451
 H   -3.502140    1.436950   -1.572873
 H   -2.722290    2.868181   -0.881955
 H    0.325847    2.855161    2.220298
 H    0.353558   -2.183016    1.425251
 H    1.305676    5.127621    2.056785
 H    1.913594   -1.375252   -0.388090
 H    2.341766    0.289806   -0.814818
 H    4.093318    0.260535    0.976327
 H    4.547979   -0.480516   -1.425272
 H    4.376983   -2.155614   -0.860070
 H    6.840427   -2.529898   -1.596462
 H    6.878655   -0.844909   -2.147485
 H   -6.599395    0.853541   -0.673259
 H   -0.414414    2.876093   -1.983434
 H    0.539547    5.163086   -2.137642
 H    1.718275    1.084665    1.399669
 H    1.456857   -0.563464    1.968917
 H    4.490860   -2.004955    1.718044
 H    6.381750   -0.125388    0.234571
 H    7.218859   -2.117393    1.144819
 H   10.207967   -0.966309   -1.590495
 H   -2.617016   -2.872731    1.398398
 H   -1.799046   -2.019009    2.716041
 H   -1.339493   -3.674484    2.307314
 H   -0.214742   -4.115973    0.008151
 H    0.258964   -2.740347   -0.993804
 H   -1.447300   -3.160346   -0.832548
 H   -5.112570    2.352041   -0.077491
 H   -3.920672    2.648831    1.186028
 H   -3.699851    0.403955    1.785438
 H   -5.442885    0.608127    1.552354
 H   -8.792110   -0.040485   -1.289615
 H   -9.197041   -2.476624   -1.256340
 H   -7.381358   -4.004300   -0.571787
 H   -5.190280   -3.113735    0.067836
