99 
2q6f_ligand_dft.xyz
 N   -8.072992    0.602074    0.313797
 C   -8.184519   -0.496069   -0.392207
 C   -9.536755   -0.792488   -0.698880
 C  -10.222352    0.222871   -0.114246
 O   -9.354660    1.058444    0.491456
 C   -6.989003   -1.297681   -0.800374
 O   -7.119039   -2.303417   -1.486402
 N   -5.807058   -0.823446   -0.358495
 C   -4.560358   -1.484870   -0.658333
 C   -4.093151   -1.211842   -2.097344
 C   -3.520794   -0.966386    0.334905
 O   -3.702739    0.063695    0.973177
 N   -2.396092   -1.715888    0.414067
 C   -1.165236   -1.184154    0.959123
 C   -0.796772   -1.779056    2.337187
 C   -0.561327   -3.288507    2.262185
 C   -1.870028   -1.436307    3.370683
 C   -0.074310   -1.449899   -0.081834
 O   -0.225115   -2.296111   -0.960449
 N    1.041715   -0.715208    0.062145
 C    2.142498   -0.779268   -0.872820
 C    1.812605   -0.171619   -2.253120
 C    1.361515    1.304266   -2.242126
 C   -0.150209    1.453360   -2.035125
 C    1.771512    1.984179   -3.552027
 C    5.715549    0.397479   -0.277265
 C    6.120027    1.640698   -1.082487
 C    4.987126    2.645296   -1.268471
 C    4.497859    3.246061    0.030870
 O    5.155018    3.333152    1.041711
 O    3.248814    3.717047   -0.114483
 C    2.610437    4.283462    1.043967
 C    1.273344    3.628098    1.260266
 C    6.856309   -0.625866   -0.232274
 C    6.479979   -1.952873    0.437134
 C    7.632527   -2.687928    1.137679
 C    7.210602   -4.165771    1.101022
 N    6.410844   -4.215221   -0.111120
 C    5.953728   -3.013831   -0.537876
 O    5.252871   -2.837455   -1.527019
 C    0.149078    4.055915    0.553073
 C   -1.087921    3.449424    0.750524
 C   -1.216780    2.410003    1.668124
 C   -0.096736    1.978957    2.378771
 C    1.141135    2.581161    2.173714
 C  -11.663549    0.576643   -0.019233
 C    3.306424   -0.030966   -0.222196
 O    3.123980    0.724649    0.729094
 N    4.507629   -0.218402   -0.807952
 H   -9.909077   -1.631794   -1.263833
 H   -5.760109   -0.001030    0.233698
 H   -4.696010   -2.564648   -0.526638
 H   -4.853307   -1.573173   -2.793493
 H   -3.951008   -0.136950   -2.246442
 H   -3.147542   -1.720253   -2.311990
 H   -2.240931   -2.439604   -0.280424
 H   -1.295789   -0.105074    1.074931
 H    0.143368   -1.295560    2.637448
 H   -0.283326   -3.681658    3.245548
 H   -1.475312   -3.802247    1.943351
 H    0.233658   -3.545222    1.554789
 H   -2.820374   -1.915432    3.113241
 H   -2.052083   -0.358136    3.424352
 H   -1.571438   -1.788491    4.363947
 H    1.098311    0.034310    0.745176
 H    2.421773   -1.828922   -1.021729
 H    1.041741   -0.798766   -2.713785
 H    2.713511   -0.279268   -2.869748
 H    1.862368    1.830288   -1.417613
 H   -0.444246    2.505878   -2.107089
 H   -0.702926    0.892662   -2.799702
 H   -0.469258    1.098334   -1.052632
 H    1.484331    3.041305   -3.551298
 H    2.854617    1.929258   -3.713245
 H    1.284249    1.502901   -4.409566
 H    5.478456    0.712815    0.743750
 H    6.470310    1.327973   -2.074510
 H    6.960784    2.124776   -0.573670
 H    5.325411    3.476036   -1.900383
 H    4.140396    2.189413   -1.787249
 H    3.269477    4.151079    1.903477
 H    2.495019    5.353207    0.844735
 H    7.690292   -0.169062    0.312908
 H    7.219582   -0.823204   -1.249739
 H    5.671951   -1.776074    1.162521
 H    7.811298   -2.327382    2.152979
 H    8.555529   -2.556232    0.561364
 H    8.062263   -4.848398    1.037833
 H    6.613992   -4.439074    1.981568
 H    6.094075   -5.068455   -0.546577
 H    0.245520    4.869087   -0.162637
 H   -1.954251    3.785651    0.189074
 H   -2.179372    1.926927    1.812500
 H   -0.191012    1.175354    3.105013
 H    2.016185    2.229983    2.711395
 H  -12.265686   -0.177478   -0.529661
 H  -11.854707    1.550033   -0.481740
 H  -11.981567    0.632381    1.026459
 H    4.624786   -1.020415   -1.426362
