104 
2q7y_ligand_ani.xyz
 C  -14.079200    1.828585    0.596948
 C  -13.909956    0.310651    0.552407
 C  -12.464127   -0.140737    0.323384
 C  -11.505912    0.256831    1.448630
 C  -10.105979   -0.351449    1.318124
 C   -9.337142    0.103235    0.077618
 C   -7.924875   -0.474244    0.009316
 C   -7.155549   -0.035855   -1.236203
 C   -5.767582   -0.673674   -1.372935
 C   -4.799901   -0.393318   -0.214571
 C   -4.551168    1.091829    0.084356
 C   -4.029353    1.917516   -1.099874
 C   -2.738402    1.396994   -1.743289
 C   -1.551816    1.314250   -0.784150
 C   -0.256670    0.895823   -1.478050
 C    0.930691    0.860851   -0.518073
 O    0.709607   -0.093317    0.521256
 C    2.278872    0.618302   -1.217087
 C    2.387763   -0.777302   -1.860900
 O    2.157606   -1.850829   -0.944008
 C    3.285609   -2.366095   -0.289717
 O    3.511757   -3.657077   -0.792681
 C    4.657834   -4.297856   -0.228626
 C    4.798342   -5.617836   -0.978845
 O    4.926050   -5.386297   -2.360763
 C    4.490879   -4.467629    1.278301
 O    5.687250   -5.010295    1.789229
 C    4.191452   -3.119016    1.911053
 O    3.917390   -3.330725    3.278569
 C    3.015776   -2.450780    1.217718
 O    2.861870   -1.173785    1.827588
 N    3.352048    0.859683   -0.266161
 C    4.609934    1.173268   -0.699413
 O    4.843834    1.412790   -1.875848
 C    5.675475    1.183731    0.391993
 C    7.031164    1.707446   -0.080980
 C    7.043918    3.184976   -0.484844
 C    6.668904    4.150134    0.639032
 C    6.825526    5.614132    0.231631
 C    6.463166    6.597213    1.343167
 C    6.633713    8.055261    0.922204
 H  -13.703711    2.292445   -0.323116
 H  -15.132463    2.107577    0.705774
 H  -13.533561    2.270320    1.437817
 H  -14.540807   -0.100060   -0.246094
 H  -14.281756   -0.125975    1.489945
 H  -12.443842   -1.233700    0.210206
 H  -12.108986    0.274178   -0.630391
 H  -11.940161   -0.052328    2.409509
 H  -11.415577    1.351629    1.489729
 H   -9.523354   -0.092866    2.212898
 H  -10.184130   -1.449159    1.309058
 H   -9.283276    1.202251    0.067047
 H   -9.887930   -0.184919   -0.828791
 H   -7.980258   -1.573111    0.030514
 H   -7.372805   -0.180879    0.913738
 H   -7.746528   -0.293112   -2.125935
 H   -7.067014    1.060423   -1.243337
 H   -5.313129   -0.340122   -2.316016
 H   -5.890221   -1.761807   -1.468624
 H   -3.840435   -0.883315   -0.430941
 H   -5.175076   -0.877680    0.696566
 H   -5.481818    1.548071    0.448913
 H   -3.841935    1.168786    0.919217
 H   -4.810214    1.983357   -1.870070
 H   -3.860063    2.948342   -0.758074
 H   -2.474341    2.060145   -2.578864
 H   -2.915852    0.408334   -2.190763
 H   -1.759068    0.602556    0.024400
 H   -1.405345    2.291284   -0.300827
 H   -0.026025    1.590690   -2.297044
 H   -0.392087   -0.097531   -1.930549
 H    1.008737    1.837556   -0.020928
 H    0.729746   -0.961760    0.079215
 H    2.408477    1.350736   -2.019860
 H    3.375582   -0.884778   -2.326169
 H    1.634315   -0.890676   -2.648993
 H    4.173046   -1.738228   -0.479813
 H    5.553896   -3.682563   -0.422520
 H    3.926076   -6.255479   -0.754553
 H    5.696382   -6.142681   -0.642651
 H    4.183612   -4.812730   -2.599272
 H    3.633470   -5.136765    1.466764
 H    5.583148   -5.049426    2.750184
 H    5.079180   -2.471456    1.790686
 H    3.627392   -2.474162    3.624118
 H    2.115430   -3.066287    1.368691
 H    1.958408   -0.850398    1.649216
 H    3.236356    0.454956    0.658017
 H    5.302102    1.771881    1.241825
 H    5.776397    0.154787    0.774668
 H    7.357656    1.106912   -0.936872
 H    7.765745    1.545404    0.719102
 H    6.364661    3.325965   -1.333868
 H    8.052434    3.434884   -0.843118
 H    7.294246    3.948243    1.522322
 H    5.629792    3.978382    0.953713
 H    6.197889    5.814654   -0.649627
 H    7.863170    5.795747   -0.086279
 H    5.424121    6.423772    1.655231
 H    7.087695    6.391157    2.223463
 H    5.998371    8.291525    0.060348
 H    6.367458    8.741355    1.732954
 H    7.671217    8.262729    0.634563
