21 
2q89_ligand_ani.xyz
 O    2.519010    0.258100    0.856550
 C    1.867796   -0.394355    0.072231
 O    2.181768   -1.653024   -0.258471
 C    0.655673    0.112305   -0.699943
 N   -0.366376   -0.920819   -0.748870
 C   -1.407425   -0.783855   -0.021890
 C   -2.449860   -1.868335    0.028889
 N   -1.702275    0.338377    0.735960
 C   -0.615911    1.242589    1.099128
 C    0.191880    1.481305   -0.166415
 O   -0.575750    2.171588   -1.128917
 H    2.975339   -1.874374    0.257216
 H    1.007768    0.273251   -1.727222
 H   -2.153924   -2.685538   -0.630474
 H   -3.422975   -1.479225   -0.290458
 H   -2.560915   -2.255278    1.048844
 H   -2.397435    0.188069    1.454495
 H   -1.041230    2.185735    1.451110
 H    0.029984    0.835243    1.890298
 H    1.077328    2.082569    0.045773
 H   -1.486541    1.855403   -1.034495
