49 
2q8g_ligand_xtb.xyz
 F   -6.369849    1.817703   -1.739572
 C   -6.033939    1.891839   -0.459528
 F   -7.111960    2.341100    0.202895
 F   -5.098954    2.854611   -0.333084
 C   -5.526822    0.572682    0.146102
 O   -5.326711    0.754591    1.527830
 C   -6.568991   -0.526370   -0.067843
 C   -4.215045    0.161605   -0.584025
 O   -4.095339    0.261405   -1.779897
 N   -3.308728   -0.333862    0.288336
 C   -2.046825   -0.853467    0.032096
 C   -1.505138   -0.930973   -1.250062
 C   -0.245438   -1.468843   -1.441943
 C   -1.293175   -1.328369    1.116189
Cl   -1.947650   -1.246869    2.718235
 C   -0.035268   -1.865720    0.923044
 C    0.475522   -1.932417   -0.359335
 S    2.123718   -2.618013   -0.591500
 O    2.354175   -3.595630    0.437208
 O    2.260101   -3.013016   -1.966761
 C    3.189561   -1.204705   -0.287518
 C    3.721437   -1.015358    0.972962
 C    4.528415    0.084232    1.209192
 C    3.438377   -0.317101   -1.316754
 C    4.252209    0.777429   -1.083564
 C    4.805767    0.975677    0.178413
 C    5.613989    2.210961    0.465498
 O    5.127192    3.131953    1.094611
 N    6.873754    2.231170   -0.017705
 C    7.694703    3.402074    0.186346
 C    7.510378    1.142022   -0.712935
 H   -4.993516    1.642271    1.713828
 H   -6.685005   -0.720557   -1.130665
 H   -7.520804   -0.216124    0.356978
 H   -6.237565   -1.429751    0.436507
 H   -3.591167   -0.348876    1.268594
 H   -2.086031   -0.571428   -2.083567
 H    0.178932   -1.555558   -2.429065
 H    0.542657   -2.254927    1.745736
 H    3.511260   -1.740444    1.743175
 H    4.948955    0.255095    2.188520
 H    3.010828   -0.506781   -2.288409
 H    4.459792    1.480447   -1.876362
 H    8.020489    3.806131   -0.774287
 H    8.574304    3.151630    0.783393
 H    7.099384    4.145633    0.712249
 H    7.734567    1.428106   -1.744646
 H    8.450649    0.889453   -0.215894
 H    6.870858    0.263184   -0.720583
