24 
2q92_ligand_xtb.xyz
 O   -4.826200   -0.415250   -0.046850
 C   -3.786445    0.428672   -0.191876
 O   -3.946815    1.565532   -0.534605
 C   -2.464750   -0.152108    0.115590
 O   -1.375044    0.593731   -0.138972
 C   -2.082499   -1.356555    0.669509
 C   -0.681701   -1.330422    0.739899
 C   -0.292692   -0.114753    0.217599
 C    1.005183    0.530314    0.091326
 C    1.066207    1.922914    0.182907
 C    2.276933    2.588139    0.159914
 C    3.465768    1.879295    0.068518
 C    3.430460    0.502257   -0.041339
 C    2.212564   -0.165417   -0.053502
 N    2.257393   -1.586160   -0.303575
 O    1.403047   -2.060864   -1.018981
 O    3.174736   -2.204922    0.189359
 H   -4.557272   -1.308265    0.202930
 H   -2.708168   -2.162163    1.000529
 H   -0.055711   -2.104309    1.133176
 H    0.143010    2.472388    0.281730
 H    2.294455    3.665022    0.225684
 H    4.412493    2.395757    0.070129
 H    4.337484   -0.075133   -0.140041
