40 
2q9m_ligand_ani.xyz
 C   -4.124484    1.372289    0.833061
 C   -3.600890    0.909861   -0.526037
 C   -2.594500   -0.257787   -0.461321
 C   -3.249835   -1.466969    0.182273
 O   -2.712885   -2.210004    0.971072
 C   -1.281105    0.098803    0.268126
 N   -0.684453    1.352793   -0.172441
 C    0.690155    1.263984   -0.139717
 C    1.556198    2.453943   -0.298890
 O    2.766287    2.453847   -0.318259
 O    0.825100    3.587440   -0.412553
 C    1.089754   -0.017934    0.003294
 C   -0.100636   -0.910926    0.121035
 C   -0.128292   -1.892685   -1.068171
 C    1.200626   -2.651020   -1.135677
 C    2.388906   -1.691463   -1.272724
 C    2.432318   -0.671237   -0.132324
 O    2.790983   -1.389638    1.044644
 C    3.075960   -0.539519    2.131981
 H   -4.826967    2.203522    0.716860
 H   -4.645501    0.561113    1.353870
 H   -3.314865    1.715684    1.486567
 H   -4.446493    0.586505   -1.145435
 H   -3.139605    1.747636   -1.059910
 H   -2.356791   -0.532691   -1.499643
 H   -4.309949   -1.643884   -0.109018
 H   -1.530194    0.144670    1.346533
 H   -1.143766    2.231893    0.001783
 H    1.462795    4.315973   -0.506261
 H   -0.049289   -1.535429    1.025038
 H   -0.271780   -1.335737   -2.004220
 H   -0.965574   -2.590320   -0.960622
 H    1.194953   -3.351607   -1.978395
 H    1.327210   -3.247234   -0.222572
 H    3.336954   -2.239237   -1.287486
 H    2.308384   -1.144270   -2.221983
 H    3.204752    0.085009   -0.332083
 H    3.866748    0.185991    1.881123
 H    2.185103    0.015569    2.460703
 H    3.424101   -1.171919    2.953546
