40 
2q9m_ligand_dft.xyz
 C   -4.030004    1.316715    0.905097
 C   -3.618857    0.844575   -0.490720
 C   -2.569743   -0.288565   -0.498627
 C   -3.192058   -1.542311    0.070197
 O   -2.765540   -2.172022    1.009456
 C   -1.268082    0.072105    0.214514
 N   -0.714614    1.341380   -0.287776
 C    0.683561    1.252628   -0.134114
 C    1.523156    2.457516   -0.262913
 O    2.733584    2.491327   -0.273893
 O    0.773831    3.579710   -0.340453
 C    1.105936   -0.006645    0.061737
 C   -0.092346   -0.927207    0.055525
 C   -0.024415   -1.754143   -1.242174
 C    1.325100   -2.479839   -1.327715
 C    2.511209   -1.508802   -1.269700
 C    2.472478   -0.620055   -0.019773
 O    2.715262   -1.465753    1.093637
 C    2.799253   -0.762936    2.308048
 H   -4.819625    2.071054    0.837943
 H   -4.406522    0.489873    1.517878
 H   -3.191095    1.767395    1.446605
 H   -4.508095    0.499745   -1.034077
 H   -3.212938    1.681227   -1.068729
 H   -2.353006   -0.501820   -1.555319
 H   -4.127237   -1.863773   -0.441485
 H   -1.470735    0.152729    1.293092
 H   -1.123745    2.174295    0.118882
 H    1.401683    4.316351   -0.408853
 H   -0.075631   -1.624882    0.897722
 H   -0.137517   -1.087419   -2.108429
 H   -0.842461   -2.483563   -1.273421
 H    1.374445   -3.061482   -2.255133
 H    1.405320   -3.191955   -0.498173
 H    3.458722   -2.057927   -1.274513
 H    2.501146   -0.852914   -2.149273
 H    3.244506    0.156376   -0.076339
 H    3.589791    0.001981    2.276018
 H    1.850694   -0.265514    2.559596
 H    3.036393   -1.493758    3.084175
