30 
2qa8_ligand_ani.xyz
 C   19.072927    6.866462  114.745917
 C   18.743701    7.266628  116.037995
 O   17.543234    6.859943  116.515646
 C   19.610487    8.050031  116.801475
 C   20.835454    8.441939  116.268088
 O   21.641504    9.187831  117.016326
 C   21.203426    8.050340  114.957811
 C   22.486423    8.434679  114.373515
 O   23.315578    9.093895  115.013108
 C   22.699508    8.005119  112.982416
 C   21.735849    7.266591  112.390526
 O   20.585235    6.870088  112.965723
 C   20.294810    7.272783  114.236254
 C   23.937052    8.361130  112.239513
 C   25.209276    8.190420  112.800994
 C   26.360463    8.466652  112.084568
 C   26.266516    8.944718  110.778100
 O   27.427113    9.206944  110.121009
 C   25.012693    9.137698  110.200566
 C   23.866662    8.837032  110.925132
 H   18.396980    6.260415  114.157309
 H   17.427948    7.196277  117.413091
 H   19.355882    8.365247  117.809104
 H   22.455675    9.356776  116.486217
 H   21.806905    6.877807  111.379455
 H   25.292327    7.836480  113.823043
 H   27.342721    8.325927  112.524434
 H   27.222330    9.531412  109.235117
 H   24.928893    9.513232  109.182127
 H   22.900428    9.010506  110.458419
