22 
2qdt_ligand_ani.xyz
 S    4.422568   -0.586589    0.152034
 C    2.952946    0.413666   -0.240844
 C    1.701971   -0.357258    0.160061
 C    0.440062    0.434085   -0.163188
 O    0.459789    1.521410   -0.721669
 N   -0.724088   -0.166570    0.211540
 C   -1.995961    0.454437   -0.086722
 C   -2.371411    1.565965    0.903038
 C   -3.124252   -0.556458   -0.180330
 O   -4.260490   -0.264544   -0.458155
 O   -2.746206   -1.824636    0.080379
 H    5.335272    0.297386   -0.275519
 H    2.919409    0.634780   -1.309746
 H    2.987979    1.362649    0.298727
 H    1.660788   -1.320680   -0.366124
 H    1.718997   -0.588740    1.233522
 H   -0.717263   -1.088232    0.621989
 H   -1.916215    0.913728   -1.079573
 H   -2.396343    1.187474    1.930010
 H   -3.354391    1.970124    0.647530
 H   -1.626929    2.363639    0.842204
 H   -3.548646   -2.365181   -0.012877
