18 
2qfo_ligand_dft.xyz
 C   -1.718710   -1.022319   -0.000209
 C   -0.327321   -1.201019   -0.000190
 C    0.430502   -0.046194   -0.000009
 N   -0.082461    1.179635    0.000070
 C   -1.420625    1.236017   -0.000063
 N   -2.267424    0.186861   -0.000158
 N   -1.983190    2.465527   -0.000200
 C   -2.648271   -2.202916    0.000174
 C    1.947203   -0.094098    0.000052
 F    2.447318    0.515750    1.080843
 F    2.447248    0.513741   -1.081968
 F    2.399710   -1.359432    0.001187
 H    0.121273   -2.185466   -0.000331
 H   -1.394314    3.280565    0.000987
 H   -2.984722    2.552050    0.000916
 H   -2.472640   -2.830779   -0.879949
 H   -2.478376   -2.825305    0.885337
 H   -3.684851   -1.862585   -0.004036
