46 
2qg0_ligand_xtb.xyz
 C   -0.354011    1.002753   -1.849234
 N   -0.674067    1.827920   -0.866371
 C    0.325221    2.354890   -0.156664
 N    1.624510    2.090377   -0.325817
 C    1.942918    1.242896   -1.290966
 C    0.974105    0.676320   -2.113189
 C   -1.481682    0.449736   -2.660032
 N   -0.010569    3.190846    0.843763
 C    3.402119    0.890643   -1.446308
 N    3.644016   -0.533515   -1.432279
 S    3.744409   -1.276535    0.060122
 O    4.914454   -0.785044    0.716707
 O    3.621382   -2.679129   -0.211751
 C   -5.527055   -1.690515   -0.778826
 C   -4.021627   -1.895988   -0.521963
 C   -3.676283   -0.705536    0.322910
 C   -4.895104    0.078627    0.539633
 O   -5.929064   -0.511684   -0.100233
 O   -5.015946    1.093387    1.173847
 C   -2.495429   -0.332284    0.842341
 N   -1.324419   -0.997617    0.670143
 C   -0.085214   -0.614777    1.149351
 C    0.066025    0.262680    2.226319
 C    1.324255    0.640100    2.654400
 C    2.458534    0.167134    2.013631
 C    2.302628   -0.714622    0.964660
 C    1.060592   -1.125973    0.536352
 H    1.235919    0.013608   -2.922732
 H   -2.414830    0.582401   -2.120161
 H   -1.548685    0.991127   -3.603017
 H   -1.317514   -0.601602   -2.887147
 H   -0.962683    3.505565    0.898723
 H    0.720716    3.701186    1.303868
 H    3.971854    1.315956   -0.619330
 H    3.783565    1.301818   -2.387789
 H    3.068879   -1.068549   -2.063650
 H   -6.130632   -2.518872   -0.396661
 H   -5.751401   -1.557545   -1.841677
 H   -3.461021   -1.913025   -1.459287
 H   -3.835730   -2.834177    0.005472
 H   -2.465098    0.574138    1.427074
 H   -1.324981   -1.756592    0.002350
 H   -0.804421    0.645400    2.733737
 H    1.419549    1.316060    3.489734
 H    3.453149    0.457836    2.306779
 H    0.989956   -1.832989   -0.277344
