55 
2qh6_ligand_ani.xyz
 C    0.577821    1.842851    0.373851
 C    1.191285    3.002050    0.821861
 C    2.206611    3.585840    0.064538
 O    2.848616    4.721542    0.447869
 C    2.607548    2.988913   -1.129964
 C    1.985327    1.834145   -1.563991
 C    0.934858    1.246350   -0.845370
 C    0.276254    0.058937   -1.355413
 C    0.950676   -1.050111   -2.131872
 O   -0.116062   -1.519098   -2.954764
 C    1.173038   -2.301366   -1.248055
 C    2.087516   -2.204484   -0.046505
 O    2.188731   -3.086193    0.776912
 O    2.810985   -1.080191   -0.032542
 C    3.716659   -0.909911    1.075661
 C    4.006636    0.568132    1.189109
 C   -0.301312   -2.728915   -0.980547
 C   -0.743667   -2.761667    0.468231
 O   -1.409469   -3.648407    0.947806
 O   -0.334873   -1.677085    1.152989
 C   -0.277220   -1.814861    2.588031
 C   -0.080938   -0.426807    3.159520
 C   -1.051946   -1.700603   -1.890972
 C   -1.044151   -0.341566   -1.256377
 C   -2.221509    0.320665   -0.725328
 C   -3.244067   -0.439935   -0.135616
 C   -4.377261    0.151531    0.393845
 C   -4.526730    1.535945    0.334133
 O   -5.657910    2.070571    0.870234
 C   -3.537965    2.312066   -0.265197
 C   -2.404801    1.709864   -0.791971
 H   -0.205257    1.401658    0.987387
 H    0.884018    3.441516    1.768093
 H    2.473091    5.021363    1.285206
 H    3.420246    3.437073   -1.694308
 H    2.304970    1.378034   -2.499301
 H    1.816950   -0.774498   -2.737846
 H    1.626902   -3.065580   -1.890081
 H    4.619131   -1.498678    0.876997
 H    3.239569   -1.308811    1.976923
 H    3.086043    1.127587    1.382382
 H    4.441850    0.947728    0.258978
 H    4.708940    0.748464    2.009823
 H   -0.480538   -3.735656   -1.364062
 H    0.560582   -2.478273    2.833637
 H   -1.206957   -2.274216    2.934329
 H    0.836101    0.029731    2.770351
 H   -0.008564   -0.472672    4.251036
 H   -0.927731    0.218582    2.902311
 H   -2.011725   -2.049584   -2.285220
 H   -3.140099   -1.523284   -0.081274
 H   -5.161349   -0.442994    0.851868
 H   -5.636410    3.029398    0.758738
 H   -3.649087    3.392958   -0.321750
 H   -1.646795    2.338658   -1.251861
