55 
2qh6_ligand_dft.xyz
 C    1.163911    1.424589    0.453322
 C    1.971498    2.427089    0.974616
 C    2.962183    3.006037    0.178949
 O    3.780949    3.994608    0.626411
 C    3.142769    2.564260   -1.132245
 C    2.332517    1.556353   -1.637015
 C    1.323469    0.977256   -0.860413
 C    0.470181   -0.093344   -1.400394
 C    1.007506   -1.395851   -1.980710
 O   -0.027113   -1.787549   -2.875046
 C    0.876506   -2.526874   -0.904924
 C    1.599922   -2.327900    0.407213
 O    1.321642   -2.873770    1.448108
 O    2.656434   -1.522877    0.243262
 C    3.412658   -1.213997    1.422918
 C    4.602712   -0.386230    0.990593
 C   -0.666320   -2.715449   -0.858983
 C   -1.401161   -2.594244    0.459698
 O   -2.245096   -3.386593    0.811073
 O   -1.101031   -1.484479    1.141866
 C   -1.839188   -1.276264    2.352835
 C   -1.527192    0.119861    2.845457
 C   -1.090205   -1.650345   -1.943606
 C   -0.867332   -0.247354   -1.390286
 C   -1.945908    0.625846   -0.917867
 C   -3.174419    0.085590   -0.508957
 C   -4.195228    0.886663   -0.020685
 C   -4.015185    2.267433    0.056408
 O   -5.042541    3.009866    0.546085
 C   -2.811929    2.829584   -0.372025
 C   -1.795894    2.015912   -0.855322
 H    0.395395    0.971103    1.069512
 H    1.830335    2.758594    2.001528
 H    3.553582    4.206089    1.539657
 H    3.918369    3.020460   -1.738192
 H    2.478256    1.221444   -2.660382
 H    1.974372   -1.354464   -2.479802
 H    1.311375   -3.435758   -1.336185
 H    3.707624   -2.146816    1.911612
 H    2.763800   -0.661243    2.109954
 H    4.272756    0.521591    0.478686
 H    5.245863   -0.955965    0.313439
 H    5.192343   -0.099407    1.867059
 H   -0.930270   -3.701264   -1.241569
 H   -1.544861   -2.044611    3.073484
 H   -2.905251   -1.397351    2.141175
 H   -0.459675    0.225424    3.063795
 H   -2.084666    0.319930    3.765817
 H   -1.816610    0.864344    2.096517
 H   -2.050985   -1.849376   -2.417585
 H   -3.338903   -0.988012   -0.548369
 H   -5.137375    0.457952    0.303780
 H   -4.797018    3.942532    0.527769
 H   -2.668192    3.907484   -0.334764
 H   -0.871437    2.471958   -1.192481
