64 
2qhz_ligand_dft.xyz
 F   -7.682556   -3.175792   -1.029533
 C   -7.374789   -1.886034   -0.813458
 F   -8.395341   -1.344014   -0.124547
 F   -7.335233   -1.278965   -2.007924
 C   -6.086002   -1.770047   -0.027049
 C   -6.113024   -2.492318    1.287254
 C   -5.091707   -1.051873   -0.557504
 C   -3.771750   -0.783410    0.079668
 O   -3.392406   -1.322694    1.121876
 N   -3.020195    0.119383   -0.597710
 C   -1.837328    0.795263   -0.054925
 C   -2.215651    1.712078    1.126311
 C   -3.308699    2.680034    0.749459
 C   -3.014068    3.849435    0.044009
 C   -4.027444    4.709351   -0.367482
 C   -5.356667    4.408371   -0.080985
 C   -5.663398    3.246897    0.622405
 C   -4.645532    2.391269    1.034268
 C   -0.687468   -0.184797    0.287678
 O   -0.778686   -0.716707    1.584040
 C    0.662581    0.526517    0.190815
 N    1.806160   -0.365063    0.351935
 S    2.412765   -1.139759   -0.976739
 O    2.684101   -2.526805   -0.635434
 O    1.571295   -0.794831   -2.109790
 C    4.010107   -0.377016   -1.227920
 C    5.158256   -1.154802   -1.113743
 C    6.399537   -0.567806   -1.257897
 F    7.512909   -1.292915   -1.133747
 C    4.132020    0.982490   -1.491100
 F    3.041134    1.751442   -1.569156
 C    5.370319    1.581687   -1.650559
 C    6.502575    0.793631   -1.527315
 F    7.709109    1.340114   -1.659546
 C    2.152675   -0.896274    1.679782
 C    3.613562   -0.768631    1.999921
 C    4.523530   -1.777485    2.125529
 C    5.850080   -1.312953    2.371974
 C    5.923936    0.046512    2.422809
 S    4.379438    0.777305    2.185969
 H   -6.973439   -2.157330    1.875959
 H   -5.193186   -2.325990    1.841932
 H   -6.239280   -3.566148    1.112855
 H   -5.255532   -0.593579   -1.527800
 H   -3.470819    0.591955   -1.366920
 H   -1.488746    1.422886   -0.882762
 H   -2.522597    1.088038    1.968830
 H   -1.317223    2.252556    1.444152
 H   -1.976774    4.089553   -0.180845
 H   -3.779455    5.617286   -0.909557
 H   -6.148541    5.078868   -0.400920
 H   -6.697331    3.006979    0.852578
 H   -4.888437    1.485988    1.586263
 H   -0.700223   -0.979118   -0.473294
 H   -1.658729   -1.134467    1.643315
 H    0.739681    1.288848    0.974067
 H    0.755889    1.025144   -0.774128
 H    5.074296   -2.211463   -0.889965
 H    5.454116    2.642829   -1.849815
 H    1.860944   -1.946542    1.760361
 H    1.532739   -0.345551    2.389070
 H    4.251596   -2.820946    2.012743
 H    6.708422   -1.962745    2.494656
 H    6.797101    0.660903    2.594846
