70 
2qi1_ligand_ani.xyz
 O   -3.108670   -3.010341   -1.240236
 S   -2.695154   -1.627354   -1.380696
 O   -1.947742   -1.179328   -2.554911
 C   -4.131167   -0.593810   -1.250258
 C   -4.114679    0.678826   -1.821715
 C   -5.224760    1.492480   -1.663243
 C   -6.350012    1.051732   -0.968504
 C   -6.359237   -0.233572   -0.425827
 O   -7.406113   -0.766034    0.256110
 C   -8.555684    0.035849    0.422833
 C   -5.241572   -1.061658   -0.567623
 N   -1.759552   -1.247025   -0.067012
 C   -1.880843   -1.996817    1.183416
 C   -0.534261   -2.413603    1.700595
 S    0.226865   -1.649722    3.053190
 C    1.652253   -2.603555    2.871875
 C    1.539098   -3.471193    1.824734
 C    0.283501   -3.362393    1.152379
 C   -1.062249    0.036254   -0.027698
 C    0.377331   -0.061700   -0.541009
 O    0.475866    0.132399   -1.935601
 C    1.357281    0.914207    0.108917
 C    1.090418    2.407123   -0.173449
 C   -0.189328    2.958596    0.411735
 C   -0.378608    3.000121    1.796420
 C   -1.579409    3.449202    2.338261
 C   -2.612756    3.871288    1.504503
 C   -2.431012    3.845064    0.125120
 C   -1.225216    3.402566   -0.415025
 N    2.666622    0.528653   -0.374668
 C    3.785112    0.699863    0.380790
 O    3.741404    1.179288    1.507886
 C    5.075220    0.285904   -0.250660
 C    5.160894   -0.656698   -1.272382
 C    6.396296   -0.994247   -1.814588
 C    6.241122    0.871170    0.247333
 C    7.467975    0.547722   -0.298339
 O    8.666977    1.077372    0.105234
 C    7.554306   -0.389755   -1.340679
 O    8.756582   -0.708623   -1.875852
 H   -3.248747    1.010075   -2.387103
 H   -5.217834    2.497109   -2.080949
 H   -7.203997    1.710665   -0.859965
 H   -8.997383    0.310951   -0.543912
 H   -8.329613    0.949907    0.987462
 H   -9.266324   -0.570782    0.985749
 H   -5.266371   -2.061413   -0.146345
 H   -2.482844   -2.881576    0.962039
 H   -2.414702   -1.387605    1.925003
 H    2.487924   -2.475456    3.548022
 H    2.321463   -4.163618    1.534783
 H   -0.002782   -3.953279    0.286753
 H   -1.610990    0.779905   -0.610141
 H   -1.059487    0.368219    1.013319
 H    0.746310   -1.067784   -0.281720
 H   -0.243976   -0.374233   -2.352066
 H    1.374652    0.760021    1.191590
 H    1.104405    2.567366   -1.257266
 H    1.944548    2.946856    0.253293
 H    0.419576    2.668565    2.461270
 H   -1.708037    3.467890    3.417337
 H   -3.549873    4.219843    1.929750
 H   -3.229597    4.172986   -0.537412
 H   -1.094413    3.364857   -1.495259
 H    2.733223    0.345198   -1.367679
 H    4.268616   -1.162639   -1.638144
 H    6.474884   -1.723393   -2.615466
 H    6.156035    1.576955    1.070826
 H    8.518847    1.704648    0.824101
 H    9.433088   -0.190070   -1.414543
