74 
2qi3_ligand_xtb.xyz
 O    4.017557   -0.266500    1.161297
 C    4.153920    0.455790    0.191779
 C    5.441125    0.521696   -0.636466
 C    6.309356    1.706914   -0.171919
 C    7.566872    1.796717   -1.032918
 C    6.674234    1.567765    1.302034
 O    5.136935    0.709923   -2.007057
 N    3.209659    1.305948   -0.253874
 C    1.850683    1.264881    0.240081
 C    1.186353    2.617747   -0.037511
 C   -0.203976    2.719918    0.520682
 C   -0.421968    2.693517    1.893541
 C   -1.705136    2.758431    2.406138
 C   -2.790264    2.867922    1.552658
 C   -2.583635    2.916912    0.185048
 C   -1.299567    2.835905   -0.325846
 C    1.117828    0.076208   -0.423428
 O    0.876913    0.407700   -1.766343
 C   -0.173634   -0.310417    0.324928
 N   -0.509110   -1.704871    0.175634
 C   -0.356062   -2.612257    1.286460
 C    1.113231   -2.948576    1.583633
 C    1.185962   -3.813747    2.838740
 C    1.751182   -3.642607    0.376362
 C    3.274986   -3.635839    0.437987
 S   -1.360166   -2.121718   -1.167116
 O   -1.797719   -3.475757   -1.026410
 O   -0.593376   -1.787066   -2.342287
 C   -2.776196   -1.018765   -1.126697
 C   -3.542981   -1.006981    0.017945
 C   -4.610596   -0.126997    0.060841
 S   -5.741557    0.167652    1.342005
 C   -6.493522    1.367496    0.314045
 N   -5.979223    1.536437   -0.838358
 C   -4.907463    0.717742   -1.039091
 C   -4.116721    0.670175   -2.185479
 C   -3.046377   -0.197970   -2.215827
 H    5.997832   -0.413424   -0.481574
 H    5.718466    2.617397   -0.317836
 H    7.296238    1.870194   -2.082176
 H    8.147382    2.673403   -0.756836
 H    8.184907    0.912559   -0.892816
 H    7.255545    2.428560    1.623453
 H    5.785290    1.496693    1.922452
 H    7.269044    0.670948    1.459716
 H    4.681685   -0.071367   -2.339097
 H    3.356964    1.713924   -1.167935
 H    1.917209    1.068389    1.315327
 H    1.816769    3.394982    0.402450
 H    1.156099    2.758656   -1.118370
 H    0.421075    2.624548    2.566089
 H   -1.859865    2.731448    3.474946
 H   -3.791869    2.926428    1.953395
 H   -3.423546    3.022174   -0.485795
 H   -1.144315    2.858833   -1.394459
 H    1.797425   -0.788402   -0.363798
 H    0.418597   -0.348822   -2.179397
 H   -0.066668   -0.096241    1.389809
 H   -0.996220    0.296450   -0.066843
 H   -0.828385   -2.182032    2.180299
 H   -0.889990   -3.521333    1.004842
 H    1.653101   -2.014265    1.770768
 H    0.664977   -4.755817    2.681458
 H    0.728439   -3.303689    3.683897
 H    2.220253   -4.025859    3.092028
 H    1.422008   -3.130769   -0.531905
 H    1.385206   -4.669888    0.315285
 H    3.693101   -4.014135   -0.492257
 H    3.645146   -2.626136    0.604750
 H    3.634325   -4.264351    1.248901
 H   -3.305319   -1.661862    0.840354
 H   -7.344578    1.915665    0.668955
 H   -4.350371    1.315076   -3.016845
 H   -2.395965   -0.261352   -3.073211
