72 
2qi4_ligand_ani.xyz
 O    1.167044   -1.149028   -1.296523
 C    1.374173   -1.657026   -0.200905
 C    0.872485   -3.030289    0.153972
 C   -0.420411   -3.388938   -0.224812
 C   -0.948101   -4.616628    0.171383
 O   -2.223646   -4.972992   -0.094102
 C   -0.147720   -5.532001    0.860533
 C    1.154185   -5.184557    1.192950
 C    1.661869   -3.931802    0.863813
 N    2.027471   -1.029440    0.824639
 C    2.442628    0.367264    0.873166
 C    3.180630    0.823910   -0.390477
 C    4.476873    0.073428   -0.605290
 C    4.525388   -1.022010   -1.470656
 C    5.708878   -1.735437   -1.642486
 C    6.857401   -1.359934   -0.952489
 C    6.818660   -0.269094   -0.088133
 C    5.633995    0.439762    0.083852
 C    1.278978    1.276884    1.327402
 O    0.881037    0.755118    2.574328
 C    0.125534    1.337718    0.312917
 N   -0.753420    2.513516    0.483425
 C   -1.030293    3.258721   -0.756200
 C    0.145806    4.136446   -1.200347
 C    0.430033    5.228223   -0.157841
 C    1.711290    6.015965   -0.422955
 C   -0.153540    4.713445   -2.585312
 S   -2.051309    2.336770    1.537634
 O   -1.501484    2.090526    2.869578
 O   -2.961817    3.447038    1.335940
 C   -2.826140    0.853607    0.987477
 C   -2.559789   -0.352436    1.647064
 C   -2.916046   -1.549447    1.052244
 C   -3.560360   -1.538102   -0.193314
 C   -3.919709   -0.309707   -0.776508
 C   -3.550497    0.899498   -0.194035
 N   -3.883045   -2.656184   -0.951226
 C   -4.523017   -2.310022   -2.020022
 S   -4.764182   -0.608283   -2.265161
 H   -1.033535   -2.694216   -0.796538
 H   -2.715527   -4.200356   -0.447936
 H   -0.566620   -6.497104    1.129979
 H    1.775893   -5.890448    1.738234
 H    2.675556   -3.657863    1.143364
 H    1.864331   -1.429063    1.739510
 H    3.155033    0.415499    1.703730
 H    2.539513    0.684203   -1.261908
 H    3.391318    1.896472   -0.283723
 H    3.621972   -1.313016   -2.003334
 H    5.735400   -2.585991   -2.319452
 H    7.782119   -1.916077   -1.086564
 H    7.712452    0.029116    0.454775
 H    5.607848    1.291489    0.762238
 H    1.673065    2.302427    1.451273
 H    0.105260    1.258884    2.882015
 H   -0.438090    0.395359    0.345797
 H    0.552037    1.408420   -0.688886
 H   -1.290703    2.549472   -1.558741
 H   -1.904529    3.892720   -0.583900
 H    1.042521    3.502012   -1.280117
 H    0.483712    4.757404    0.832713
 H   -0.427656    5.916932   -0.123767
 H    1.895416    6.747023    0.371065
 H    2.578992    5.348039   -0.467935
 H    1.665179    6.565437   -1.369191
 H    0.678916    5.311418   -2.969725
 H   -1.042085    5.357504   -2.550792
 H   -0.347182    3.914020   -3.309714
 H   -2.039537   -0.343394    2.599987
 H   -2.666587   -2.498827    1.509979
 H   -3.806912    1.850891   -0.648096
 H   -4.894922   -3.009366   -2.755479
