80 
2qi5_ligand_dft.xyz
 O   -2.482126    2.871995    1.479635
 S   -2.212410    1.448356    1.389819
 O   -1.741710    0.690024    2.546049
 C   -3.702145    0.649524    0.821188
 C   -3.886055   -0.719118    1.072695
 C   -4.986728   -1.373905    0.554368
 C   -4.600676    1.393786    0.070874
 C   -5.708071    0.723233   -0.442013
 C   -5.908353   -0.653443   -0.212815
 N   -7.052463   -1.189218   -0.783411
 S   -7.021354    1.341481   -1.405890
 C   -7.699889   -0.273241   -1.415566
 N   -1.085685    1.224618    0.203961
 C   -1.169830    2.052376   -1.006367
 C    0.205421    2.538965   -1.460751
 C    0.847239    3.523175   -0.485174
 C    2.182460    4.067368   -0.992744
 C    2.804801    5.076172   -0.029221
 C   -0.518794   -0.122121    0.041434
 C    0.844245   -0.266534    0.739082
 O    0.731978   -0.610637    2.098478
 C    1.756329   -1.306267    0.057692
 N    3.150230   -0.993662    0.327974
 C    3.797629   -0.019733   -0.343389
 O    3.260661    0.699606   -1.181797
 C    5.298625    0.077878   -0.012473
 C    5.839369    1.496814   -0.214004
 C    7.359777    1.550126   -0.048220
 C    5.160783    2.448830    0.774989
 N    6.005540   -0.903446   -0.825787
 C    6.082904   -2.211243   -0.462061
 O    5.600562   -2.630470    0.584740
 C    6.812445   -3.126389   -1.422360
 C    1.494329   -2.755603    0.490667
 C    0.090850   -3.223249    0.192977
 C   -0.839572   -3.400701    1.219307
 C   -2.143779   -3.797042    0.935118
 C   -2.542062   -4.005953   -0.382944
 C   -1.622591   -3.830508   -1.413486
 C   -0.315883   -3.449796   -1.124153
 H   -3.166424   -1.250585    1.684682
 H   -5.151642   -2.430204    0.734602
 H   -4.443359    2.455703   -0.082168
 H   -8.630312   -0.457650   -1.941094
 H   -1.661387    1.476395   -1.804682
 H   -1.797400    2.916308   -0.776105
 H    0.072468    3.022158   -2.438094
 H    0.883303    1.691135   -1.623643
 H    0.995784    3.030436    0.484563
 H    0.153616    4.355142   -0.297111
 H    2.030689    4.544735   -1.970779
 H    2.868297    3.227860   -1.160863
 H    2.146891    5.941343    0.113611
 H    3.767357    5.444244   -0.400999
 H    2.975867    4.626112    0.955452
 H   -0.409996   -0.289825   -1.034371
 H   -1.211581   -0.885290    0.405132
 H    1.347739    0.703823    0.624567
 H    0.032555   -0.059893    2.487548
 H    1.612478   -1.212335   -1.025694
 H    3.706506   -1.623565    0.895491
 H    5.456592   -0.221613    1.029210
 H    5.568744    1.812001   -1.230020
 H    7.652328    1.213082    0.953582
 H    7.717573    2.577108   -0.174499
 H    7.883732    0.921048   -0.774278
 H    4.071954    2.414146    0.683421
 H    5.475837    3.480834    0.592001
 H    5.429511    2.192840    1.807358
 H    6.284081   -0.630219   -1.756314
 H    7.253286   -2.606337   -2.277115
 H    6.112381   -3.883715   -1.785980
 H    7.602443   -3.645608   -0.874118
 H    1.690812   -2.837808    1.563332
 H    2.219054   -3.395014   -0.028187
 H   -0.540038   -3.199822    2.243557
 H   -2.852532   -3.939758    1.746878
 H   -3.561183   -4.307589   -0.606326
 H   -1.921447   -3.997036   -2.444286
 H    0.400697   -3.322601   -1.933033
