69 
2qi6_ligand_ani.xyz
 O    1.192075    1.124472   -2.197053
 S    1.570739    1.956867   -1.054619
 O    1.488799    3.403990   -1.134862
 C    3.228694    1.511000   -0.639585
 C    3.673605    0.234016   -0.945159
 C    4.970220   -0.105323   -0.573539
 S    5.825855   -1.602972   -0.780227
 C    7.213069   -0.870258   -0.014812
 N    7.087971    0.349931    0.367333
 C    5.813573    0.819058    0.065485
 C    5.343791    2.110184    0.344925
 C    4.054000    2.451215   -0.010032
 N    0.648812    1.470947    0.233984
 C    0.291998    2.405745    1.295437
 C   -1.209141    2.714988    1.376845
 C   -1.481062    3.586830    2.605030
 C   -1.703960    3.400125    0.100333
 C    0.339002    0.056226    0.421539
 C   -0.910037   -0.405587   -0.354073
 O   -0.589326   -0.912641   -1.628923
 C   -1.739167   -1.464567    0.389915
 C   -1.181316   -2.885828    0.235181
 C    0.269573   -3.024854    0.629339
 C    0.649536   -2.951156    1.972013
 C    1.992527   -2.970254    2.335658
 C    2.978202   -3.058728    1.356651
 C    2.610130   -3.142343    0.015086
 C    1.265992   -3.127826   -0.344169
 N   -3.116603   -1.445125   -0.072027
 C   -4.004744   -0.519664    0.387035
 O   -3.726810    0.244898    1.303190
 C   -5.357537   -0.510229   -0.263991
 C   -5.570364   -0.885767   -1.590103
 C   -6.859766   -0.845670   -2.112414
 C   -7.932790   -0.438346   -1.330813
 C   -7.710225   -0.046555   -0.009608
 O   -8.791286    0.356205    0.713669
 C   -6.422474   -0.070751    0.517877
 H    3.027415   -0.461724   -1.471266
 H    8.124272   -1.445443    0.116250
 H    6.005574    2.818970    0.832129
 H    3.671764    3.450267    0.179958
 H    0.619439    1.961492    2.244656
 H    0.862161    3.326950    1.140308
 H   -1.761616    1.770836    1.500998
 H   -1.167500    3.085947    3.528469
 H   -2.548052    3.819496    2.694268
 H   -0.935967    4.537246    2.534014
 H   -1.514970    2.790911   -0.791986
 H   -1.200243    4.364745   -0.050434
 H   -2.781947    3.586754    0.158444
 H    1.203094   -0.559806    0.155192
 H    0.167105   -0.078534    1.494605
 H   -1.559083    0.480772   -0.463346
 H   -0.010483   -0.254193   -2.054210
 H   -1.777336   -1.187412    1.448722
 H   -1.804115   -3.548200    0.850189
 H   -1.299774   -3.189948   -0.809875
 H   -0.117964   -2.862361    2.740906
 H    2.269751   -2.911284    3.385021
 H    4.029000   -3.057924    1.638416
 H    3.380099   -3.201412   -0.752591
 H    0.978859   -3.153213   -1.393602
 H   -3.368548   -2.036842   -0.847937
 H   -4.741214   -1.175964   -2.232529
 H   -7.029562   -1.144418   -3.143834
 H   -8.944268   -0.408142   -1.723679
 H   -8.501760    0.606907    1.600182
 H   -6.216501    0.253450    1.536589
