55 
2qk8_ligand_xtb.xyz
 N   -2.660093   -2.573820    0.151131
 C   -3.848158   -2.966074    0.578539
 N   -3.951632   -4.221987    1.041906
 N   -4.989607   -2.242048    0.589950
 C   -4.938043   -1.010819    0.133184
 N   -6.039582   -0.248754    0.132629
 C   -3.703947   -0.462298   -0.360890
 N   -3.626384    0.796383   -0.803571
 C   -2.452170    1.209246   -1.245178
 C   -1.337678    0.343024   -1.243185
 N   -1.392372   -0.883765   -0.788083
 C   -2.580298   -1.329026   -0.323772
 C   -2.296092    2.672235   -1.562603
 N   -1.899199    3.374621   -0.341413
 C   -3.002106    3.598113    0.565353
 C    1.703427    1.736049    1.058811
 C    0.581622    1.734913    1.879550
 C   -0.604907    2.305773    1.464702
 C   -0.696174    2.894378    0.204113
 C    0.466578    2.995923   -0.566734
 C    1.647222    2.422266   -0.152707
 C    2.865215    0.907723    1.472848
 O    3.141629    0.660221    2.632934
 N    3.555730    0.383913    0.429042
 C    4.507899   -0.676218    0.608577
 C    5.666879   -0.494830   -0.354042
 O    5.718591    0.318014   -1.235332
 O    6.648837   -1.373046   -0.119537
 C    3.867082   -2.068945    0.420688
 C    3.219991   -2.253290   -0.959734
 C    1.867871   -1.562757   -1.065620
 O    0.904468   -2.263699   -0.520223
 O    1.707275   -0.489505   -1.603582
 H   -3.121845   -4.782960    1.098497
 H   -4.824935   -4.534935    1.422633
 H   -6.912025   -0.628985    0.451686
 H   -5.975975    0.678904   -0.248266
 H   -0.374016    0.660025   -1.618943
 H   -3.242782    3.091619   -1.906720
 H   -1.534225    2.815500   -2.329239
 H   -2.642993    4.147527    1.433117
 H   -3.744087    4.210152    0.050848
 H   -3.491188    2.672262    0.897496
 H    0.643674    1.235160    2.834807
 H   -1.468952    2.246189    2.108304
 H    0.427866    3.517775   -1.510835
 H    2.526191    2.514864   -0.772488
 H    3.227993    0.537962   -0.514085
 H    4.889718   -0.605377    1.635225
 H    7.378028   -1.239852   -0.746214
 H    3.112390   -2.208851    1.196267
 H    4.646754   -2.819416    0.557701
 H    3.052598   -3.318020   -1.126498
 H    3.873849   -1.862039   -1.740808
 H    0.004253   -1.807511   -0.599089
