63 
2ql5_ligand_dft.xyz
 N   -0.408566    1.973565   -0.599710
 C    0.956256    1.825130   -1.201193
 C    1.692130    0.763573   -0.363329
 O    2.244802    1.087943    0.682529
 C    1.708544    3.151651   -1.140350
 C    1.178918    4.259392   -2.024942
 O   -0.155924    4.140243   -2.266666
 O    1.833008    5.165581   -2.454366
 N    1.616906   -0.495592   -0.825253
 C    1.925273   -1.694093   -0.033814
 C    0.746136   -1.969226    0.909885
 O    0.104342   -3.007791    0.822058
 C    3.292948   -1.685988    0.655932
 C    4.448768   -1.348866   -0.288994
 S    4.510896   -2.299180   -1.839126
 C    4.888567   -3.952233   -1.192965
 N    0.408972   -0.968147    1.772473
 C   -0.903557   -0.980487    2.411918
 C   -1.931084   -0.642853    1.311961
 O   -2.225871    0.510854    0.999494
 C   -0.987696   -0.107331    3.670771
 C   -1.015432    1.427451    3.537930
 C    0.207091    2.065963    2.910667
 O    0.139687    2.776548    1.902335
 N    1.392336    1.818425    3.498952
 N   -2.421568   -1.730595    0.673582
 C   -3.195524   -1.643319   -0.545992
 C   -2.411070   -1.050343   -1.707818
 O   -1.292344   -0.585522   -1.614512
 C   -4.539538   -0.917227   -0.341184
 C   -5.503090   -1.174401   -1.476274
 O   -6.697815   -0.631816   -1.234600
 O   -5.234971   -1.792500   -2.481260
 H   -0.943295    1.092614   -0.612756
 H   -0.349798    2.284309    0.405050
 H   -0.922030    2.687682   -1.127767
 H    0.808693    1.489966   -2.230925
 H    1.713557    3.503549   -0.101400
 H    2.753028    2.993200   -1.416926
 H   -0.418839    4.899299   -2.814725
 H    1.048473   -0.661347   -1.645271
 H    1.914121   -2.518307   -0.748025
 H    3.308940   -0.973860    1.484223
 H    3.429089   -2.685334    1.084817
 H    5.398024   -1.468732    0.242686
 H    4.386146   -0.300181   -0.594117
 H    5.050128   -4.601944   -2.055700
 H    5.803394   -3.935447   -0.594159
 H    4.065461   -4.362393   -0.601300
 H    0.988468   -0.136428    1.810559
 H   -1.073593   -2.010550    2.738355
 H   -1.909469   -0.392415    4.188331
 H   -0.167845   -0.424130    4.326409
 H   -1.126331    1.842392    4.547546
 H   -1.875187    1.743405    2.950495
 H    2.225753    2.211710    3.084306
 H    1.467757    1.359268    4.393366
 H   -1.910343   -2.594667    0.829717
 H   -3.429807   -2.669042   -0.856051
 H   -2.932086   -1.084482   -2.678339
 H   -4.394900    0.158903   -0.212644
 H   -4.991279   -1.277366    0.588260
 H   -7.272295   -0.835475   -1.991659
