63 
2ql5_ligand_xtb.xyz
 N   -0.442784    2.255543   -0.100162
 C    0.710440    1.918016   -0.966383
 C    1.466746    0.788972   -0.236680
 O    1.907477    1.000026    0.881775
 C    1.628933    3.130827   -1.097389
 C    1.057753    4.295054   -1.883082
 O   -0.274205    4.444050   -1.714168
 O    1.702031    5.025868   -2.569464
 N    1.533644   -0.378226   -0.873884
 C    1.932819   -1.640514   -0.251685
 C    0.758763   -2.084970    0.632368
 O    0.107049   -3.080315    0.386207
 C    3.273979   -1.579721    0.483067
 C    4.389299   -1.080583   -0.430221
 S    4.503778   -1.984448   -2.012058
 C    5.352548   -3.488862   -1.462655
 N    0.451133   -1.241342    1.641482
 C   -0.862747   -1.324262    2.265330
 C   -1.845391   -0.855477    1.176505
 O   -2.080902    0.324638    0.938935
 C   -0.932360   -0.594417    3.610876
 C   -0.998148    0.938424    3.593157
 C    0.272254    1.682153    3.243460
 O    0.297728    2.564770    2.389684
 N    1.364487    1.370456    3.942957
 N   -2.357578   -1.860295    0.454672
 C   -3.137332   -1.621239   -0.745813
 C   -2.392489   -0.772409   -1.751430
 O   -1.268473   -0.365866   -1.615491
 C   -4.497917   -0.989098   -0.400651
 C   -5.470343   -1.044259   -1.562317
 O   -6.674235   -0.625784   -1.196814
 O   -5.193009   -1.415295   -2.669646
 H   -1.124059    1.474721   -0.001886
 H   -0.115069    2.456016    0.907434
 H   -0.904349    3.093973   -0.470782
 H    0.346238    1.585234   -1.941064
 H    1.878849    3.488927   -0.093320
 H    2.563762    2.845522   -1.582222
 H   -0.587125    5.215086   -2.215276
 H    1.084061   -0.468857   -1.772168
 H    2.020764   -2.369911   -1.062071
 H    3.217421   -0.917130    1.346632
 H    3.498628   -2.587314    0.836766
 H    5.354429   -1.155886    0.068501
 H    4.217893   -0.041425   -0.706934
 H    5.539659   -4.079139   -2.353287
 H    6.294272   -3.219342   -0.993398
 H    4.721508   -4.046809   -0.777293
 H    0.994139   -0.395091    1.768514
 H   -1.051852   -2.387146    2.459611
 H   -1.838247   -0.945910    4.108614
 H   -0.082320   -0.937084    4.204663
 H   -1.276263    1.267749    4.597985
 H   -1.782281    1.265678    2.911106
 H    2.218106    1.870081    3.746881
 H    1.349079    0.729459    4.716829
 H   -1.936178   -2.776651    0.559150
 H   -3.322441   -2.583610   -1.236885
 H   -2.987675   -0.552358   -2.649663
 H   -4.373343    0.050379   -0.090841
 H   -4.942767   -1.526540    0.438840
 H   -7.306131   -0.666939   -1.933832
