63 
2ql9_ligand_ani.xyz
 N    1.576323   -0.767462   -1.964759
 C    1.612346   -2.183468   -1.491418
 C    0.463757   -2.416682   -0.499760
 O   -0.581361   -2.946338   -0.888464
 C    3.011969   -2.521724   -0.974088
 C    4.042416   -2.346686   -2.065121
 O    3.861752   -1.763454   -3.113593
 O    5.218650   -2.904485   -1.750402
 N    0.636166   -1.957836    0.756576
 C   -0.427776   -1.913845    1.757350
 C   -1.420800   -0.772012    1.402254
 O   -1.520111    0.257493    2.066341
 C    0.163994   -1.773391    3.162601
 C    0.956663   -0.498742    3.481937
 C    2.394372   -0.432969    2.983301
 O    2.909530   -1.260526    2.234760
 N    3.091201    0.641471    3.419841
 N   -2.142958   -0.993079    0.273790
 C   -2.597504    0.097310   -0.595859
 C   -1.362258    0.868972   -1.104128
 O   -0.886330    0.623127   -2.211008
 C   -3.690145    0.955909    0.042483
 C   -4.954208    0.157653    0.362138
 S   -5.736340   -0.490950   -1.142508
 C   -7.025390   -1.500434   -0.382371
 N   -0.825097    1.761757   -0.233772
 C    0.405027    2.476231   -0.527098
 C    1.509655    2.001870    0.402814
 O    2.133090    0.979726    0.192271
 C    0.215712    3.986012   -0.427935
 C    1.525864    4.710551   -0.620556
 O    2.607753    4.177978   -0.702339
 O    1.367357    6.044612   -0.681218
 H    1.812347   -0.116067   -1.194496
 H    2.281996   -0.701315   -2.717298
 H    0.642102   -0.511798   -2.332082
 H    1.372500   -2.833431   -2.333793
 H    3.313441   -1.884624   -0.131960
 H    3.053914   -3.555275   -0.620118
 H    5.815421   -2.731375   -2.498476
 H    1.571362   -1.733243    1.089209
 H   -0.984887   -2.856885    1.691939
 H    0.795227   -2.650578    3.349279
 H   -0.667944   -1.831348    3.871318
 H    0.986719   -0.383228    4.574193
 H    0.420237    0.373655    3.096168
 H    4.045699    0.750591    3.113780
 H    2.708079    1.304532    4.073425
 H   -1.912460   -1.854886   -0.217241
 H   -3.006370   -0.391868   -1.486151
 H   -3.322259    1.386509    0.976050
 H   -3.930785    1.780111   -0.639475
 H   -4.707266   -0.676960    1.025160
 H   -5.667399    0.804035    0.884072
 H   -6.590770   -2.284074    0.245488
 H   -7.589803   -1.976664   -1.187551
 H   -7.712345   -0.891723    0.212782
 H   -1.113252    1.677148    0.738815
 H    0.691433    2.193155   -1.548403
 H    1.741401    2.610782    1.294695
 H   -0.504412    4.327672   -1.177067
 H   -0.190581    4.264610    0.553352
 H    2.255845    6.421412   -0.797276
