60 
2qlb_ligand_xtb.xyz
 N    2.067329   -0.882515   -1.071748
 C    2.183990   -2.037480   -0.150319
 C    0.917068   -2.117464    0.726373
 O    0.081380   -2.977362    0.527861
 C    3.468659   -1.973945    0.683967
 C    4.715415   -1.481170   -0.073700
 C    4.898809   -2.110978   -1.434948
 O    4.169861   -1.875995   -2.377860
 O    5.929480   -2.917982   -1.501527
 N    0.804295   -1.179027    1.672845
 C   -0.374764   -1.060372    2.516469
 C   -1.398433   -0.257723    1.691096
 O   -1.621343    0.921066    1.888074
 C    0.015849   -0.331816    3.805738
 O    0.889255    0.722672    3.467564
 N   -1.928175   -0.976189    0.681344
 C   -2.473833   -0.343416   -0.521387
 C   -1.273754    0.431875   -1.064659
 O   -0.423335   -0.128912   -1.744073
 C   -3.745267    0.462436   -0.254712
 C   -4.938283   -0.460450   -0.050698
 S   -5.303743   -1.392858   -1.588144
 C   -6.777754   -2.276947   -1.021604
 N   -1.148278    1.704346   -0.652452
 C    0.085687    2.438422   -0.834364
 C    0.968315    2.189287    0.401020
 O    1.790456    1.293553    0.449641
 C   -0.145189    3.940860   -0.990336
 C    1.169863    4.584353   -0.639099
 O    2.004337    3.960324   -0.011900
 O    1.321202    5.816931   -1.043079
 H    2.153378    0.032059   -0.556807
 H    1.128826   -0.844449   -1.525160
 H    2.807689   -1.003240   -1.803456
 H    2.178772   -2.945020   -0.763933
 H    3.333442   -1.307510    1.535868
 H    3.656763   -2.974007    1.076113
 H    5.596956   -1.699356    0.527389
 H    4.653888   -0.400023   -0.216379
 H    6.050632   -3.303614   -2.386425
 H    1.426840   -0.380259    1.743304
 H   -0.762160   -2.060029    2.733343
 H   -0.896697    0.042330    4.281511
 H    0.514000   -1.035443    4.486474
 H    0.965643    1.321249    4.216337
 H   -1.623408   -1.939878    0.581902
 H   -2.703676   -1.140853   -1.233851
 H   -3.937136    1.108272   -1.113318
 H   -3.627860    1.074873    0.640208
 H   -4.741853   -1.181986    0.743612
 H   -5.826664    0.120425    0.197618
 H   -7.114392   -2.886510   -1.853349
 H   -7.548668   -1.561618   -0.748950
 H   -6.520459   -2.909286   -0.176489
 H   -1.763861    2.020284    0.087498
 H    0.580622    2.025020   -1.721599
 H    0.592999    2.641769    1.327075
 H   -0.896290    4.291454   -0.277196
 H   -0.469154    4.227014   -1.989631
 H    2.176890    6.200545   -0.781954
