62 
2qlf_ligand_dft.xyz
 N    2.042647   -0.980176   -2.042613
 C    2.352813   -2.054706   -1.042668
 C    1.022683   -2.427066   -0.372719
 O    0.236316   -3.110007   -1.025356
 C    3.507047   -1.626811   -0.141059
 C    4.758061   -1.351315   -0.946178
 O    5.851463   -1.367221   -0.198787
 O    4.761365   -1.121013   -2.140454
 N    0.781263   -1.946366    0.854438
 C   -0.509773   -2.134603    1.518089
 C   -1.501846   -1.115058    0.923565
 O   -1.784005   -0.080451    1.519704
 C   -0.366825   -1.949434    3.027077
 C    0.240362   -0.608137    3.422368
 O    1.183929   -0.117284    2.800399
 N   -0.248009   -0.043918    4.541156
 N   -1.936091   -1.437569   -0.317688
 C   -2.451919   -0.446182   -1.267739
 C   -1.285453    0.519933   -1.527413
 O   -0.415573    0.247691   -2.351427
 C   -3.792450    0.168190   -0.859759
 C   -4.914992   -0.864033   -0.667788
 C   -6.183360   -0.153139   -0.188890
 C   -5.195146   -1.673125   -1.936951
 N   -1.233311    1.627742   -0.743861
 C   -0.035445    2.450339   -0.683642
 C    0.935452    1.766613    0.276882
 O    1.706441    0.900913   -0.091390
 C   -0.379924    3.870554   -0.249632
 C    0.893962    4.650227   -0.033343
 O    1.976787    4.121434    0.101358
 O    0.696524    5.964401    0.013407
 H    1.823205   -0.086582   -1.552250
 H    1.213528   -1.205150   -2.604324
 H    2.881466   -0.849928   -2.627405
 H    2.637199   -2.933591   -1.625651
 H    3.265935   -0.713375    0.416760
 H    3.711114   -2.411009    0.592791
 H    6.611799   -1.149570   -0.765135
 H    1.359551   -1.225578    1.294109
 H   -0.850457   -3.152175    1.304424
 H    0.297714   -2.729747    3.415185
 H   -1.346312   -2.093490    3.490443
 H    0.154621    0.826160    4.857270
 H   -1.080646   -0.379371    4.997815
 H   -1.507408   -2.262889   -0.729251
 H   -2.576071   -0.979233   -2.211910
 H   -4.082873    0.883821   -1.640236
 H   -3.686133    0.728083    0.074248
 H   -4.596108   -1.558715    0.120410
 H   -6.005234    0.402188    0.738546
 H   -6.544084    0.555830   -0.943930
 H   -6.984875   -0.873860    0.000626
 H   -5.441671   -1.011193   -2.776383
 H   -4.344899   -2.297197   -2.233841
 H   -6.045673   -2.344360   -1.783412
 H   -1.836256    1.624803    0.070876
 H    0.418839    2.445169   -1.676715
 H    0.840143    1.984008    1.351727
 H   -1.013759    4.365055   -0.989717
 H   -0.938337    3.872028    0.696533
 H    1.554721    6.390691    0.177535
