62 
2qlf_ligand_xtb.xyz
 N    2.088653   -0.634594   -1.954327
 C    2.355622   -1.877411   -1.187972
 C    1.026873   -2.334697   -0.549027
 O    0.228607   -2.949791   -1.235373
 C    3.512467   -1.606291   -0.230491
 C    4.759660   -1.224004   -1.004897
 O    5.864655   -1.508077   -0.353709
 O    4.733308   -0.703723   -2.097386
 N    0.825828   -2.002702    0.723741
 C   -0.446961   -2.251175    1.387456
 C   -1.402302   -1.164158    0.859160
 O   -1.572998   -0.115479    1.457143
 C   -0.273708   -2.139319    2.902106
 C    0.340291   -0.799486    3.282515
 O    1.337162   -0.368178    2.723194
 N   -0.236525   -0.161367    4.306303
 N   -1.931595   -1.469026   -0.336672
 C   -2.511008   -0.461967   -1.227729
 C   -1.355792    0.512052   -1.470570
 O   -0.468247    0.244050   -2.265733
 C   -3.800867    0.135711   -0.669963
 C   -4.966703   -0.865572   -0.696918
 C   -6.094501   -0.355313    0.197714
 C   -5.488988   -1.087315   -2.113654
 N   -1.328036    1.613345   -0.697003
 C   -0.145016    2.445097   -0.654755
 C    0.813104    1.837213    0.377863
 O    1.638369    0.998098    0.081439
 C   -0.439472    3.895388   -0.282043
 C    0.886189    4.463947    0.157435
 O    1.794605    3.724014    0.476480
 O    0.958854    5.770029    0.168221
 H    1.904795    0.154535   -1.263864
 H    1.252111   -0.700730   -2.553411
 H    2.959171   -0.418401   -2.479801
 H    2.631255   -2.663509   -1.901800
 H    3.277723   -0.764679    0.429220
 H    3.732336   -2.473924    0.389699
 H    6.662775   -1.236452   -0.838132
 H    1.406994   -1.334443    1.247353
 H   -0.809571   -3.245233    1.104301
 H    0.406805   -2.922798    3.241859
 H   -1.240111   -2.276851    3.384085
 H    0.148426    0.719436    4.608787
 H   -1.084678   -0.484015    4.736361
 H   -1.584125   -2.310871   -0.787381
 H   -2.709891   -0.963684   -2.177503
 H   -4.067709    1.015802   -1.258084
 H   -3.639352    0.439359    0.365082
 H   -4.608818   -1.820022   -0.295742
 H   -5.752384   -0.233070    1.222979
 H   -6.459166    0.604201   -0.161876
 H   -6.924419   -1.056393    0.197547
 H   -5.843340   -0.150373   -2.537507
 H   -4.723146   -1.494165   -2.768879
 H   -6.319394   -1.787936   -2.098301
 H   -1.946280    1.643736    0.102776
 H    0.321171    2.384358   -1.646284
 H    0.519237    1.973735    1.425466
 H   -0.860626    4.474854   -1.101967
 H   -1.131628    3.947278    0.562588
 H    1.825708    6.096930    0.466525
