51 
2qln_ligand_ani.xyz
 C    7.299452   -0.896301   -0.510779
 C    8.689314   -0.894178   -0.485742
 C    9.374632    0.122600    0.173776
 C    8.659523    1.140827    0.798586
 C    7.269836    1.144940    0.757546
 C    6.570013    0.124082    0.107223
 C    5.085852    0.117663    0.076410
 C    4.366256    1.287260   -0.192022
 C    2.981521    1.274527   -0.230671
 C    4.373258   -1.061491    0.324730
 C    2.987903   -1.076667    0.293237
 C    2.280169    0.089136   -0.005573
 C    0.792866    0.142008   -0.063632
 O    0.184897    1.188307    0.130528
 N    0.170087   -1.049371   -0.378482
 C   -1.201390   -1.305280   -0.523053
 O   -1.546895   -2.402236   -0.960595
 N   -2.029289   -0.316628   -0.147982
 C   -3.446143   -0.306864   -0.464859
 O   -3.838097    1.008201   -0.124280
 C   -5.228554    1.294176   -0.297870
 C   -5.395566    2.774748    0.025089
 O   -4.573989    3.559123   -0.806744
 C   -6.062637    0.380056    0.589783
 O   -7.424474    0.661425    0.358125
 C   -5.741685   -1.059860    0.242202
 O   -6.468735   -1.894006    1.117092
 C   -4.252015   -1.342672    0.343038
 O   -4.095779   -2.655619   -0.128705
 H    6.766284   -1.688393   -1.032581
 H    9.237853   -1.694499   -0.975562
 H   10.461013    0.121277    0.200776
 H    9.185250    1.939968    1.314615
 H    6.714260    1.938124    1.253661
 H    4.902945    2.212322   -0.389340
 H    2.420371    2.182946   -0.426693
 H    4.913760   -1.975894    0.558029
 H    2.467914   -1.999373    0.537951
 H    0.736483   -1.813830   -0.721233
 H   -1.602243    0.579808    0.074263
 H   -3.609871   -0.488569   -1.542835
 H   -5.508247    1.128390   -1.352140
 H   -5.168657    2.942795    1.091996
 H   -6.431572    3.073944   -0.150117
 H   -3.683898    3.188596   -0.721460
 H   -5.788539    0.560277    1.643923
 H   -7.928429   -0.002469    0.849378
 H   -6.050805   -1.237810   -0.803739
 H   -6.217572   -2.802490    0.896199
 H   -3.940192   -1.253160    1.398505
 H   -3.172757   -2.763786   -0.446227
