88 
2qmd_ligand_xtb.xyz
 F   -6.863207   -2.735463   -1.988093
 F   -7.950331    0.749527    0.960020
 N   -1.175534   -1.298292    0.712431
 C   -2.494609   -0.887132    0.271550
 C   -2.476398    0.660504    0.022113
 C   -2.935292    1.039352   -1.404038
 O   -3.294455    1.361064    0.915862
 N   -2.116479    0.329651   -2.432497
 C   -1.394820    1.332834   -3.253854
 C   -1.280251    2.538037   -2.320303
 C   -2.667961    2.527347   -1.655489
 C   -3.565826   -1.331850    1.272244
 C   -4.937740   -1.212707    0.662792
 C   -5.296402   -2.053222   -0.385484
 C   -6.546791   -1.928714   -0.962722
 C   -7.469153   -0.991963   -0.532938
 C   -7.088458   -0.173870    0.515539
 C   -5.843281   -0.265578    1.114934
 C    3.516668   -0.870422    0.410965
 C    3.724776   -1.601003    1.573361
 C    2.691013   -2.324964    2.164632
 C    1.424783   -2.267561    1.602017
 C    1.199201   -1.515701    0.450228
 C    2.250713   -0.835345   -0.153408
 C    4.557479    0.073209   -0.123547
 C   -0.133150   -1.308416   -0.133381
 O   -0.282720   -1.097726   -1.347636
 C    2.955472   -3.130906    3.396602
 N    5.714010   -0.432681   -0.580325
 O    4.306939    1.269229   -0.087666
 O   -0.224360    2.257858   -1.439114
 C    0.233966    3.319242   -0.589242
 C    0.204052    2.818501    0.832256
 C    1.206568    1.964066    1.277045
 C    1.125407    1.390388    2.534279
 C    0.052856    1.673753    3.364164
 C   -0.928984    2.556321    2.943246
 C   -0.854675    3.125290    1.680328
 C    5.949022   -1.839351   -0.823400
 C    5.778090   -2.216472   -2.301329
 C    4.363287   -1.958218   -2.802322
 C    6.770881    0.493831   -0.951517
 C    7.739887    0.729586    0.208900
 C    8.872493    1.659415   -0.204126
 H   -1.003935   -1.369315    1.703318
 H   -2.687990   -1.407025   -0.673159
 H   -1.433289    0.991579    0.119090
 H   -3.994109    0.791037   -1.502740
 H   -2.765100    1.714270    1.644235
 H   -2.677526   -0.287559   -3.016981
 H   -1.339278   -0.301434   -1.929114
 H   -1.966526    1.592371   -4.144722
 H   -0.414360    0.949123   -3.531308
 H   -1.098091    3.470071   -2.869011
 H   -2.696499    3.089893   -0.726300
 H   -3.402974    2.951460   -2.337445
 H   -3.508887   -0.731310    2.178977
 H   -3.375758   -2.376443    1.527731
 H   -4.627299   -2.819283   -0.746132
 H   -8.441858   -0.909927   -0.988162
 H   -5.594020    0.406161    1.918981
 H    4.701216   -1.603680    2.036855
 H    0.620743   -2.832964    2.051562
 H    2.062662   -0.248740   -1.038916
 H    3.667125   -3.926072    3.179440
 H    3.390253   -2.505502    4.174300
 H    2.042934   -3.580729    3.778020
 H   -0.392426    4.206823   -0.711006
 H    1.261005    3.558278   -0.884526
 H    2.059623    1.765507    0.646427
 H    1.910007    0.728708    2.868545
 H   -0.007260    1.230213    4.346678
 H   -1.742826    2.816369    3.605200
 H   -1.611233    3.831497    1.365017
 H    5.250692   -2.429931   -0.229172
 H    6.966505   -2.078880   -0.502000
 H    6.019310   -3.275150   -2.406638
 H    6.485519   -1.654037   -2.912333
 H    4.116513   -0.901933   -2.720535
 H    4.276356   -2.248173   -3.846167
 H    3.638959   -2.529122   -2.224542
 H    7.308150    0.096002   -1.813925
 H    6.301707    1.440428   -1.229894
 H    8.153585   -0.225921    0.540436
 H    7.188004    1.166532    1.043121
 H    9.440685    1.230155   -1.026394
 H    8.478176    2.620909   -0.523166
 H    9.549213    1.825325    0.629633
