88 
2qmd_ligand_ani.xyz
 F   -7.006632   -2.697603   -1.929352
 F   -7.816491    0.754423    1.139641
 N   -1.113565   -1.604427    0.654343
 C   -2.420066   -1.054846    0.302912
 C   -2.351523    0.499506    0.189253
 C   -3.014229    1.018236   -1.096217
 O   -2.984397    1.144009    1.287059
 N   -2.278197    0.555252   -2.334864
 C   -1.857042    1.768389   -3.109437
 C   -1.837737    2.907804   -2.096607
 C   -3.010684    2.558346   -1.175239
 C   -3.506801   -1.562735    1.253126
 C   -4.899639   -1.344662    0.691114
 C   -5.331968   -2.129919   -0.382253
 C   -6.599080   -1.929929   -0.903292
 C   -7.466400   -0.966854   -0.413403
 C   -7.005303   -0.193977    0.640812
 C   -5.747432   -0.356806    1.198073
 C    3.596638   -1.097000    0.368363
 C    3.857235   -2.153675    1.241825
 C    2.839338   -3.029868    1.639333
 C    1.551611   -2.824369    1.150140
 C    1.277458   -1.773492    0.274852
 C    2.303919   -0.920130   -0.118122
 C    4.639408   -0.070341   -0.004892
 C   -0.097033   -1.472748   -0.232552
 O   -0.293883   -1.045302   -1.375188
 C    3.133277   -4.165644    2.583670
 N    5.836751   -0.516636   -0.505731
 O    4.394762    1.126579    0.111510
 O   -0.572600    2.838462   -1.447026
 C   -0.294691    3.805571   -0.443671
 C    0.083474    3.110988    0.843263
 C    1.228935    2.312755    0.889181
 C    1.576939    1.630227    2.050220
 C    0.774030    1.725475    3.185152
 C   -0.370830    2.518612    3.149307
 C   -0.705880    3.211511    1.989980
 C    5.980265   -1.781998   -1.222977
 C    5.636188   -1.711365   -2.714565
 C    4.166647   -1.404253   -3.005680
 C    6.846712    0.511515   -0.759858
 C    7.451584    1.074787    0.523907
 C    8.633903    1.995151    0.230854
 H   -0.892316   -1.782219    1.624662
 H   -2.642058   -1.469269   -0.684720
 H   -1.299169    0.804865    0.160811
 H   -4.033968    0.625342   -1.117863
 H   -2.329935    1.210037    1.996545
 H   -2.878982   -0.061572   -2.909918
 H   -1.432823   -0.002724   -2.068575
 H   -2.578822    1.979369   -3.901318
 H   -0.874073    1.612688   -3.546806
 H   -1.965866    3.887283   -2.581921
 H   -2.922334    3.013686   -0.187236
 H   -3.942626    2.917966   -1.628091
 H   -3.415264   -1.085008    2.232410
 H   -3.339905   -2.637042    1.390921
 H   -4.699897   -2.903675   -0.813382
 H   -8.454368   -0.823680   -0.835501
 H   -5.434675    0.299789    2.004123
 H    4.868076   -2.287204    1.624251
 H    0.751532   -3.502391    1.444933
 H    2.083285   -0.101053   -0.797704
 H    3.838859   -4.877966    2.139212
 H    3.580913   -3.798395    3.514804
 H    2.222949   -4.713746    2.843014
 H   -1.147509    4.480628   -0.283252
 H    0.550553    4.412195   -0.800715
 H    1.859593    2.220570    0.005275
 H    2.481122    1.024242    2.047310
 H    1.031919    1.191103    4.094803
 H   -1.007092    2.598578    4.028711
 H   -1.607529    3.820944    1.978030
 H    5.353312   -2.532537   -0.736891
 H    7.020398   -2.109826   -1.102167
 H    5.898821   -2.680983   -3.158168
 H    6.279737   -0.965806   -3.200532
 H    3.880770   -0.399542   -2.673296
 H    3.965135   -1.466453   -4.079820
 H    3.505484   -2.116822   -2.496468
 H    7.633261    0.044875   -1.365452
 H    6.403726    1.324829   -1.351312
 H    7.770771    0.240513    1.159154
 H    6.675143    1.618864    1.070919
 H    9.438148    1.457012   -0.285555
 H    8.330880    2.834585   -0.406377
 H    9.049606    2.411682    1.154046
