85 
2qmf_ligand_dft.xyz
 C   -4.019126   -0.135210    1.600214
 C   -3.407716    0.401875    2.735502
 C   -2.020188    0.528556    2.742247
 C   -1.259371    0.121296    1.646803
 C   -1.888870   -0.399383    0.518309
 C   -3.271786   -0.541153    0.495751
 C   -3.906747   -0.941650   -0.811759
 N   -4.837860   -1.930774   -0.809758
 O   -3.569348   -0.332943   -1.826080
 C   -5.019911   -2.882349    0.290690
 C   -3.847401   -3.851135    0.468340
 C   -3.512041   -4.653604   -0.786680
 C   -5.575505   -2.189011   -2.049018
 C   -7.001366   -1.635890   -1.997354
 C   -7.049925   -0.121231   -1.808978
 C   -4.224510    0.840109    3.923396
 C    0.208352    0.356529    1.690269
 N    0.973185   -0.382622    0.834308
 O    0.717531    1.190189    2.440593
 C    2.431255   -0.403371    0.894283
 C    3.117648    0.854599    0.329066
 C    2.906745   -1.694811    0.202596
 O    2.781277    2.043554    0.996270
 C    4.408404   -1.843210    0.129649
 C    5.164781   -1.925715    1.300747
 C    6.544149   -2.040403    1.204005
 C    7.209519   -2.074093   -0.013865
 C    6.431542   -1.997086   -1.156213
 C    5.047409   -1.879575   -1.109760
 F    7.260796   -2.119042    2.323815
 F    7.029842   -2.028316   -2.348862
 C    1.342829    2.622095   -2.278076
 C    2.760347    3.074493   -2.586930
 N    3.485085    2.503658   -1.413458
 C    1.531354    1.169511   -1.807653
 C    2.946952    1.101264   -1.188145
 O    0.950812    3.456357   -1.213692
 C   -0.297321    3.288706   -0.646013
 C   -1.352299    2.632947   -1.273052
 C   -2.592196    2.578961   -0.636301
 C   -2.771223    3.164534    0.609763
 C   -1.698000    3.796598    1.236269
 C   -0.458449    3.857950    0.615306
 H   -5.104092   -0.196648    1.562469
 H   -1.513264    0.968823    3.595413
 H   -1.344625   -0.623847   -0.394584
 H   -5.208194   -2.359354    1.230449
 H   -5.932071   -3.442724    0.064935
 H   -2.965889   -3.285732    0.795775
 H   -4.101940   -4.530524    1.290571
 H   -2.685344   -5.344940   -0.597594
 H   -4.370591   -5.248133   -1.118795
 H   -3.218664   -3.995658   -1.612065
 H   -5.591404   -3.269974   -2.221372
 H   -5.017867   -1.725703   -2.864381
 H   -7.560005   -2.130343   -1.191494
 H   -7.500464   -1.912947   -2.933399
 H   -6.601461    0.171754   -0.853102
 H   -6.498818    0.391456   -2.603984
 H   -8.081919    0.241550   -1.816911
 H   -3.812107    1.747553    4.374180
 H   -5.263181    1.038751    3.644988
 H   -4.231729    0.063881    4.696793
 H    0.527244   -1.171637    0.389028
 H    2.724216   -0.430485    1.952009
 H    4.192220    0.682793    0.486605
 H    2.479235   -2.541540    0.752576
 H    2.487058   -1.736275   -0.811148
 H    2.036346    1.887808    1.624074
 H    4.703158   -1.915168    2.282591
 H    8.286817   -2.170991   -0.067023
 H    4.489008   -1.857657   -2.040676
 H    0.682993    2.718056   -3.145712
 H    3.155596    2.619278   -3.497026
 H    2.876148    4.157773   -2.609914
 H    3.202346    3.007590   -0.546822
 H    4.502526    2.533829   -1.495680
 H    0.757431    0.906750   -1.088910
 H    1.458605    0.479315   -2.652527
 H    3.591405    0.419071   -1.747626
 H   -1.241748    2.159384   -2.242926
 H   -3.399622    2.043127   -1.123203
 H   -3.737243    3.113726    1.100607
 H   -1.823342    4.243786    2.217283
 H    0.388435    4.344505    1.087116
