85 
2qmf_ligand_ani.xyz
 C   -4.031941    0.126519    1.461524
 C   -3.366184    0.671856    2.562611
 C   -1.973581    0.604793    2.589723
 C   -1.251742    0.033543    1.544603
 C   -1.934379   -0.487273    0.441736
 C   -3.326076   -0.445671    0.402032
 C   -4.035119   -0.952399   -0.835365
 N   -4.769552   -2.104290   -0.721952
 O   -3.931349   -0.352795   -1.899831
 C   -4.752451   -2.962629    0.455656
 C   -3.484767   -3.807244    0.595253
 C   -3.241468   -4.764651   -0.567739
 C   -5.486698   -2.567581   -1.906662
 C   -6.961384   -2.163567   -1.922273
 C   -7.187455   -0.652889   -1.955438
 C   -4.120629    1.330638    3.689829
 C    0.243555    0.061564    1.681395
 N    0.973618   -0.404669    0.638974
 O    0.787690    0.511356    2.694191
 C    2.427349   -0.476925    0.662876
 C    3.161665    0.861338    0.409109
 C    2.900175   -1.601566   -0.267034
 O    2.697313    1.908051    1.246798
 C    4.394185   -1.846221   -0.201058
 C    4.966930   -2.313116    0.985303
 C    6.337255   -2.507606    1.047485
 C    7.181103   -2.256790   -0.022743
 C    6.586624   -1.798477   -1.186335
 C    5.220479   -1.586838   -1.297473
 F    6.875817   -2.955753    2.194954
 F    7.369310   -1.547367   -2.250349
 C    1.523118    3.106118   -1.849482
 C    2.926891    3.690986   -1.884356
 N    3.651313    2.858047   -0.898603
 C    1.768141    1.597931   -1.709991
 C    3.142322    1.443865   -1.018941
 O    0.884973    3.661237   -0.695339
 C   -0.450220    3.453086   -0.497979
 C   -1.271932    2.701743   -1.337802
 C   -2.618816    2.542308   -1.023832
 C   -3.152701    3.121919    0.121177
 C   -2.324124    3.864626    0.958693
 C   -0.983295    4.037490    0.655681
 H   -5.119304    0.164915    1.420181
 H   -1.420037    1.012410    3.432292
 H   -1.428062   -0.924966   -0.417654
 H   -4.879718   -2.340043    1.346915
 H   -5.633734   -3.614382    0.395248
 H   -2.620131   -3.140389    0.714999
 H   -3.566413   -4.376948    1.529122
 H   -2.355400   -5.379436   -0.380157
 H   -4.090552   -5.444794   -0.715174
 H   -3.073899   -4.223339   -1.505917
 H   -5.404596   -3.660718   -1.957386
 H   -4.973257   -2.142238   -2.773888
 H   -7.468917   -2.603001   -1.051472
 H   -7.419500   -2.623244   -2.808544
 H   -6.916335   -0.180463   -1.005645
 H   -6.586678   -0.179365   -2.739667
 H   -8.241453   -0.426281   -2.146505
 H   -3.910247    2.407477    3.730461
 H   -5.200165    1.204046    3.568596
 H   -3.834134    0.908790    4.660155
 H    0.495295   -0.838055   -0.133784
 H    2.694370   -0.734871    1.695542
 H    4.218629    0.657021    0.652769
 H    2.369082   -2.515981    0.024252
 H    2.610929   -1.371838   -1.300987
 H    2.228065    1.519106    2.005786
 H    4.364614   -2.539559    1.861906
 H    8.250956   -2.414328    0.046804
 H    4.823330   -1.227850   -2.243493
 H    0.943067    3.366828   -2.741512
 H    3.349416    3.579187   -2.888528
 H    2.933069    4.742463   -1.603623
 H    3.327782    3.134015    0.062400
 H    4.673236    2.941626   -0.951511
 H    0.967048    1.118101   -1.149691
 H    1.788604    1.136937   -2.705600
 H    3.820797    0.869002   -1.651630
 H   -0.876683    2.224728   -2.230839
 H   -3.235248    1.909821   -1.659485
 H   -4.204382    2.983796    0.370245
 H   -2.724410    4.312387    1.868555
 H   -0.326828    4.617837    1.298438
