85 
2qmf_ligand_xtb.xyz
 C   -3.951501   -0.020688    1.406436
 C   -3.325848    0.653647    2.448712
 C   -1.946248    0.788311    2.419665
 C   -1.193024    0.259733    1.373844
 C   -1.835960   -0.416077    0.341184
 C   -3.214781   -0.566309    0.362989
 C   -3.874728   -1.128948   -0.863937
 N   -4.673792   -2.201955   -0.723971
 O   -3.661161   -0.578900   -1.934474
 C   -4.765572   -2.986520    0.492176
 C   -3.460630   -3.716144    0.833799
 C   -2.991746   -4.630597   -0.291238
 C   -5.421392   -2.663336   -1.881627
 C   -6.909500   -2.320088   -1.776982
 C   -7.146715   -0.815946   -1.737686
 C   -4.123265    1.226274    3.575617
 C    0.258019    0.525246    1.381349
 N    1.026915   -0.270632    0.586005
 O    0.748149    1.444331    2.026824
 C    2.480830   -0.348926    0.672789
 C    3.241136    0.908200    0.198235
 C    2.939060   -1.600180   -0.092854
 O    3.040005    2.021792    1.024356
 C    4.427371   -1.811055   -0.019039
 C    5.024567   -2.153952    1.187671
 C    6.395587   -2.336103    1.243444
 C    7.208331   -2.183830    0.133029
 C    6.588751   -1.848534   -1.055705
 C    5.219652   -1.661552   -1.149455
 F    6.952866   -2.664552    2.413036
 F    7.331719   -1.678751   -2.158522
 C    1.220352    2.864024   -1.919932
 C    2.560037    3.565993   -2.150493
 N    3.453527    2.797069   -1.272083
 C    1.630927    1.379004   -1.885645
 C    3.049841    1.360172   -1.292980
 O    0.744184    3.306135   -0.675990
 C   -0.608947    3.213591   -0.394197
 C   -1.527143    2.513707   -1.159942
 C   -2.863013    2.507507   -0.788346
 C   -3.278947    3.179106    0.344622
 C   -2.351903    3.858787    1.119454
 C   -1.021213    3.879974    0.754723
 H   -5.029938   -0.086192    1.393738
 H   -1.432604    1.323809    3.203476
 H   -1.303578   -0.791007   -0.521330
 H   -5.052077   -2.356903    1.338327
 H   -5.555336   -3.723715    0.341152
 H   -2.684271   -2.981547    1.058781
 H   -3.632487   -4.304417    1.736739
 H   -2.074207   -5.139963   -0.006989
 H   -3.743232   -5.385772   -0.508789
 H   -2.800978   -4.059346   -1.197243
 H   -5.290833   -3.743282   -1.986854
 H   -4.994274   -2.166058   -2.755238
 H   -7.335760   -2.782276   -0.883474
 H   -7.414064   -2.747333   -2.644650
 H   -6.684065   -0.374686   -0.857276
 H   -6.719190   -0.341727   -2.617511
 H   -8.211521   -0.600102   -1.709320
 H   -3.625555    2.094462    3.998610
 H   -5.118219    1.511446    3.243813
 H   -4.233436    0.483623    4.366242
 H    0.580969   -1.086614    0.194136
 H    2.759701   -0.449352    1.733149
 H    4.307709    0.648985    0.296609
 H    2.441084   -2.467727    0.345835
 H    2.628220   -1.517235   -1.135574
 H    2.149463    1.942750    1.491657
 H    4.440102   -2.295059    2.082566
 H    8.273790   -2.330726    0.191571
 H    4.789118   -1.429320   -2.110957
 H    0.502793    3.078556   -2.717901
 H    2.873835    3.480212   -3.191698
 H    2.526408    4.612778   -1.851861
 H    3.234567    3.001979   -0.228799
 H    4.445337    2.954917   -1.447543
 H    0.927264    0.811714   -1.283919
 H    1.636219    0.973199   -2.896317
 H    3.723737    0.781908   -1.926210
 H   -1.237521    1.965458   -2.042973
 H   -3.564772    1.956220   -1.394097
 H   -4.320560    3.175536    0.624784
 H   -2.667428    4.383173    2.008072
 H   -0.285948    4.404164    1.343180
