88 
2qmj_ligand_ani.xyz
 C   -5.363199   -0.072963   -0.581076
 C   -4.833227    1.322890   -1.025507
 C   -5.983703    2.219018   -1.484064
 C   -7.013794    2.421717   -0.369572
 C   -7.419674    1.118533    0.275045
 C   -8.610042    1.155929    1.193593
 C   -6.682069    0.012800    0.143324
 O   -4.082298    1.865116    0.061174
 O   -6.547447    1.551452   -2.597452
 O   -6.385804    3.284263    0.585768
 O   -9.528868    2.117924    0.712240
 C   -0.778968   -2.847635   -0.290746
 C   -1.476964   -2.350416   -1.553771
 C   -2.469192   -1.246305   -1.217725
 C   -3.423765   -1.704332   -0.117084
 C   -2.618749   -2.244153    1.077357
 C   -3.479975   -2.874860    2.158044
 N   -4.331573   -0.630044    0.376229
 O   -0.569803   -1.825373   -2.497209
 O   -3.189501   -0.937258   -2.396866
 O   -1.723790   -3.274202    0.641294
 C    4.130519   -1.348319    0.748651
 C    3.702970   -2.293878   -0.375512
 C    2.247036   -2.044859   -0.731131
 C    1.382325   -2.188572    0.514008
 C    1.914168   -1.246977    1.596505
 C    1.217519   -1.404415    2.939490
 O    4.453788   -2.117092   -1.555901
 O    1.849237   -2.980111   -1.726191
 O    0.037653   -1.825016    0.236288
 O    3.299644   -1.524065    1.858958
 O    1.741066   -0.498330    3.882735
 C    6.895498    2.946058   -0.457747
 C    7.398653    1.510636   -0.546718
 C    6.224116    0.550160   -0.670240
 C    5.246720    0.766087    0.477381
 C    4.823037    2.235046    0.495692
 C    3.953764    2.603437    1.687974
 O    6.313683    3.250328   -1.708025
 O    8.300213    1.322529   -1.619591
 O    6.721231   -0.783540   -0.660579
 O    4.076049   -0.017729    0.285449
 O    5.978314    3.085887    0.596018
 O    3.548956    3.950090    1.627945
 H   -5.450219   -0.743014   -1.432832
 H   -4.145170    1.177387   -1.859884
 H   -5.584681    3.206596   -1.763449
 H   -7.906540    2.913056   -0.773104
 H   -8.272283    1.414742    2.213437
 H   -9.067421    0.154680    1.248882
 H   -7.021529   -0.930967    0.569572
 H   -4.654701    2.514787    0.513563
 H   -7.383985    1.981048   -2.816685
 H   -7.032348    3.503026    1.269740
 H  -10.295819    2.126116    1.296998
 H   -0.161133   -3.720957   -0.527687
 H   -2.044006   -3.190925   -1.990522
 H   -1.913370   -0.365325   -0.863209
 H   -4.027603   -2.522376   -0.533410
 H   -2.029264   -1.416488    1.500246
 H   -2.836166   -3.349938    2.902519
 H   -4.105078   -2.139198    2.675094
 H   -4.129619   -3.643705    1.725518
 H   -4.859891   -0.994165    1.198048
 H   -3.798881    0.248018    0.655046
 H    0.279022   -2.291592   -2.390164
 H   -2.517595   -0.777278   -3.075508
 H    5.150874   -1.582652    1.072284
 H    3.795435   -3.332799   -0.014673
 H    2.137387   -1.026496   -1.124435
 H    1.425563   -3.226146    0.881758
 H    1.811056   -0.207860    1.254621
 H    0.149622   -1.186113    2.836436
 H    1.317730   -2.447445    3.283629
 H    5.338055   -1.791996   -1.306930
 H    2.574703   -3.000242   -2.370485
 H    2.698433   -0.640309    3.869669
 H    7.724543    3.634247   -0.251193
 H    7.953690    1.266290    0.364879
 H    5.692281    0.730398   -1.615251
 H    5.723573    0.509065    1.436435
 H    4.279549    2.459675   -0.432999
 H    3.043429    1.994680    1.686017
 H    4.503645    2.387570    2.619976
 H    5.935700    4.138218   -1.647326
 H    7.901056    1.753259   -2.389885
 H    7.523168   -0.768443   -1.206833
 H    4.363169    4.467145    1.553042
