41 
2qn3_ligand_dft.xyz
 C   -4.107381    1.326930    0.057614
 C   -5.492754    1.368678   -0.001059
 C   -6.198802    0.181961   -0.177237
Cl   -7.938457    0.224075   -0.255089
 C   -5.540460   -1.037138   -0.301262
 C   -4.153330   -1.067353   -0.230821
 C   -3.427510    0.111256   -0.041748
 C   -1.935639    0.158556    0.031148
 O   -1.315000    1.179534   -0.226402
 N   -1.317301   -1.011585    0.418837
 C    0.056785   -1.280317    0.576254
 O    0.374280   -2.385758    1.008029
 N    0.898174   -0.299785    0.220325
 C    2.326924   -0.297866    0.496911
 O    2.705285    0.984619    0.060770
 C    4.083572    1.303694    0.244109
 C    4.228499    2.763004   -0.151169
 O    3.419647    3.594604    0.645304
 C    4.927287    0.350997   -0.595129
 O    6.286879    0.652046   -0.388482
 C    4.610359   -1.067536   -0.160008
 O    5.371424   -1.946475   -0.959062
 C    3.121122   -1.385525   -0.252997
 O    2.989245   -2.669931    0.299117
 H   -3.535349    2.239918    0.181826
 H   -6.022762    2.310385    0.086501
 H   -6.105250   -1.949024   -0.458309
 H   -3.652469   -2.021770   -0.365922
 H   -1.880236   -1.789848    0.730568
 H    0.490543    0.590668   -0.056665
 H    2.502525   -0.416175    1.579755
 H    4.347298    1.191179    1.306725
 H    5.265591    3.069220   -0.001819
 H    3.989856    2.866478   -1.221808
 H    2.521578    3.245922    0.573062
 H    4.651170    0.471532   -1.655456
 H    6.784257   -0.097982   -0.742899
 H    4.902800   -1.168439    0.898581
 H    5.119947   -2.841638   -0.692741
 H    2.809791   -1.356099   -1.309526
 H    2.052253   -2.819172    0.528681
