35 
2qnz_ligand_ani.xyz
 C   25.217999   49.380856   19.782286
 C   25.482866   47.887444   19.610925
 C   24.754722   47.035489   20.648507
 C   25.029205   45.539397   20.502305
 C   24.382074   44.676424   21.591572
 C   22.864228   44.843038   21.725044
 C   22.100695   44.592599   20.425041
 C   20.583887   44.679125   20.589651
 C   19.809235   44.265183   19.336366
 C   20.141780   45.109456   18.119156
 O   19.265335   44.690327   17.055791
 C   19.419778   45.350175   15.907448
 O   20.207751   46.237017   15.704940
 H   25.757693   49.972728   19.035736
 H   24.150022   49.605997   19.678935
 H   25.533797   49.723900   20.774631
 H   25.176252   47.571602   18.603990
 H   26.562501   47.694143   19.678777
 H   25.048834   47.359989   21.657962
 H   23.675009   47.225778   20.572310
 H   24.690071   45.202102   19.512077
 H   26.115098   45.372323   20.518720
 H   24.609734   43.620721   21.387244
 H   24.849824   44.909748   22.558428
 H   22.500095   44.150164   22.496278
 H   22.632955   45.851998   22.095721
 H   22.425825   45.321205   19.669694
 H   22.368557   43.601105   20.030483
 H   20.272365   44.039334   21.426768
 H   20.307847   45.707850   20.867321
 H   20.016465   43.213451   19.097992
 H   18.732223   44.340288   19.525102
 H   19.985260   46.177800   18.303221
 H   21.177968   44.974234   17.790561
 H   18.711047   44.959010   15.162017
