35 
2qnz_ligand_xtb.xyz
 C   -6.693185   -0.632363    0.213575
 C   -5.345882   -0.161282   -0.320749
 C   -4.187849   -0.886722    0.361516
 C   -2.815883   -0.533304   -0.214773
 C   -2.383981    0.898418    0.096645
 C   -1.006048    1.248766   -0.467500
 C    0.141892    0.529016    0.237881
 C    1.501621    0.996160   -0.277096
 C    2.649731    0.273790    0.422602
 C    4.003740    0.755051   -0.090974
 O    5.082085    0.130492    0.615988
 C    5.493116   -1.041876    0.173234
 O    5.077054   -1.644182   -0.771797
 H   -6.820546   -1.699269    0.042451
 H   -6.764121   -0.447916    1.283453
 H   -7.507280   -0.106294   -0.279833
 H   -5.256513    0.914283   -0.159946
 H   -5.299310   -0.342920   -1.397041
 H   -4.343265   -1.963285    0.253491
 H   -4.199092   -0.659156    1.430179
 H   -2.832497   -0.676755   -1.297796
 H   -2.082199   -1.226548    0.200465
 H   -2.377586    1.045707    1.179275
 H   -3.112724    1.591100   -0.327857
 H   -0.852772    2.326465   -0.368255
 H   -0.982021    1.010306   -1.533196
 H    0.056284   -0.547236    0.082703
 H    0.078651    0.717755    1.312059
 H    1.599959    2.072555   -0.117055
 H    1.562797    0.813927   -1.352069
 H    2.569675   -0.801064    0.247870
 H    2.597462    0.447735    1.499568
 H    4.128468    1.826345    0.079527
 H    4.104067    0.532676   -1.158219
 H    6.315815   -1.392822    0.820532
