49 
2qo8_ligand_xtb.xyz
 C    2.517899    0.144338   -0.673171
 C    3.482324   -0.110671    0.285805
 C    3.450268   -1.234243    1.085341
 C    2.418165   -2.152200    0.939055
 C    1.493111   -0.769170   -0.816990
 C    1.445558   -1.910488   -0.012558
 C    0.239838   -2.734716   -0.350959
 C   -0.655776   -1.757886   -1.137650
 C    0.328233   -0.743522   -1.759279
 S    4.824323    1.042563    0.467524
 O    4.404622    2.341348    0.027114
 O    5.417386    0.895830    1.765097
 N    5.909636    0.439064   -0.674250
 N   -1.575390   -1.088237   -0.248174
 C   -2.900402   -0.969815   -0.511250
 O   -3.424738   -1.529331   -1.449953
 C   -3.637598   -0.066066    0.473489
 C   -5.140198   -0.353084    0.385943
 C   -6.024920    0.525811    1.268338
 C   -5.728534    0.375927    2.756422
 C   -3.255706    1.394631    0.172909
 C   -3.647145    1.855969   -1.229846
 C   -3.103813    3.248908   -1.525039
 H    2.583514    1.046219   -1.260249
 H    4.225069   -1.364579    1.823192
 H    2.374926   -3.033347    1.561135
 H   -0.268697   -3.128844    0.528564
 H    0.528974   -3.578637   -0.980760
 H   -1.276789   -2.255974   -1.885357
 H    0.641042   -1.072734   -2.752110
 H   -0.119498    0.244978   -1.857790
 H    6.112644    1.119467   -1.388334
 H    6.753243    0.101287   -0.240487
 H   -1.169273   -0.579489    0.521238
 H   -3.282845   -0.308342    1.481433
 H   -5.293777   -1.399208    0.662159
 H   -5.449035   -0.253274   -0.655085
 H   -7.064263    0.242144    1.087003
 H   -5.921737    1.573014    0.979796
 H   -4.736619    0.748566    3.000436
 H   -5.786063   -0.669581    3.051617
 H   -6.452088    0.936936    3.343770
 H   -3.721935    2.047727    0.912812
 H   -2.172757    1.504861    0.287527
 H   -4.733490    1.869388   -1.322866
 H   -3.262363    1.148370   -1.966794
 H   -3.490585    3.969560   -0.807238
 H   -3.395463    3.569082   -2.522307
 H   -2.016998    3.260494   -1.466155
