24 
2qoa_ligand_ani.xyz
 C   12.351223   -2.465062   12.620185
 C   11.628522   -1.280260   12.748884
 C   11.711515   -0.261890   11.800353
 C   12.551734   -0.411759   10.699420
 C   13.183200   -2.601192   11.518134
 C   13.286390   -1.583170   10.565717
 C   14.265938   -1.974644    9.481495
 C   14.410032   -3.499590    9.671918
 C   14.078022   -3.761048   11.156111
 S   10.583297   -1.047047   14.172976
 O   10.215056   -2.360288   14.666249
 O    9.605772   -0.032174   13.828816
 N   11.532930   -0.372695   15.357257
 H   12.242082   -3.253444   13.360616
 H   11.109528    0.633528   11.925893
 H   12.626194    0.380296    9.957454
 H   15.224062   -1.461052    9.638173
 H   13.916205   -1.707260    8.478922
 H   13.668642   -4.008676    9.045910
 H   15.397434   -3.872957    9.383895
 H   13.595364   -4.730744   11.316997
 H   14.982534   -3.742533   11.778736
 H   12.265806   -0.985984   15.693762
 H   11.845515    0.567646   15.146127
