84 
2qp8_ligand_xtb.xyz
 F    2.896750    5.546363   -2.201622
 F    0.652289    5.181863    1.904470
 C   -3.347814    0.864717    0.908119
 C   -3.077728   -0.259423    0.139638
 C   -1.798822   -0.445390   -0.366642
 C   -0.801551    0.487105   -0.105427
 C   -1.097032    1.631573    0.636641
 C   -2.371127    1.830551    1.144446
 C   -4.051312   -1.392519   -0.023753
 N   -5.259534   -1.137429   -0.558584
 O   -3.704814   -2.507339    0.333569
 C   -5.651049    0.122240   -1.150257
 C   -6.189781   -2.252776   -0.654693
 C   -6.870945   -2.559712    0.680211
 C   -7.850826   -3.716473    0.538137
 C   -6.776444    0.826546   -0.385730
 C   -7.036263    2.214125   -0.957680
 C   -2.703415    3.050970    1.942094
 C    0.554201    0.208585   -0.601318
 O    0.745752   -0.410241   -1.664283
 N    1.566372    0.604580    0.178036
 C    2.964569    0.571450   -0.207798
 C    3.570272   -0.849301    0.023297
 O    4.703374   -0.762486    0.830295
 C    3.712779    1.656720    0.578837
 C    3.068333    2.994159    0.346462
 C    3.306146    3.690775   -0.831175
 C    2.655449    4.890471   -1.059754
 C    1.752720    5.426226   -0.157643
 C    1.536574    4.715671    1.007540
 C    2.177228    3.517660    1.275325
 C    3.899696   -1.530333   -1.340636
 C    4.964731   -2.625019   -1.250375
 C    4.456169   -3.874468   -0.524000
 C    3.206401   -4.391518   -1.256753
 C    2.145173   -3.301295   -1.299230
 N    2.656560   -2.070343   -1.944158
 O    4.188123   -3.524410    0.818797
 C    4.241841   -4.588775    1.760129
 C    4.070672   -3.999694    3.149955
 H   -4.328760    0.997824    1.338492
 H   -1.572192   -1.332086   -0.937882
 H   -0.342276    2.389178    0.793429
 H   -4.776900    0.774951   -1.200014
 H   -5.983533   -0.066589   -2.178107
 H   -6.933306   -2.016426   -1.417320
 H   -5.625086   -3.136192   -0.968845
 H   -7.397145   -1.673312    1.039099
 H   -6.100906   -2.816449    1.408809
 H   -7.335563   -4.612353    0.200791
 H   -8.322506   -3.931324    1.493082
 H   -8.629493   -3.475191   -0.182403
 H   -6.505863    0.907325    0.668880
 H   -7.688859    0.232751   -0.449358
 H   -6.146077    2.835165   -0.882305
 H   -7.842478    2.701743   -0.416524
 H   -7.319023    2.148310   -2.005507
 H   -1.838791    3.698707    2.057049
 H   -3.062809    2.769438    2.930424
 H   -3.495971    3.615752    1.453828
 H    1.346169    1.059229    1.051462
 H    3.006454    0.819414   -1.275725
 H    2.807116   -1.447437    0.538149
 H    4.857450   -1.644227    1.204757
 H    4.750814    1.663232    0.249944
 H    3.701555    1.400598    1.637632
 H    4.001089    3.320282   -1.567912
 H    1.248941    6.358200   -0.351513
 H    1.991017    3.025120    2.218178
 H    4.284887   -0.755988   -2.013146
 H    5.836939   -2.220777   -0.736924
 H    5.273246   -2.910238   -2.257287
 H    5.237643   -4.647461   -0.552379
 H    2.799362   -5.261942   -0.743547
 H    3.489356   -4.699687   -2.264110
 H    1.265630   -3.633734   -1.852253
 H    1.835877   -3.060957   -0.281635
 H    1.853220   -1.286827   -1.873817
 H    2.824401   -2.268878   -2.932184
 H    5.208912   -5.102176    1.675066
 H    3.445239   -5.315140    1.555192
 H    4.869547   -3.294755    3.365214
 H    4.098112   -4.795691    3.887231
 H    3.116866   -3.484357    3.226474
