84 
2qp8_ligand_dft.xyz
 F    1.093030    5.366291   -2.320425
 F    0.099345    5.096142    2.244611
 C   -3.439320    0.587527    0.764414
 C   -3.059039   -0.605231    0.151391
 C   -1.736223   -0.777996   -0.249017
 C   -0.816524    0.245069   -0.050185
 C   -1.218622    1.449632    0.538978
 C   -2.531745    1.634136    0.957953
 C   -3.973643   -1.799803    0.023763
 N   -5.232591   -1.628597   -0.465261
 O   -3.549036   -2.892669    0.382619
 C   -5.711745   -0.444852   -1.168771
 C   -6.100354   -2.807996   -0.465572
 C   -6.748205   -3.072827    0.893233
 C   -7.645150   -4.308117    0.858750
 C   -6.893191    0.243373   -0.484570
 C   -7.291642    1.526180   -1.210728
 C   -2.971115    2.930009    1.590119
 C    0.588328    0.040637   -0.479604
 O    0.871589   -0.653934   -1.473792
 N    1.542208    0.643149    0.257939
 C    2.900123    0.843820   -0.223260
 C    3.789730   -0.415668    0.016208
 O    4.854473   -0.105302    0.867956
 C    3.479713    2.124111    0.408255
 C    2.516655    3.279566    0.260253
 C    2.281393    3.846644   -0.992809
 C    1.314092    4.832490   -1.118682
 C    0.555877    5.277983   -0.044811
 C    0.819144    4.704562    1.187405
 C    1.783251    3.719238    1.364421
 C    4.316611   -0.984075   -1.334010
 C    5.589887   -1.824713   -1.254893
 C    5.378068   -3.172413   -0.569873
 C    4.276881   -3.949461   -1.304993
 C    2.985924   -3.148290   -1.370977
 N    3.208330   -1.788720   -1.969663
 O    5.034395   -2.899419    0.776798
 C    5.125544   -3.997241    1.682441
 C    4.917865   -3.462468    3.083793
 H   -4.463374    0.708665    1.108432
 H   -1.427459   -1.718291   -0.691550
 H   -0.514673    2.272132    0.642612
 H   -4.886425    0.260262   -1.285456
 H   -6.006099   -0.744928   -2.184061
 H   -6.870908   -2.650841   -1.228391
 H   -5.503149   -3.675077   -0.763536
 H   -7.329103   -2.193302    1.196774
 H   -5.953688   -3.206876    1.634728
 H   -7.071593   -5.203653    0.595260
 H   -8.109266   -4.483379    1.833563
 H   -8.448853   -4.196418    0.121589
 H   -6.633938    0.460687    0.559081
 H   -7.745948   -0.445077   -0.450613
 H   -6.472207    2.254363   -1.204754
 H   -8.159022    1.994184   -0.737111
 H   -7.550493    1.325206   -2.256240
 H   -2.118345    3.574764    1.820019
 H   -3.516157    2.747385    2.521653
 H   -3.640508    3.484040    0.922726
 H    1.243300    1.176724    1.062091
 H    2.808906    1.012865   -1.303962
 H    3.152134   -1.171828    0.487483
 H    5.165846   -0.956510    1.219634
 H    4.438725    2.340999   -0.070805
 H    3.697927    1.937097    1.462613
 H    2.836817    3.537011   -1.872203
 H   -0.196979    6.047176   -0.164007
 H    1.953688    3.316535    2.358184
 H    4.499596   -0.148023   -2.016935
 H    6.348765   -1.241241   -0.729392
 H    5.968686   -2.000771   -2.268764
 H    6.313670   -3.747362   -0.603110
 H    4.067440   -4.903446   -0.813123
 H    4.630269   -4.192097   -2.314740
 H    2.222820   -3.636147   -1.980118
 H    2.567014   -2.991928   -0.376276
 H    2.290553   -1.252394   -1.863197
 H    3.395846   -1.892163   -2.969164
 H    6.112630   -4.468721    1.580257
 H    4.363523   -4.749765    1.439651
 H    5.692725   -2.733637    3.339229
 H    4.964761   -4.279071    3.809236
 H    3.938786   -2.982235    3.173515
