40 
2qrm_ligand_dft.xyz
 C   -2.920909    0.097136    1.295695
 C   -4.296348    0.226376    1.203235
 C   -4.905000    0.034743   -0.032193
 N   -6.364104    0.173137   -0.135643
 O   -6.979254    0.445251    0.882946
 O   -6.871257    0.006930   -1.233920
 C   -4.180890   -0.281423   -1.171595
 C   -2.801969   -0.408160   -1.066721
 C   -2.160787   -0.222369    0.161737
 C   -0.701251   -0.364350    0.256521
 C    0.230793   -0.636193   -0.890307
 N   -0.103214   -0.288788    1.387177
 O    1.261729   -0.469563    1.196495
 C    1.575249   -0.417332   -0.210983
 O    2.043082    0.844861   -0.569096
 C    3.256774    1.271718    0.072647
 C    3.510666    2.677610   -0.442290
 O    2.455691    3.545418   -0.107466
 C    4.375304    0.289070   -0.256681
 O    5.543167    0.710617    0.403998
 C    3.959128   -1.103984    0.189911
 O    4.989540   -1.995596   -0.175530
 C    2.633616   -1.499253   -0.454753
 O    2.197152   -2.761554   -0.002266
 H   -2.421398    0.244802    2.246560
 H   -4.900384    0.474469    2.066997
 H   -4.694250   -0.422341   -2.114425
 H   -2.226755   -0.656188   -1.953081
 H    0.120953   -1.666620   -1.245783
 H    0.108833    0.053381   -1.728345
 H    3.096820    1.306859    1.156566
 H    3.671791    2.631869   -1.531754
 H    4.418468    3.068640    0.021065
 H    1.645128    3.118199   -0.413440
 H    4.523588    0.270916   -1.349834
 H    6.182812   -0.009038    0.315880
 H    3.833101   -1.085841    1.285121
 H    4.675876   -2.887586    0.025635
 H    2.786118   -1.595120   -1.534706
 H    1.885462   -2.629293    0.906165
