40 
2qrm_ligand_ani.xyz
 C   -2.930330   -0.270513    1.240986
 C   -4.311774   -0.328111    1.165038
 C   -4.936596    0.090071   -0.003485
 N   -6.400183    0.026265   -0.082876
 O   -7.002527   -0.400672    0.887581
 O   -6.927933    0.403885   -1.115233
 C   -4.224371    0.566254   -1.097411
 C   -2.842825    0.617320   -1.012433
 C   -2.183566    0.198126    0.150380
 C   -0.720744    0.238911    0.239527
 C    0.229710    0.570752   -0.883120
 N   -0.110802   -0.038503    1.337618
 O    1.257461    0.076403    1.146311
 C    1.560652    0.166286   -0.256814
 O    2.537620    1.140886   -0.436736
 C    3.778340    0.877987    0.239856
 C    4.669550    2.068185   -0.090362
 O    4.079840    3.271711    0.337703
 C    4.367691   -0.455157   -0.217362
 O    5.535130   -0.699988    0.533162
 C    3.345757   -1.559232   -0.010535
 O    3.886172   -2.760098   -0.514108
 C    2.048228   -1.210360   -0.726589
 O    1.079137   -2.212318   -0.498217
 H   -2.421159   -0.588756    2.143957
 H   -4.910347   -0.690338    1.992802
 H   -4.752902    0.884383   -1.987806
 H   -2.278349    0.990045   -1.863197
 H    0.008106    0.012584   -1.801578
 H    0.222610    1.641277   -1.124041
 H    3.606449    0.845354    1.324985
 H    4.868129    2.079983   -1.175953
 H    5.627422    1.965842    0.426232
 H    3.189807    3.276471   -0.042217
 H    4.595821   -0.391506   -1.296329
 H    5.840162   -1.584646    0.287444
 H    3.138349   -1.642873    1.070182
 H    3.164551   -3.405539   -0.500961
 H    2.234565   -1.185209   -1.807549
 H    0.786146   -2.102992    0.421080
