41 
2qrq_ligand_ani.xyz
 C   -3.420529   -0.490107   -1.070158
 C   -4.795458   -0.330385   -1.158039
 C   -5.535303    0.135940   -0.067171
 C   -7.027713    0.317549   -0.164579
 C   -4.851791    0.427566    1.113902
 C   -3.475496    0.269321    1.210804
 C   -2.741251   -0.185042    0.112702
 C   -1.284870   -0.336885    0.212493
 C   -0.348164   -0.698207   -0.915418
 N   -0.676869   -0.209272    1.335036
 O    0.685315   -0.413748    1.145559
 C    1.002134   -0.435998   -0.255254
 O    1.477352    0.821841   -0.655351
 C    2.650393    1.256209    0.049438
 C    2.934747    2.661103   -0.459871
 O    1.867547    3.531383   -0.167137
 C    3.791103    0.275878   -0.205860
 O    4.920639    0.704176    0.519777
 C    3.359562   -1.113114    0.231996
 O    4.396108   -2.016262   -0.084640
 C    2.062735   -1.518195   -0.463640
 O    1.623275   -2.774100    0.010423
 H   -2.874484   -0.859669   -1.935647
 H   -5.307234   -0.569394   -2.087880
 H   -7.289259    1.045881   -0.940886
 H   -7.448693    0.672366    0.780363
 H   -7.526729   -0.624206   -0.420186
 H   -5.409353    0.786327    1.977441
 H   -2.960274    0.497443    2.138932
 H   -0.460909   -1.758527   -1.183163
 H   -0.482187   -0.097058   -1.818050
 H    2.438512    1.299191    1.127039
 H    3.826669    3.056886    0.032658
 H    3.134452    2.616224   -1.543963
 H    1.075639    3.119710   -0.540321
 H    3.997995    0.253519   -1.290527
 H    5.594462    0.018670    0.410479
 H    3.182847   -1.088265    1.321397
 H    4.044713   -2.900975    0.092456
 H    2.264107   -1.631111   -1.536083
 H    1.255325   -2.612224    0.893578
