57 
2qt5_ligand_xtb.xyz
 N   -0.005098   -0.567710    2.764848
 C   -1.128893   -1.526205    2.703007
 C   -1.392356   -1.882846    1.227913
 O   -0.851187   -2.838273    0.710782
 N   -2.220294   -1.045865    0.597967
 C   -2.483622   -1.122042   -0.827547
 C   -1.335303   -0.408859   -1.567370
 O   -0.598852   -0.972161   -2.347038
 C   -3.855131   -0.491307   -1.120418
 O   -3.885288    0.758235   -0.440545
 C   -4.989841   -1.402235   -0.663170
 N   -1.200057    0.877962   -1.203955
 C   -0.004089    1.636630   -1.518569
 C    1.127271    0.931582   -0.738474
 O    1.267884    1.113613    0.460916
 C   -0.140406    3.120819   -1.155453
 C   -0.960638    3.434496    0.108092
 C   -0.439279    2.715508    1.323939
 O    0.586392    3.327043    1.861753
 O   -0.976437    1.725889    1.799102
 N    1.853939    0.084862   -1.477653
 C    2.827376   -0.860862   -0.928546
 C    1.984142   -1.792250   -0.059371
 O    1.422713   -2.741565   -0.750099
 C    3.969975   -0.182742   -0.161116
 C    4.958197   -1.247078    0.308327
 C    4.665989    0.841542   -1.052122
 O    1.782651   -1.602252    1.124929
 H    0.785392   -0.921867    2.157315
 H    0.339763   -0.464812    3.720309
 H   -0.301698    0.379516    2.391433
 H   -0.851445   -2.448219    3.217820
 H   -2.015359   -1.095084    3.169682
 H   -2.593503   -0.225182    1.057395
 H   -2.467900   -2.171198   -1.135738
 H   -3.930563   -0.323843   -2.204600
 H   -4.767213    1.134590   -0.535379
 H   -5.952132   -0.937549   -0.867315
 H   -4.948663   -2.346751   -1.196373
 H   -4.915089   -1.596456    0.404315
 H   -1.873315    1.270037   -0.562378
 H    0.195126    1.546633   -2.592555
 H   -0.618212    3.641747   -1.985462
 H    0.864756    3.527108   -1.033835
 H   -0.877519    4.506258    0.292638
 H   -2.012827    3.185314   -0.036392
 H    1.002251    2.842034    2.590991
 H    1.500725   -0.144873   -2.397770
 H    3.225082   -1.433340   -1.769256
 H    0.704988   -3.203447   -0.259239
 H    3.544008    0.322971    0.709064
 H    4.472964   -1.973047    0.955676
 H    5.767447   -0.781965    0.863880
 H    5.386097   -1.772145   -0.542437
 H    3.975699    1.619584   -1.368308
 H    5.076814    0.360245   -1.936445
 H    5.481539    1.309859   -0.508618
