46 
2qtu_ligand_ani.xyz
 C    4.076720    0.401649   -0.656317
 C    3.762703   -0.880310   -0.202222
 C    2.444468   -1.238231    0.032037
 C    1.432906   -0.298735   -0.225000
 O    0.144413   -0.702700   -0.027652
 C   -0.810261   -0.044699   -0.852557
 C   -2.168453   -0.662418   -0.605520
 C   -2.485441   -1.269697    0.606913
 C   -3.757336   -1.783301    0.838052
 C   -4.730616   -1.700340   -0.155909
 O   -5.993304   -2.183803    0.007751
 C   -4.425208   -1.106154   -1.380840
 C   -3.153787   -0.595229   -1.592718
 C   -0.773574    1.460662   -0.581919
 C    0.644221    2.050053   -0.777030
 C    1.731067    1.001803   -0.628836
 C    3.067265    1.337661   -0.855075
 C    0.762007    3.183159    0.282912
 C   -0.618790    3.275868    0.917332
 F   -1.406300    4.126455    0.177562
 F   -0.588718    3.777242    2.182625
 C   -1.183351    1.875983    0.836222
 C    2.060124   -2.611750    0.532088
 O    3.203754   -3.422203    0.657420
 C    2.892059   -4.713719    1.111165
 O    5.362102    0.785180   -0.901756
 H    4.553317   -1.605525   -0.030701
 H   -0.532792   -0.215330   -1.903822
 H   -1.726055   -1.352012    1.379618
 H   -3.991089   -2.254604    1.792466
 H   -6.072437   -2.566032    0.890799
 H   -5.193615   -1.055059   -2.146692
 H   -2.922326   -0.133276   -2.552244
 H   -1.452600    1.953210   -1.287583
 H    0.723069    2.474434   -1.785084
 H    3.345546    2.337351   -1.178317
 H    1.065308    4.144359   -0.139518
 H    1.472793    2.907896    1.067610
 H   -2.262226    1.838719    1.010074
 H   -0.678690    1.248123    1.576154
 H    1.546229   -2.530701    1.506660
 H    1.335021   -3.072310   -0.160650
 H    2.238313   -5.244272    0.401593
 H    3.831826   -5.262816    1.205914
 H    2.394090   -4.687091    2.092911
 H    5.945416    0.036352   -0.723631
