25 
2qve_ligand_dft.xyz
 C    1.396373   -0.001002    1.366017
 C    2.716872   -0.348951    1.128362
 C    3.251150   -0.210444   -0.156800
 O    4.518787   -0.517904   -0.465769
 C    2.445820    0.269089   -1.199239
 C    1.127681    0.603213   -0.955482
 C    0.586607    0.481781    0.334697
 C   -0.829282    0.858454    0.647107
 N   -1.052310    2.350702    0.415206
 C   -1.928290    0.157056   -0.157153
 C   -1.930863   -1.355216    0.125483
 O   -1.690641   -1.762093    1.230664
 O   -2.243934   -2.058195   -0.945836
 F   -3.125171    0.674766    0.253734
 F   -1.809504    0.452718   -1.470064
 H    0.989053   -0.127351    2.365421
 H    3.330123   -0.730352    1.939892
 H    4.993381   -0.852736    0.306413
 H    2.874529    0.359053   -2.190921
 H    0.519530    0.940550   -1.789707
 H   -1.051842    0.681848    1.700903
 H   -0.394289    2.896291    0.979933
 H   -2.013114    2.625825    0.651398
 H   -0.888698    2.586915   -0.569699
 H   -2.270531   -3.000656   -0.703535
