25 
2qve_ligand_xtb.xyz
 C    1.349273   -0.146962    1.340378
 C    2.651885   -0.494369    1.049365
 C    3.202087   -0.186911   -0.195746
 O    4.458042   -0.491188   -0.532957
 C    2.412364    0.470755   -1.144648
 C    1.111108    0.810283   -0.853006
 C    0.565402    0.508332    0.396014
 C   -0.854303    0.876595    0.735292
 N   -1.089312    2.351549    0.523234
 C   -1.905326    0.144064   -0.120739
 C   -1.818592   -1.406968    0.048166
 O   -1.321386   -1.886547    1.021333
 O   -2.361618   -2.016131   -0.967585
 F   -3.138022    0.573738    0.281954
 F   -1.804826    0.526701   -1.412624
 H    0.933193   -0.403150    2.301799
 H    3.247407   -1.008563    1.789121
 H    4.922448   -0.955354    0.176556
 H    2.844689    0.696478   -2.105203
 H    0.522831    1.293501   -1.619663
 H   -1.068969    0.626028    1.779681
 H   -0.482682    2.905445    1.140082
 H   -2.077648    2.592028    0.696452
 H   -0.858551    2.577603   -0.457552
 H   -2.355586   -2.986786   -0.884656
