27 
2qw1_ligand_xtb.xyz
 O    3.833858   -0.296177    0.263636
 C    2.726336   -0.975029   -0.258179
 C    1.406413   -0.389609    0.252949
 O    1.343190    0.953915   -0.195626
 C    0.203094   -1.179547   -0.265195
 O    0.275625   -2.490505    0.222178
 C   -1.114907   -0.515033    0.168434
 O   -2.131141   -1.272028   -0.448183
 C   -3.419355   -1.104601    0.107226
 C   -1.105601    0.962862   -0.244614
 O   -2.202613    1.636653    0.317026
 C    0.195798    1.622911    0.246934
 O    0.220320    2.919529   -0.249794
 H    3.721170    0.640303    0.061673
 H    2.722749   -0.934610   -1.356053
 H    2.801103   -2.012898    0.066754
 H    1.401113   -0.409996    1.353928
 H    0.226532   -1.177500   -1.367267
 H   -0.567474   -2.912866    0.007396
 H   -1.217974   -0.570978    1.264392
 H   -3.427234   -1.402518    1.162004
 H   -3.756797   -0.070236    0.027174
 H   -4.076429   -1.757418   -0.463875
 H   -1.129996    1.026234   -1.343258
 H   -2.076086    2.580290    0.154553
 H    0.181077    1.631607    1.359984
 H    1.133664    3.227768   -0.246624
