27 
2qw1_ligand_ani.xyz
 O    3.812563   -0.235487    0.255809
 C    2.732123   -0.986105   -0.246417
 C    1.403451   -0.419073    0.238941
 O    1.340785    0.923145   -0.247864
 C    0.192504   -1.202177   -0.251108
 O    0.251795   -2.500023    0.298674
 C   -1.111966   -0.519115    0.158987
 O   -2.129433   -1.242522   -0.494175
 C   -3.424159   -1.038249    0.042788
 C   -1.091185    0.958022   -0.208608
 O   -2.174455    1.609766    0.423411
 C    0.213622    1.612084    0.240851
 O    0.222967    2.913127   -0.268425
 H    3.654536    0.679582   -0.013411
 H    2.734779   -1.012674   -1.349234
 H    2.846320   -2.010686    0.116024
 H    1.408354   -0.406649    1.342250
 H    0.220064   -1.232371   -1.353631
 H   -0.541641   -2.959169   -0.009017
 H   -1.231984   -0.607566    1.251550
 H   -3.420981   -1.172434    1.133638
 H   -3.805540   -0.038772   -0.190648
 H   -4.072779   -1.796234   -0.404054
 H   -1.155339    1.038628   -1.305021
 H   -2.123551    2.540396    0.167893
 H    0.257819    1.623861    1.348017
 H    1.149834    3.177724   -0.326400
