43 
2qwe_ligand_xtb.xyz
 C   -1.676054   -1.220673    2.541172
 C   -0.628478   -0.816744    1.569736
 C    0.511232   -0.268441    2.006960
 C    1.595062    0.174301    1.076994
 C    1.328731   -0.391506   -0.334535
 C   -0.171933   -0.384051   -0.693440
 C   -0.741067    1.023090   -0.962407
 C   -2.031232    0.981734   -1.801943
 C   -3.134427    0.128389   -1.166120
 C    2.119890   -2.330109   -1.603033
 C    2.565367   -3.770144   -1.480425
 N    1.834833   -1.746553   -0.408525
 N    1.695868    1.612769    1.124443
 C    2.782912    2.289379    0.591711
 N    2.538495    3.634095    0.401304
 N    3.921365    1.830916    0.277665
 O   -1.521660   -1.238004    3.736043
 O   -2.829442   -1.560339    1.957199
 O   -0.936530   -1.080068    0.273986
 O   -1.005222    1.706431    0.240771
 O   -2.467648    2.321943   -1.892917
 O   -4.318473    0.385468   -1.901124
 O    2.040175   -1.729048   -2.650530
 H    0.635471   -0.092429    3.061794
 H    2.557593   -0.229255    1.426266
 H    1.865632    0.193214   -1.089846
 H   -0.284936   -0.958652   -1.620352
 H    0.006078    1.581895   -1.549146
 H   -1.804833    0.591535   -2.804448
 H   -2.862955   -0.929645   -1.208322
 H   -3.263627    0.418957   -0.115745
 H    3.424219   -3.840913   -0.817339
 H    1.758077   -4.376345   -1.074949
 H    2.836070   -4.145222   -2.462674
 H    1.752152   -2.317502    0.417836
 H    0.798719    2.072795    1.028151
 H    3.381933    4.159374    0.230934
 H    1.899885    4.066902    1.049624
 H    4.026977    0.826981    0.351388
 H   -3.474564   -1.816834    2.635653
 H   -1.601637    2.430751   -0.006615
 H   -3.376697    2.290186   -2.219926
 H   -5.017093   -0.186807   -1.571960
