43 
2qwg_ligand_ani.xyz
 C    0.924082    2.804190   -0.676638
 O    1.074252    3.829117   -0.049928
 O    1.490307    2.587316   -1.874808
 C    0.093303    1.662360   -0.206490
 C   -0.610253    1.742758    0.928922
 C   -1.535661    0.655632    1.386144
 C   -1.536295   -0.532936    0.379083
 N   -2.564087   -0.331313   -0.627834
 C   -3.841342   -0.771783   -0.428886
 O   -4.158593   -1.374406    0.585643
 C   -4.805803   -0.459308   -1.553588
 C   -0.200515   -0.655792   -0.359584
 O    0.095374    0.580676   -1.031150
 C    0.988060   -1.074899    0.526708
 O    0.855463   -1.216844    1.744293
 N    2.185996   -1.250431   -0.077018
 C    3.340840   -1.516838    0.786681
 C    3.894538   -0.249806    1.428307
 C    2.397899   -1.300373   -1.523913
 C    2.299513   -2.712414   -2.096156
 N   -1.149590    0.202611    2.771058
 H    1.991169    3.398733   -2.066594
 H   -0.522812    2.639439    1.526853
 H   -2.555323    1.039824    1.452265
 H   -1.769878   -1.460826    0.897124
 H   -2.339441    0.263599   -1.413444
 H   -5.787909   -0.852892   -1.290381
 H   -4.473206   -0.918986   -2.490518
 H   -4.883483    0.621371   -1.715990
 H   -0.324977   -1.399838   -1.150820
 H    4.109005   -1.994530    0.167125
 H    3.038007   -2.232696    1.558073
 H    3.152289    0.201354    2.092887
 H    4.171685    0.488881    0.666528
 H    4.785975   -0.484205    2.020483
 H    1.693521   -0.627641   -2.015147
 H    3.400544   -0.893774   -1.708284
 H    2.502912   -2.700466   -3.172490
 H    1.300033   -3.137438   -1.946984
 H    3.026327   -3.382326   -1.621388
 H   -0.876895    1.027740    3.331976
 H   -0.319602   -0.435937    2.645949
 H   -1.928803   -0.297081    3.233394
