23 
2qx0_ligand_ani.xyz
 N   41.717746    3.401128    6.561364
 C   42.225535    4.556170    6.828171
 C   42.621261    5.019962    8.204275
 N   42.251589    4.049399    9.210211
 N   41.511021    2.017328    9.982025
 C   41.004253    0.857120    9.691960
 N   40.772996   -0.060291   10.685077
 N   40.715362    0.441655    8.417165
 C   40.943903    1.206419    7.253972
 O   40.693792    0.744572    6.162834
 C   41.485179    2.522606    7.571299
 C   41.742075    2.839759    8.913046
 C   42.435891    5.514976    5.699893
 O   43.575740    6.295954    6.007395
 H   43.702507    5.226187    8.218807
 H   42.139304    5.989234    8.413022
 H   42.430572    4.226573   10.187543
 H   39.973675   -0.666376   10.567451
 H   40.839123    0.344633   11.609494
 H   40.408707   -0.507074    8.236090
 H   42.554008    4.935493    4.776251
 H   41.538251    6.146444    5.599347
 H   43.721509    6.912129    5.281307
