41 
2qyk_ligand_xtb.xyz
 C   -4.673762   -0.462034    0.081280
 C   -4.476869    0.782242   -0.514900
 C   -3.214703    1.340589   -0.562150
 C   -2.121955    0.674647   -0.009015
 C   -3.574639   -1.148486    0.596368
 C   -0.774660    1.259494   -0.015144
 C    3.407778    3.798376   -0.168490
 C   -0.546470    2.618049   -0.090193
 C    0.778005    3.086237   -0.104345
 C    1.116514    4.454564   -0.207397
 C   -6.009486   -1.119784    0.176140
 O   -6.145644   -2.301472    0.331191
 O   -7.084932   -0.312073    0.097085
 C   -2.316798   -0.587005    0.555332
 N    0.236300    0.379691    0.091804
 C    2.434401    4.813412   -0.236002
 N    3.131387    2.529780   -0.063655
 C    1.842982    2.146837   -0.017272
 C    1.487035    0.767743    0.103652
 C    2.479606   -0.308895    0.232298
 C    2.123299   -1.585357   -0.197188
 C    3.743357   -0.112143    0.789318
 C    4.638503   -1.164008    0.900721
 C    4.293876   -2.429012    0.464145
 C    3.029734   -2.626167   -0.081128
 N    2.655641   -3.943217   -0.538528
 O    3.480827   -4.826713   -0.440597
 O    1.541889   -4.087368   -0.993426
 H   -5.294927    1.315197   -0.983391
 H   -3.079821    2.291952   -1.054216
 H   -3.736720   -2.123501    1.029578
 H    4.460696    4.047698   -0.203125
 H   -1.356886    3.330072   -0.122463
 H    0.326825    5.190259   -0.269250
 H   -6.843132    0.620196    0.021835
 H   -1.463734   -1.109494    0.957847
 H    2.736913    5.845877   -0.315688
 H    1.146761   -1.760943   -0.621475
 H    4.021833    0.870768    1.131132
 H    5.612133   -0.993927    1.333847
 H    4.975163   -3.262711    0.537815
