41 
2qyk_ligand_ani.xyz
 C   94.667671   66.117223   16.289361
 C   95.619461   67.032240   16.748363
 C   96.213903   66.841986   17.986589
 C   95.872007   65.740105   18.776624
 C   94.328425   65.012287   17.072055
 C   96.492735   65.524682   20.116171
 C   98.780461   65.503487   24.453804
 C   97.002399   66.552522   20.873996
 C   97.601684   66.264675   22.118537
 C   98.200368   67.255665   22.938919
 C   93.991200   66.269022   14.977291
 O   93.163773   65.505366   14.533163
 O   94.386743   67.364669   14.296114
 C   94.930819   64.821529   18.303391
 N   96.498701   64.242945   20.545429
 C   98.795186   66.874127   24.107300
 N   98.214811   64.568399   23.733029
 C   97.626968   64.921704   22.566849
 C   97.002972   63.922672   21.715719
 C   96.902673   62.487925   22.077876
 C   96.791739   61.584671   21.014240
 C   96.826953   62.000942   23.386833
 C   96.652772   60.639600   23.622227
 C   96.554062   59.739513   22.567605
 C   96.628265   60.240646   21.276591
 N   96.510101   59.319053   20.139075
 O   96.390939   58.131627   20.385780
 O   96.537046   59.798180   19.018582
 H   95.884055   67.887815   16.135456
 H   96.965488   67.550109   18.325649
 H   93.591117   64.312345   16.691627
 H   99.250066   65.183123   25.382389
 H   96.942823   67.583074   20.537551
 H   98.185714   68.296170   22.623134
 H   93.878818   67.349644   13.468658
 H   94.686474   63.962149   18.920750
 H   99.274771   67.591779   24.765825
 H   96.832608   61.940478   19.993755
 H   96.920840   62.692406   24.217177
 H   96.598986   60.272235   24.642786
 H   96.421403   58.676213   22.727731
