72 
2qzk_ligand_xtb.xyz
 C   -0.120739    0.329298   -1.042191
 C   -0.996532    1.383645   -0.827508
 C   -2.332508    1.262430   -1.195623
 C   -2.800458    0.068953   -1.734277
 C   -1.935410   -1.000441   -1.905334
 C   -0.586159   -0.845797   -1.609692
 C    1.180571    0.270236   -0.301685
 C   -2.430979   -2.422554   -1.982836
 O   -1.930374   -3.075219   -0.790248
 N    2.286476    0.574883   -0.964463
 C    3.648393    0.742492   -0.449289
 C   -1.303265   -2.877012    1.546050
 C    4.000871   -0.179050    0.724194
 C    4.238165   -1.641274    0.326585
 N   -0.754971   -1.594472    2.076045
 C   -0.180460   -3.884989    1.252189
 C    3.020175   -2.372542   -0.162599
 C    2.002757   -2.732399    0.716111
 C    0.899881   -3.460880    0.286806
 C    0.849319   -3.880221   -1.038383
 C    1.847722   -3.518334   -1.925364
 C    2.917837   -2.754626   -1.493448
 C    5.130716    4.227068   -0.179421
 C    4.927667    2.911838   -0.560212
 C    3.857055    2.190575   -0.050357
 C    2.989586    2.805014    0.844339
 C    3.190633    4.120680    1.221161
 C    4.261541    4.834420    0.710220
 C   -2.189882   -2.462522    0.349216
 C   -2.248505   -3.443016    2.609353
 O    1.119270   -0.116483    0.869451
 O   -3.025372   -1.609899    0.504275
 C   -3.992644    3.143251   -1.555441
 C   -4.882893    4.059297   -1.014500
 C   -5.090308    4.118687    0.355726
 C   -4.417532    3.255673    1.200297
 C   -3.519982    2.335161    0.661291
 C   -3.294855    2.281956   -0.728378
 C   -2.850629    1.391063    1.459835
 N   -2.292978    0.584273    2.059482
 H   -0.655399    2.275378   -0.321682
 H   -3.857582   -0.053754   -1.913542
 H    0.081463   -1.687702   -1.710762
 H   -2.005510   -2.992276   -2.809154
 H   -3.522075   -2.468034   -2.005168
 H    2.162123    0.911691   -1.908787
 H    4.314230    0.507424   -1.287961
 H    3.227174   -0.114084    1.485283
 H    4.927335    0.206550    1.154926
 H    4.623030   -2.161633    1.206923
 H    5.011246   -1.678138   -0.443603
 H   -1.503495   -0.827633    2.121750
 H    0.022731   -1.152233    1.494307
 H   -0.390356   -1.735299    3.020180
 H   -0.652513   -4.789498    0.867025
 H    0.285584   -4.137041    2.208498
 H    2.101706   -2.464161    1.758491
 H    0.030121   -4.497485   -1.372532
 H    1.799282   -3.845253   -2.953163
 H    3.698922   -2.486982   -2.189684
 H    5.967955    4.777657   -0.579906
 H    5.609865    2.442333   -1.254277
 H    2.156375    2.252106    1.252478
 H    2.511895    4.588335    1.918548
 H    4.418726    5.860132    1.006223
 H   -3.037745   -2.725839    2.824473
 H   -2.712560   -4.359542    2.255728
 H   -1.708462   -3.669789    3.525871
 H   -3.831409    3.100449   -2.622002
 H   -5.419261    4.730082   -1.667586
 H   -5.784374    4.835191    0.765971
 H   -4.581816    3.282579    2.266851
