91 
2qzl_ligand_ani.xyz
 O    0.392017   -4.870209    0.123868
 S    0.398855   -3.423048    0.221918
 O    1.641411   -2.682166    0.038090
 C   -0.255947   -2.971894    1.815483
 N   -0.742615   -2.858364   -0.879667
 C   -1.959122   -3.657167   -0.999297
 C   -0.870067   -1.437023   -1.022562
 C   -1.954827   -0.745287   -0.486516
 C   -2.012285    0.647167   -0.589131
 C   -3.119532    1.463492    0.002018
 O   -2.989295    2.660796    0.221255
 N   -4.272916    0.791456    0.276111
 C   -5.435706    1.497040    0.807717
 C   -5.276782    1.761270    2.309120
 C   -6.699661    0.719966    0.501286
 C   -7.769246    1.330381   -0.153096
 C   -8.947662    0.637557   -0.413665
 C   -6.832994   -0.612264    0.901132
 C   -8.002476   -1.322278    0.654386
 C   -9.041897   -0.682226   -0.004014
 F  -10.175010   -1.364307   -0.249222
 C    0.115399   -0.740494   -1.719515
 C    0.078541    0.651134   -1.792035
 C   -0.978615    1.343753   -1.208052
 C    1.245683    1.362493   -2.407486
 O    1.763123    1.026655   -3.474656
 N    1.767677    2.348919   -1.633891
 C    3.126669    2.832944   -1.833279
 C    3.314321    4.178040   -1.117001
 C    3.028675    4.149095    0.366798
 C    4.005010    3.743481    1.280752
 C    3.731888    3.697342    2.644534
 C    2.473938    4.058608    3.118678
 C    1.494546    4.471321    2.220972
 C    1.772798    4.516237    0.856667
 C    4.173086    1.769891   -1.419912
 N    4.134565    0.565736   -2.293841
 C    3.672138   -0.709129   -1.673437
 C    3.295815   -1.715712   -2.757766
 C    4.849165   -1.272704   -0.872557
 O    5.987182   -0.968192   -1.211991
 N    4.523161   -2.108213    0.135995
 C    5.493444   -2.586083    1.097060
 C    5.296721   -1.980608    2.493700
 C    3.926180   -2.341561    3.073224
 C    6.415887   -2.444155    3.425841
 H   -0.432656   -1.892363    1.842533
 H    0.491551   -3.246963    2.563143
 H   -1.179722   -3.524281    2.002653
 H   -2.484937   -3.322728   -1.894548
 H   -2.633527   -3.572369   -0.135654
 H   -1.668604   -4.700515   -1.123609
 H   -2.729767   -1.294301    0.043810
 H   -4.423655   -0.113181   -0.147763
 H   -5.482780    2.468866    0.304637
 H   -6.139458    2.318531    2.687403
 H   -5.197986    0.817647    2.860950
 H   -4.370519    2.346807    2.484208
 H   -7.681468    2.367100   -0.472929
 H   -9.784015    1.103878   -0.925114
 H   -6.015559   -1.108288    1.423110
 H   -8.115661   -2.359043    0.955090
 H    0.927272   -1.294798   -2.170662
 H   -1.028539    2.429094   -1.228041
 H    1.373050    2.464646   -0.708454
 H    3.236259    3.005019   -2.909024
 H    4.342068    4.522239   -1.291727
 H    2.653945    4.907912   -1.600396
 H    4.992235    3.456515    0.918596
 H    4.505055    3.379010    3.338411
 H    2.259242    4.021780    4.183301
 H    0.508580    4.754539    2.580318
 H    1.003581    4.842813    0.157396
 H    5.176181    2.209240   -1.469900
 H    4.005323    1.458183   -0.384107
 H    5.116577    0.331550   -2.565786
 H    3.542823    0.761644   -3.122053
 H    2.825183   -0.503196   -1.013738
 H    4.188270   -2.018679   -3.319233
 H    2.585052   -1.269466   -3.460578
 H    2.844050   -2.609891   -2.319112
 H    3.544659   -2.353243    0.249087
 H    6.483892   -2.329566    0.709195
 H    5.434184   -3.682370    1.166428
 H    5.354599   -0.886849    2.386110
 H    3.808326   -3.431656    3.135655
 H    3.096995   -1.952952    2.471119
 H    3.816803   -1.935894    4.085504
 H    6.381446   -3.533605    3.555248
 H    7.403482   -2.183655    3.028465
 H    6.318458   -1.987209    4.416636
