84 
2r0h_ligand_dft.xyz
 C    3.796888   -0.348905   -0.044389
 C    4.921616   -1.257827   -0.563642
 N    4.696802   -2.571392    0.035507
 C    5.571209   -3.539956    0.393362
 O    6.795902   -3.448540    0.332215
 C    4.935475   -4.819376    0.902894
 C    6.273355   -0.592793   -0.247841
 O    7.363639   -1.174282   -0.912229
 C    6.276423    0.877127   -0.692216
 O    7.459925    1.495126   -0.253350
 C    5.066101    1.603994   -0.127139
 O    3.916343    0.917149   -0.612367
 C    4.892729    3.052258   -0.537384
 O    3.798436    3.636507    0.125675
 C   -1.239812    0.465654   -0.102163
 C   -0.297950    1.285979    0.769376
 N   -0.646892    2.690691    0.644136
 C   -0.338370    3.590015    1.605930
 O    0.452136    3.339407    2.516994
 C   -1.002483    4.941916    1.489199
 C    1.161318    0.987066    0.362489
 O    2.069781    1.573394    1.270197
 C    1.416455   -0.537341    0.290397
 O    2.582147   -0.903200   -0.437898
 C    0.288457   -1.267105   -0.443022
 O   -0.959373   -0.885645    0.093403
 C    0.303322   -2.785384   -0.309743
 O   -0.841032   -3.340098   -0.900400
 C   -6.430715    0.192694   -0.822996
 O   -7.603848   -0.071781   -1.506994
 C   -5.680030   -1.123267   -0.644005
 N   -6.443686   -2.161061    0.035739
 C   -7.037826   -1.958195    1.259102
 O   -6.774064   -0.999762    1.965468
 C   -8.038365   -3.022682    1.661248
 C   -4.332215   -0.886260    0.051655
 O   -3.564412   -2.073704    0.003145
 C   -3.542590    0.238766   -0.621275
 O   -2.545407    0.712005    0.272731
 C   -4.431018    1.447308   -0.976375
 O   -5.624619    1.042354   -1.617555
 C   -3.805359    2.405828   -1.986505
 O   -2.653598    3.037422   -1.451349
 H    3.845688   -0.275193    1.055283
 H    4.818250   -1.326158   -1.654084
 H    3.715059   -2.808685    0.071930
 H    3.860929   -4.737057    1.086882
 H    5.109454   -5.610370    0.167374
 H    5.438997   -5.111102    1.826939
 H    6.422188   -0.608489    0.844884
 H    7.451655   -2.072185   -0.531118
 H    6.204058    0.894594   -1.792184
 H    8.166951    0.872241   -0.478401
 H    5.086184    1.561178    0.973659
 H    4.769093    3.089913   -1.632499
 H    5.798576    3.609383   -0.279073
 H    3.174502    2.924913    0.357761
 H   -1.090665    0.724064   -1.168623
 H   -0.450210    0.965311    1.808120
 H   -1.424335    2.893129    0.021335
 H   -1.760603    4.979083    0.702715
 H   -0.233783    5.693656    1.289235
 H   -1.462287    5.187208    2.449581
 H    1.333849    1.402391   -0.640642
 H    1.575405    2.146606    1.897947
 H    1.493979   -0.905650    1.325081
 H    0.334734   -0.999651   -1.511167
 H    1.176293   -3.196614   -0.823443
 H    0.377892   -3.040018    0.761698
 H   -1.603168   -2.836986   -0.563835
 H   -6.617838    0.676846    0.147359
 H   -8.102223    0.752042   -1.574866
 H   -5.476064   -1.496394   -1.652898
 H   -6.888134   -2.837524   -0.567361
 H   -8.993819   -2.832001    1.159981
 H   -8.194576   -2.967755    2.738687
 H   -7.703875   -4.027987    1.387499
 H   -4.515335   -0.585989    1.090140
 H   -4.084176   -2.752990    0.452466
 H   -3.083960   -0.165352   -1.534376
 H   -4.650708    1.987199   -0.041428
 H   -3.555640    1.837317   -2.893088
 H   -4.569609    3.147807   -2.248687
 H   -2.271627    3.593704   -2.139663
