63 
2r1w_ligand_xtb.xyz
 C   -1.255890   -0.217359    2.471437
 O   -0.502155   -0.722992    3.259347
 O   -1.964264    0.867720    2.724690
 C   -1.546241   -0.814326    1.081209
 C   -2.426732   -2.051761    1.338191
 C   -2.923578   -2.610719    0.004398
 O   -3.829521   -3.676215    0.183350
 C   -3.681768   -1.486002   -0.718058
 O   -4.800090   -1.096012    0.034050
 C   -2.741287   -0.288912   -0.905813
 O   -2.195277    0.163002    0.325762
 C   -3.513453    0.876645   -1.562727
 O   -3.968496    0.488844   -2.829056
 C   -2.634462    2.125774   -1.684333
 O   -1.608154    1.826146   -2.608343
 C    0.011456    3.324806    3.235832
 C    1.134043    3.163162    2.562388
 C    1.226683    3.174126    1.066978
 O    2.104528    2.124957    0.675793
 C    1.900469    1.522266   -0.595214
 C    1.891063    2.619392   -1.662422
 O    0.905624    3.186550   -2.042581
 C    0.620553    0.678138   -0.637596
 O    3.020132    0.740279   -0.865295
 C    3.222748   -0.353067    0.019564
 C    4.476837   -1.077737   -0.503257
 O    4.366341   -1.459068   -1.848262
 C    4.845373   -2.306932    0.347821
 O    6.076646   -2.827644   -0.074326
 C    1.982499   -1.261619    0.130015
 O    1.784290   -1.998680   -1.054567
 C    0.748842   -0.397901    0.434153
 O   -0.363551   -1.288988    0.474451
 H   -1.779985    1.196178    3.622407
 H   -3.291912   -1.745026    1.929271
 H   -1.837484   -2.784358    1.890516
 H   -2.068299   -2.929563   -0.608735
 H   -3.397186   -4.380706    0.677639
 H   -3.994427   -1.833444   -1.713650
 H   -5.311037   -1.897909    0.204168
 H   -1.925793   -0.596023   -1.577756
 H   -4.391226    1.088099   -0.947751
 H   -3.219299    0.591081   -3.433387
 H   -3.248913    2.957376   -2.055280
 H   -2.240275    2.387047   -0.697209
 H   -0.933370    2.517371   -2.575359
 H   -0.001838    3.331223    4.312589
 H   -0.931505    3.484083    2.737971
 H    2.077429    3.002536    3.063321
 H    0.233205    3.056295    0.623343
 H    1.641769    4.137123    0.728890
 H    2.900948    2.865987   -2.024401
 H   -0.261387    1.286707   -0.459466
 H    0.543217    0.221659   -1.625928
 H    3.428433    0.032979    1.027642
 H    5.310635   -0.366197   -0.468374
 H    3.476525   -1.817977   -1.977627
 H    4.059766   -3.069628    0.243267
 H    4.952039   -2.039135    1.400715
 H    6.070561   -2.804643   -1.041905
 H    2.133839   -1.951425    0.974243
 H    0.885078   -2.348165   -1.016587
 H    0.889151    0.077423    1.411940
