60 
2r1x_ligand_xtb.xyz
 O    6.298620   -1.258719   -1.190952
 C    5.324873   -2.072424   -0.780835
 O    5.370105   -3.268707   -0.914798
 C    4.189390   -1.346394   -0.149320
 O    4.363911   -0.008990   -0.070302
 C    3.226290    0.731335    0.351324
 C    3.719831    2.124249    0.756274
 C    4.526531    2.772326   -0.374178
 O    4.881848    4.069042    0.066310
 O    2.602114    2.913628    1.074378
 C    2.490414    0.031453    1.490352
 C    3.120433   -2.022965    0.289999
 C    1.987409   -1.320879    0.984141
 C   -5.102665    0.595395   -1.275295
 O   -5.777224    1.731551   -1.125203
 O   -5.419106   -0.266041   -2.047219
 C   -3.913354    0.500414   -0.300612
 C   -4.454577   -0.067273    1.021015
 C   -3.280837   -0.399138    1.953195
 O   -3.718670   -0.956483    3.158649
 C   -2.334332   -1.370346    1.221553
 O   -3.023561   -2.593372    1.086862
 C   -1.896684   -0.749458   -0.111430
 O   -3.014505   -0.385144   -0.915930
 C   -1.084114   -1.699171   -1.011498
 O   -1.855472   -2.817399   -1.388801
 C    0.191695   -2.190329   -0.326621
 O    0.888088   -1.054103    0.122943
 O   -3.344964    1.742459   -0.018751
 C   -2.725571    2.406167   -1.116160
 C   -1.275936    2.707224   -0.853865
 C   -0.694022    2.629242    0.327755
 H    7.016267   -1.776407   -1.590241
 H    2.527397    0.828454   -0.492037
 H    4.377122    2.031157    1.635289
 H    3.901942    2.831137   -1.275997
 H    5.409232    2.160801   -0.584671
 H    5.445849    4.481424   -0.594363
 H    2.917325    3.826714    1.116925
 H    1.653140    0.653997    1.797159
 H    3.167137   -0.119214    2.332071
 H    3.091274   -3.091037    0.156262
 H    1.638977   -1.942091    1.826224
 H   -6.548757    1.749532   -1.716302
 H   -5.105346    0.670199    1.487318
 H   -5.013479   -0.981652    0.811942
 H   -2.747947    0.521112    2.207550
 H   -3.981421   -1.867277    2.965714
 H   -1.436035   -1.514732    1.843577
 H   -2.671142   -3.053497    0.307346
 H   -1.283426    0.134040    0.105457
 H   -0.799016   -1.122563   -1.903580
 H   -2.661584   -2.470948   -1.799204
 H   -0.062604   -2.853771    0.511866
 H    0.783173   -2.767058   -1.049857
 H   -3.270210    3.345818   -1.286747
 H   -2.810316    1.792854   -2.021517
 H   -0.726082    3.009371   -1.735083
 H   -1.260558    2.344601    1.198865
 H    0.350948    2.840680    0.473798
