65 
2r23_ligand_ani.xyz
 O    1.837599   -2.635515   -1.778369
 C    1.363982   -2.638793   -0.539237
 O    0.705880   -3.556656   -0.089400
 C    1.735220   -1.388289    0.263267
 O    2.104395   -0.406152   -0.662290
 C    2.645238    0.795576   -0.102199
 C    2.856409    1.782284   -1.248971
 C    3.062756    3.209381   -0.755313
 O    3.415031    3.969090   -1.905715
 O    3.985717    1.408386   -2.027074
 C    3.905215    0.462625    0.708575
 O    4.902077   -0.148629   -0.095470
 C    3.513860   -0.515518    1.825038
 O    4.611905   -0.858403    2.626410
 C    2.888056   -1.770027    1.204673
 O    3.877373   -2.523991    0.543789
 O    0.659743   -1.007629    1.086732
 C   -3.247934    1.574884    2.330838
 O   -3.304176    2.726458    2.679164
 O   -3.863677    0.583657    2.990220
 C   -2.433200    1.049821    1.140715
 C   -1.194085    0.335172    1.658937
 C   -0.456069   -0.324543    0.508359
 C   -1.409961   -1.283368   -0.219529
 O   -1.728244   -2.389546    0.598555
 C   -2.692546   -0.550318   -0.626515
 O   -3.282047    0.162078    0.457767
 C   -3.778141   -1.484496   -1.173847
 O   -4.310301   -2.378523   -0.211992
 C   -3.316482   -2.325389   -2.363683
 O   -4.380874   -3.136320   -2.795149
 O   -2.006735    2.102147    0.328937
 C   -3.022762    2.929602   -0.251229
 C   -2.424613    3.562601   -1.472865
 C   -2.365333    4.871958   -1.686924
 H    1.590404   -3.499195   -2.149777
 H    1.910302    1.234905    0.590478
 H    1.960231    1.751666   -1.884570
 H    2.139796    3.587786   -0.292763
 H    3.873109    3.234596   -0.011712
 H    3.807060    4.802696   -1.622734
 H    4.248450    2.217004   -2.497673
 H    4.326530    1.367346    1.181109
 H    4.906033    0.327192   -0.952273
 H    2.779708   -0.024991    2.474695
 H    5.144036   -1.463894    2.085756
 H    2.484809   -2.397008    2.006540
 H    4.330313   -1.904981   -0.060636
 H   -4.318091    1.007790    3.736666
 H   -0.544781    1.052064    2.170145
 H   -1.490647   -0.435729    2.374888
 H   -0.117949    0.425792   -0.213598
 H   -0.916962   -1.618598   -1.146212
 H   -0.925319   -2.935478    0.672123
 H   -2.419598    0.160536   -1.423539
 H   -4.618232   -0.858590   -1.496688
 H   -3.552984   -2.685570    0.318418
 H   -3.003972   -1.693374   -3.202457
 H   -2.460862   -2.953226   -2.056385
 H   -4.770067   -3.474432   -1.972695
 H   -3.342685    3.685173    0.476193
 H   -3.893488    2.308602   -0.510287
 H   -2.013769    2.866989   -2.207922
 H   -1.922761    5.284590   -2.589880
 H   -2.755594    5.587747   -0.964666
