91 
2r2b_ligand_xtb.xyz
 C   -4.473955   -0.085087    2.372712
 O   -4.293860   -1.194636    3.084419
 O   -4.972484    0.910968    2.812575
 C   -3.929781   -0.239096    0.939677
 C   -2.411903    0.009348    0.982842
 C   -1.857133   -0.263973   -0.416083
 C   -2.175684   -1.723490   -0.794516
 O   -1.473959   -2.596486    0.056290
 C   -3.691199   -1.946092   -0.702764
 O   -4.222736   -1.556310    0.558432
 C   -4.118844   -3.409769   -0.969078
 O   -5.467363   -3.450066   -1.354691
 C   -3.915524   -4.327487    0.251192
 O   -4.917809   -4.103227    1.214513
 O   -4.468646    0.708153    0.067989
 C   -5.892112    0.682477   -0.077673
 C   -6.243736    1.266291   -1.408849
 C   -7.214303    2.138516   -1.600860
 C   -0.376828    0.796937   -2.716555
 O   -0.058419    1.875972   -3.414087
 O   -0.904219   -0.170338   -3.189883
 C    0.065955    0.930307   -1.243606
 O   -0.434301   -0.110427   -0.447911
 C    1.600469    0.812120   -1.233066
 C    2.133674    1.185435    0.149278
 C    1.638806    2.598298    0.513669
 O    2.187154    3.545847   -0.361380
 C    0.107390    2.590343    0.452180
 O   -0.386819    2.182099   -0.816374
 C   -0.560804    3.935477    0.777541
 O   -1.922034    3.729594    1.085090
 C   -0.439347    4.963327   -0.354719
 O   -1.077134    6.162089    0.005219
 C    3.717617    0.251183    2.377328
 O    3.814154   -0.940052    2.950527
 O    3.343582    1.240418    2.942095
 C    4.198984    0.227914    0.912587
 O    3.565144    1.220335    0.155152
 C    5.703975    0.542232    0.940546
 C    6.316329    0.319370   -0.441058
 O    7.712927    0.481049   -0.316001
 C    5.995569   -1.117133   -0.907513
 O    6.660221   -2.040906   -0.088788
 C    4.473038   -1.302305   -0.874512
 O    3.941608   -1.053695    0.419992
 C    3.973705   -2.692314   -1.328419
 O    2.609815   -2.605254   -1.649238
 C    4.174538   -3.779963   -0.256631
 O    3.195856   -3.663572    0.746886
 H   -4.631375   -1.079451    3.989104
 H   -2.238990    1.039173    1.290864
 H   -1.958055   -0.683625    1.692921
 H   -2.327967    0.420202   -1.126333
 H   -1.869740   -1.889059   -1.837431
 H   -0.557172   -2.292069    0.060268
 H   -4.149880   -1.328094   -1.489226
 H   -3.523139   -3.772255   -1.812921
 H   -5.972562   -3.601808   -0.538875
 H   -4.036168   -5.365922   -0.067588
 H   -2.914868   -4.183119    0.663187
 H   -4.775942   -3.212998    1.565501
 H   -6.239198   -0.359710   -0.032857
 H   -6.356372    1.249409    0.736531
 H   -5.638379    0.910978   -2.231108
 H   -7.451916    2.516587   -2.579957
 H   -7.818816    2.500705   -0.786021
 H   -0.336950    1.781547   -4.341350
 H    2.005037    1.514149   -1.963481
 H    1.864360   -0.212557   -1.497004
 H    1.771290    0.462334    0.886542
 H    1.941409    2.817328    1.549877
 H    3.135629    3.367370   -0.405890
 H   -0.221194    1.867405    1.215925
 H   -0.115660    4.340568    1.691812
 H   -2.347619    3.330556    0.314093
 H   -0.890718    4.538952   -1.263016
 H    0.606722    5.191149   -0.551968
 H   -1.892562    5.924202    0.468477
 H    3.544554   -0.900805    3.884535
 H    5.853749    1.572280    1.258634
 H    6.189902   -0.131088    1.648699
 H    5.892574    1.041247   -1.150924
 H    8.111361    0.528830   -1.192151
 H    6.327728   -1.242149   -1.954263
 H    7.492962   -1.626163    0.186535
 H    4.058909   -0.565980   -1.580000
 H    4.519477   -2.957209   -2.240744
 H    2.134076   -2.937587   -0.868745
 H    4.018188   -4.759809   -0.714528
 H    5.186814   -3.721530    0.149034
 H    3.371701   -2.841613    1.225313
