51 
2r2m_ligand_ani.xyz
 C   12.517000  -13.868792   23.613955
 O   13.587325  -11.865110   23.079892
 C   14.090894  -11.587444   20.698918
 C   16.477436  -11.651753   20.287252
 C   17.851556  -11.729128   20.952671
 C   18.034149  -13.070555   21.635237
 C   17.442775  -13.305203   22.864457
 C   17.403625  -14.528683   23.533751
 C   18.063875  -15.590671   22.921679
 C   18.726283  -15.398473   21.717353
 C   16.860494  -15.662229   25.663827
 C   18.058658  -15.465020   26.598080
 C   21.118768  -16.783036   24.800412
 C   20.121968  -14.329578   25.667462
 N   11.519022  -13.277379   24.127398
 N   12.639693  -15.249804   23.613094
 N   13.636051  -13.266255   22.970852
 C   13.136304  -11.300681   21.846622
 N   15.450505  -11.282724   21.104586
 O   16.301744  -11.934400   19.114511
 C   18.715016  -14.160181   21.086373
Cl   19.588282  -14.002744   19.585335
 F   16.806887  -12.267705   23.489086
 N   16.656176  -14.588042   24.714000
 C   19.419255  -15.501824   25.940152
 C   19.925184  -16.728294   25.513611
 C   21.814702  -15.610294   24.517924
 C   21.317862  -14.386950   24.955491
 F   17.884545  -14.265674   27.244451
 F   17.985515  -16.442867   27.551550
 H   13.827651  -10.991041   19.821182
 H   14.013135  -12.641409   20.406630
 H   18.604160  -11.588330   20.175958
 H   17.956166  -10.923359   21.686237
 H   18.102396  -16.568128   23.390469
 H   19.259989  -16.221587   21.250425
 H   15.977598  -15.726937   26.307303
 H   16.961400  -16.621647   25.149413
 H   21.505816  -17.742586   24.469177
 H   19.734873  -13.373734   26.012032
 H   11.671417  -12.270041   24.093149
 H   11.766423  -15.685894   23.879494
 H   13.027475  -15.633350   22.761954
 H   14.510213  -13.562157   23.408998
 H   13.084495  -10.226280   22.048358
 H   12.126745  -11.667149   21.619950
 H   15.620045  -11.255299   22.100184
 H   16.647689  -13.680618   25.165852
 H   19.379353  -17.644265   25.727579
 H   22.749155  -15.652688   23.962746
 H   21.865257  -13.471009   24.745926
