79 
2r38_ligand_dft.xyz
 C    5.525370    0.663933   -1.265279
 O   -4.394513    4.358459   -0.385406
 N    8.168571    1.889315   -1.126883
 C   -5.452467    0.980395    0.194103
 O    7.733831    2.300278    1.065416
 N   -6.526235    3.711929    0.046158
 C    5.765764    0.286173    1.112515
 C    6.222203    0.866695   -0.070219
 C   -3.797601    1.774665   -1.378549
 C   -4.847800    2.032433   -0.495488
 C    1.091253    0.453414    0.638976
 C   -5.230137    3.474892   -0.286424
 S    2.495383   -1.708865   -0.101383
 C    7.447754    1.744037    0.022834
 S   -3.226150   -2.183868   -0.918278
 O    2.337032   -2.331077    1.207859
 O   -2.545096   -2.326989   -2.207755
 C    0.645824    1.744818   -0.002670
 C    1.523482    2.445286   -0.835485
 C   -0.633626    2.251607    0.217442
 C    4.381933   -0.123116   -1.282205
 C   -4.995104   -0.323500    0.025978
 C    4.631016   -0.514951    1.109005
 C   -3.333727    0.481306   -1.554522
 C    0.162925   -1.577225   -2.404370
 N    0.034494   -3.085279   -2.376703
 C    0.026507   -1.107836   -0.953038
 C   -0.607557   -2.297522   -0.157926
 C   -0.261843   -3.555416   -0.970645
 C    3.951843   -0.702521   -0.091015
 C   -3.926174   -0.553035   -0.834511
 N    1.283614   -0.588283   -0.402059
 C    1.126090    3.635551   -1.429913
 C   -1.035134    3.450541   -0.372208
 C   -0.154136    4.140199   -1.197675
 N   -2.007695   -2.149815    0.211243
 C   -2.357700   -2.398535    1.626709
 C   -1.715360   -1.388501    2.546097
 C   -0.579147   -1.719887    3.284430
 C    0.036645   -0.770974    4.099010
 C   -0.487783    0.513938    4.188415
 C   -2.237536   -0.095780    2.643540
 C   -1.630493    0.849358    3.462258
 O   -4.239605   -3.134236   -0.507806
 O    2.509403   -2.578698   -1.283478
 H    5.854829    1.144594   -2.181053
 H    9.036199    2.400321   -1.040292
 H    8.126005    1.195986   -1.857702
 H   -6.259910    1.173525    0.893833
 H   -6.806443    4.679666    0.122423
 H   -7.250280    3.035587   -0.139738
 H    6.309042    0.478281    2.031222
 H   -3.339387    2.601883   -1.908203
 H    0.375889    0.111247    1.394740
 H    2.048588    0.599753    1.145260
 H    2.524373    2.056155   -1.006930
 H   -1.317116    1.709591    0.864764
 H    3.831463   -0.280186   -2.203549
 H   -5.461512   -1.149152    0.552925
 H    4.270942   -0.986714    2.016858
 H   -2.526705    0.279407   -2.250205
 H   -0.650052   -1.201874   -3.019783
 H    1.124642   -1.314539   -2.835759
 H   -0.737957   -3.361958   -2.986046
 H    0.909611   -3.505950   -2.694305
 H   -0.654160   -0.255376   -0.912551
 H   -0.087240   -2.356547    0.799192
 H    0.646292   -4.022650   -0.594580
 H   -1.071006   -4.283291   -1.003614
 H    1.816379    4.179869   -2.067127
 H   -2.033419    3.841009   -0.191535
 H   -0.461100    5.075265   -1.655708
 H   -2.061177   -3.419014    1.898244
 H   -3.445280   -2.359439    1.711325
 H   -0.164273   -2.723273    3.223480
 H    0.922846   -1.041198    4.664166
 H   -0.014293    1.252977    4.826795
 H   -3.125159    0.171272    2.074271
 H   -2.047714    1.848895    3.535828
