38 
2r3f_ligand_xtb.xyz
 C    3.052237    3.257260   -1.072968
 C    2.082415    2.441627   -0.500114
 N    2.785601    1.361526    0.026265
 N    4.098099    1.455328   -0.189302
 C    4.256005    2.597492   -0.849514
 N    0.757441    2.520590   -0.417171
 C    0.126704    1.533848    0.183987
 C    0.785101    0.441941    0.781796
 C    2.160029    0.356257    0.688189
 N    2.953353   -0.609219    1.206238
 C   -1.342808    1.640986    0.238518
 C    2.431016   -1.860420    1.695613
 C    1.595895   -2.603666    0.676576
 C    0.498476   -3.358880    1.071383
 C   -0.239562   -4.020044    0.102277
 N    0.042594   -3.969473   -1.187026
 C    1.084012   -3.249972   -1.563747
 C    1.892804   -2.552823   -0.679927
 C   -1.909429    2.869095    0.570309
 C   -3.279710    3.022124    0.650843
 C   -4.113889    1.948389    0.393321
 C   -3.565811    0.727339    0.034190
 C   -2.185344    0.566273   -0.049937
Cl   -1.554717   -0.955338   -0.584318
Cl   -4.610174   -0.597960   -0.317327
 H    2.893230    4.185920   -1.577080
 H    5.241882    2.901131   -1.143627
 H    0.225666   -0.308103    1.309711
 H    3.920064   -0.544914    0.920585
 H    1.825351   -1.673717    2.590479
 H    3.278702   -2.484135    1.992607
 H    0.220287   -3.424908    2.112662
 H   -1.104290   -4.612720    0.369542
 H    1.278715   -3.229916   -2.627948
 H    2.730525   -1.978648   -1.046024
 H   -1.245306    3.697139    0.759927
 H   -3.704423    3.978235    0.914104
 H   -5.185727    2.048483    0.455228
