38 
2r3f_ligand_ani.xyz
 C   -0.303577   31.465000    8.147893
 C    0.209347   30.198575    8.406211
 N    1.448562   30.180557    7.770089
 N    1.745785   31.334196    7.142306
 C    0.679810   32.096528    7.376340
 N   -0.240182   29.129564    9.103739
 C    0.536472   28.054104    9.110897
 C    1.815867   27.995302    8.508310
 C    2.277829   29.094848    7.814133
 N    3.448888   29.200945    7.134770
 C    0.018657   26.860097    9.844333
 C    4.546738   28.288579    7.397905
 C    4.327606   26.895048    6.841730
 C    4.984051   25.799717    7.400691
 C    4.782508   24.536840    6.852115
 N    3.985691   24.301065    5.809089
 C    3.356019   25.355043    5.284515
 C    3.491400   26.657451    5.755535
 C   -0.438461   27.026681   11.153741
 C   -0.851278   25.942198   11.915149
 C   -0.845868   24.666589   11.367798
 C   -0.440942   24.481292   10.051343
 C   -0.018313   25.572049    9.284253
Cl    0.380090   25.319252    7.615043
Cl   -0.477207   22.873745    9.404075
 H   -1.255410   31.856775    8.478820
 H    0.650160   33.102984    6.974333
 H    2.414542   27.096542    8.575417
 H    3.676648   30.151347    6.866200
 H    4.754632   28.199782    8.476011
 H    5.439501   28.730783    6.942306
 H    5.648228   25.925983    8.251837
 H    5.288357   23.670487    7.276005
 H    2.702410   25.148176    4.438719
 H    2.949924   27.473680    5.288177
 H   -0.460501   28.028521   11.573629
 H   -1.183939   26.091442   12.937529
 H   -1.165046   23.806235   11.947015
