38 
2r3g_ligand_ani.xyz
 C    4.594863   27.215247    5.418029
 N    3.669067   27.456073    6.402199
 C    3.864373   26.493225    7.363077
 N    4.844052   25.661957    7.052669
 C    5.297009   26.113179    5.846834
 C    2.674107   28.401904    6.533167
 C    1.907226   28.368054    7.667742
 N    2.077873   27.440520    8.664921
 C    3.004674   26.524604    8.516624
 N    3.234758   25.586627    9.466134
 C    2.278298   25.310292   10.530479
 C    1.144596   24.393892   10.123171
 C    1.187815   23.019986   10.338601
 C    0.128115   22.230177    9.909522
 C   -0.943535   22.849835    9.276412
 N   -1.008995   24.162415    9.054949
 C    0.018228   24.902016    9.472971
 C    0.844412   29.374166    7.945036
 C    0.208891   30.120390    6.952827
 C   -0.763833   31.067941    7.228690
 C   -1.131176   31.291399    8.549742
 C   -0.525677   30.563262    9.568656
 C    0.443445   29.617321    9.264002
 F    0.519817   29.929062    5.651274
 H    4.655390   27.836808    4.538417
 H    6.113275   25.624871    5.332402
 H    2.567780   29.117279    5.735861
 H    3.844966   24.831349    9.179791
 H    2.837982   24.870205   11.361273
 H    1.877341   26.269821   10.869175
 H    2.041377   22.570341   10.843064
 H    0.131262   21.154742   10.064971
 H   -1.793280   22.264327    8.927181
 H   -0.041128   25.973322    9.279262
 H   -1.212548   31.614753    6.404988
 H   -1.890709   32.032333    8.780613
 H   -0.809518   30.729916   10.604162
 H    0.918408   29.052385   10.059113
