31 
2r3h_ligand_xtb.xyz
 C    3.655192   -0.613009   -0.573020
 N    2.703851    0.255796   -0.131414
 C    1.644554   -0.509403    0.316751
 N    1.889629   -1.801006    0.172732
 C    3.119910   -1.868389   -0.371237
 C    2.638766    1.621482   -0.076226
 C    1.503591    2.176599    0.422773
 N    0.440301    1.477251    0.869087
 C    0.500472    0.161050    0.832474
 N   -0.506998   -0.589836    1.324169
 C   -1.780232   -0.026684    1.709858
 C   -2.750323   -0.022198    0.555253
 C   -2.602385    0.895993   -0.479141
 C   -3.485732    0.842714   -1.544739
 N   -4.469577   -0.036938   -1.633452
 C   -4.609593   -0.909110   -0.651421
 C   -3.780228   -0.949234    0.459367
 C    4.957953   -0.174773   -1.133791
 H    3.567980   -2.816262   -0.595472
 H    3.483098    2.186261   -0.433074
 H    1.396853    3.249668    0.482852
 H   -0.448151   -1.577976    1.130007
 H   -1.580958    0.998083    2.031852
 H   -2.181306   -0.608225    2.544308
 H   -1.812680    1.630008   -0.440554
 H   -3.408066    1.538863   -2.369785
 H   -5.426351   -1.610503   -0.762760
 H   -3.937450   -1.683734    1.235263
 H    4.809677    0.463969   -2.005674
 H    5.529295    0.387166   -0.393390
 H    5.535948   -1.044413   -1.432837
