31 
2r3h_ligand_ani.xyz
 C   -0.010371   30.489417    7.807176
 N    0.572639   29.238010    7.814107
 C    1.881058   29.406887    7.428691
 N    2.168705   30.673095    7.183032
 C    1.000085   31.331856    7.416731
 C    0.091569   27.973773    8.129037
 C    0.952958   26.932878    8.044569
 N    2.271900   27.031805    7.667569
 C    2.716607   28.230318    7.360246
 N    3.989146   28.429330    6.952059
 C    4.988855   27.380903    6.948035
 C    4.816058   26.377154    5.824492
 C    5.236125   25.056861    5.973637
 C    5.070061   24.170514    4.915489
 N    4.525259   24.504613    3.745357
 C    4.124805   25.769719    3.610404
 C    4.245443   26.733036    4.606072
 C   -1.440417   30.723194    8.169649
 H    0.928631   32.406876    7.293091
 H   -0.947323   27.900302    8.425336
 H    0.612535   25.931723    8.287180
 H    4.277497   29.393943    6.870598
 H    4.970820   26.839326    7.901287
 H    5.964344   27.871270    6.869714
 H    5.690952   24.718986    6.901333
 H    5.393102   23.134916    5.016605
 H    3.681135   26.030439    2.650866
 H    3.892657   27.744683    4.434770
 H   -1.652115   30.408643    9.199252
 H   -1.668884   31.787904    8.088497
 H   -2.119836   30.178624    7.502119
