45 
2r3m_ligand_ani.xyz
 C   -0.564616   31.279426    8.329288
 C    0.039225   30.056167    8.662304
 N    1.303094   30.101734    8.101296
 N    1.547714   31.264253    7.441326
 C    0.423484   31.951034    7.588941
 N   -0.376701   28.999273    9.378298
 C    0.484838   27.988605    9.504543
 C    1.775482   27.972100    8.934693
 C    2.203892   29.075987    8.220206
 N    3.393496   29.252006    7.605276
 C    0.021961   26.812161   10.300539
 C    4.504968   28.342467    7.801890
 C    4.322655   26.997804    7.136630
 C    4.896109   25.841243    7.657232
 N    4.783902   24.639823    7.100768
 C    4.057256   24.593072    5.970481
 N    3.462171   25.628859    5.362524
 C    3.599389   26.811018    5.962645
 C   -0.628519   26.944653   11.531823
 C   -1.058629   25.862587   12.285570
 C   -0.842690   24.577986   11.804759
 C   -0.200039   24.384171   10.589227
 C    0.217434   25.495631    9.876467
 C   -1.952117   31.695826    8.708346
 N    3.890144   23.363822    5.402788
 C   -3.006512   30.692052    8.240212
 F   -0.831092   28.166075   12.042344
 F    0.827884   25.267086    8.691111
 H    0.338073   32.937802    7.149823
 H    2.416317   27.109089    9.051564
 H    3.578242   30.201839    7.306025
 H    4.699504   28.175122    8.873082
 H    5.392832   28.847502    7.404006
 H    5.483894   25.884939    8.577407
 H    3.107852   27.656011    5.481920
 H   -1.554279   26.049713   13.231637
 H   -1.176137   23.722179   12.382617
 H   -0.009800   23.396365   10.184630
 H   -2.010170   31.789440    9.801493
 H   -2.163485   32.693409    8.303461
 H    3.586203   23.353714    4.441319
 H    4.536648   22.646815    5.693828
 H   -4.003974   30.975204    8.591187
 H   -3.029073   30.634756    7.147440
 H   -2.759831   29.698179    8.629032
