45 
2r3n_ligand_dft.xyz
 C   -2.999727   -2.002801    0.102015
 C   -1.959789   -1.094933   -0.108543
 N   -0.856414   -1.868080   -0.433955
 N   -1.108893   -3.190788   -0.447991
 C   -2.404593   -3.252255   -0.121949
 N   -1.892884    0.250513   -0.057384
 C   -0.724335    0.807113   -0.320780
 C    0.443365    0.060457   -0.634842
 C    0.365413   -1.315352   -0.691624
 N    1.354817   -2.194712   -0.961858
 C   -0.667522    2.292504   -0.256762
 C    2.672580   -1.789362   -1.388209
 C    3.505699   -1.136153   -0.301203
 C    3.363149   -1.488112    1.041530
 N    4.088287   -0.967148    2.031345
 C    5.001579   -0.050210    1.706305
 C    5.224292    0.382355    0.402762
 C    4.459097   -0.171642   -0.615991
 C   -1.626545    2.984071    0.490860
 C   -1.594352    4.370111    0.571717
 C   -0.607955    5.089538   -0.099333
 C    0.342814    4.411863   -0.856042
 C    0.313360    3.023382   -0.933674
 C   -4.401162   -1.722691    0.479224
 C   -4.745658   -0.622465    1.458669
 C   -5.109979   -0.471686    0.010715
 H   -2.880819   -4.222566   -0.058082
 H    1.400316    0.545968   -0.763000
 H    1.068947   -3.163740   -0.998008
 H    2.595826   -1.105582   -2.245846
 H    3.179732   -2.689409   -1.749530
 H    2.613786   -2.222207    1.330626
 H    5.579880    0.361222    2.530506
 H    5.973638    1.138819    0.194594
 H    4.598615    0.146405   -1.647132
 H   -2.394464    2.415341    1.003823
 H   -2.341867    4.891820    1.161977
 H   -0.583720    6.173446   -0.036366
 H    1.107127    4.964753   -1.394100
 H    1.047049    2.513309   -1.550566
 H   -5.016421   -2.616842    0.542335
 H   -3.922174   -0.019343    1.828223
 H   -5.534789   -0.815225    2.179368
 H   -6.153782   -0.561729   -0.274999
 H   -4.529652    0.234672   -0.574000
