42 
2r3o_ligand_dft.xyz
 C    3.449781   -1.295109   -0.314682
 C    2.271557   -0.597067   -0.064698
 N    1.346197   -1.564942    0.290747
 N    1.848989   -2.817866    0.292646
 C    3.119273   -2.636391   -0.078086
 N    1.955782    0.712141   -0.105198
 C    0.713102    1.035879    0.207974
 C   -0.282026    0.083718    0.556904
 C    0.053437   -1.253957    0.597681
 N   -0.743279   -2.304515    0.893761
 C    0.371195    2.483175    0.161044
 C   -2.086852   -2.151959    1.399486
 C   -3.084080   -1.651838    0.371359
 C   -2.960573   -1.967958   -0.982196
 N   -3.822311   -1.578748   -1.921823
 C   -4.861824   -0.838054   -1.532585
 C   -5.080624   -0.456714   -0.212525
 C   -4.171990   -0.871495    0.753276
 C    1.131155    3.341674   -0.639861
 C    0.829545    4.695689   -0.707459
 C   -0.231356    5.215815    0.030689
 C   -0.985220    4.372102    0.840524
 C   -0.686521    3.015087    0.904360
 C    4.758709   -0.720122   -0.738410
 O    5.797169   -1.453279   -0.108757
 H    3.777015   -3.491844   -0.147366
 H   -1.307105    0.382746    0.723359
 H   -0.272835   -3.198914    0.929149
 H   -2.089243   -1.474584    2.265749
 H   -2.400024   -3.133842    1.767795
 H   -2.112121   -2.557613   -1.323366
 H   -5.550317   -0.531453   -2.316812
 H   -5.937596    0.155246    0.048600
 H   -4.304685   -0.586936    1.795030
 H    1.958840    2.925988   -1.204089
 H    1.423974    5.348559   -1.339782
 H   -0.466086    6.274869   -0.021632
 H   -1.804975    4.771170    1.430538
 H   -1.267819    2.375167    1.561495
 H    4.782769    0.344593   -0.463211
 H    4.860863   -0.775004   -1.834412
 H    6.634217   -1.139256   -0.468675
