40 
2r3p_ligand_ani.xyz
 C   -0.787682   30.898356    8.198472
 C   -0.069428   29.745056    8.491755
 N    1.135703   29.898620    7.825623
 N    1.226168   31.060368    7.145497
 C    0.063610   31.658591    7.371174
 N   -0.361540   28.681330    9.247873
 C    0.569959   27.737784    9.299573
 C    1.826707   27.830111    8.648411
 C    2.117295   28.950544    7.891256
 N    3.241286   29.197335    7.177680
 C    0.256016   26.482785   10.039533
 C    4.438126   28.391840    7.331213
 C    4.309954   26.998715    6.746559
 C    3.484164   26.736655    5.656937
 C    3.414830   25.438532    5.161713
 N    4.095315   24.408167    5.667414
 C    4.883950   24.667538    6.710941
 C    5.027329   25.929663    7.279028
 C   -0.308649   26.454444   11.322898
 C   -0.614821   25.225015   11.922271
 C   -0.354168   24.029693   11.263320
 C    0.230551   24.052364   10.005228
 C    0.544100   25.265836    9.412926
 S   -2.395331   31.096891    8.867662
 C   -2.820395   32.605932    8.227361
 N   -3.095973   33.639800    7.781260
Cl   -0.577534   27.907133   12.215396
Cl   -1.329779   25.147093   13.499279
 H   -0.130770   32.627979    6.929143
 H    2.550780   27.031396    8.733361
 H    3.334423   30.153764    6.858621
 H    4.729969   28.298285    8.388465
 H    5.247258   28.934380    6.830781
 H    2.897928   27.532210    5.208673
 H    2.774222   25.214408    4.310120
 H    5.433637   23.820384    7.119607
 H    5.691597   26.074212    8.127256
 H   -0.606606   23.093347   11.749928
 H    0.450174   23.122291    9.490870
 H    1.013625   25.274155    8.431924
