40 
2r3p_ligand_xtb.xyz
 C    0.522769    3.495131    0.030943
 C    0.201616    2.153269   -0.188820
 N   -1.100446    2.182200   -0.663629
 N   -1.585942    3.424187   -0.758645
 C   -0.610359    4.217578   -0.340622
 N    0.868017    1.026626   -0.001496
 C    0.249748   -0.098190   -0.291424
 C   -1.065563   -0.142022   -0.795312
 C   -1.762162    1.037702   -0.979113
 N   -3.020399    1.180106   -1.440736
 C    0.972057   -1.355043   -0.040179
 C   -3.910889    0.068846   -1.665143
 C   -4.060464   -0.818223   -0.449945
 C   -4.058537   -0.290006    0.835640
 C   -4.165651   -1.158491    1.910985
 N   -4.276652   -2.468186    1.780600
 C   -4.294362   -2.970371    0.559010
 C   -4.187202   -2.195692   -0.585514
 C    2.322704   -1.500888   -0.366120
 C    2.972388   -2.703535   -0.095256
 C    2.294248   -3.751842    0.506271
 C    0.957926   -3.605092    0.833658
 C    0.302803   -2.420117    0.559151
 S    2.061711    4.120028    0.627518
 C    2.252756    3.006941    1.871771
 N    2.373035    2.267137    2.738290
Cl    3.184620   -0.233258   -1.134986
Cl    4.631186   -2.894934   -0.508884
 H   -0.749844    5.279856   -0.321757
 H   -1.514963   -1.086499   -1.043179
 H   -3.370094    2.126874   -1.439590
 H   -3.545194   -0.532715   -2.506903
 H   -4.887949    0.472557   -1.942772
 H   -3.966396    0.772681    0.999897
 H   -4.158202   -0.787784    2.927067
 H   -4.389044   -4.046124    0.495817
 H   -4.194292   -2.655560   -1.562399
 H    2.818867   -4.670635    0.714240
 H    0.428691   -4.416590    1.307868
 H   -0.733913   -2.301478    0.836649
