40 
2r3p_ligand_dft.xyz
 C    0.999686    3.424535   -0.231602
 C    0.569751    2.092794   -0.294745
 N   -0.710840    2.174664   -0.808004
 N   -1.119986    3.441377   -1.073154
 C   -0.076353    4.183612   -0.720592
 N    1.138080    0.928226    0.041454
 C    0.402952   -0.151429   -0.160986
 C   -0.907077   -0.142456   -0.687867
 C   -1.486902    1.070473   -1.013850
 N   -2.723257    1.296264   -1.496315
 C    0.976669   -1.463082    0.256570
 C   -3.664795    0.236071   -1.774726
 C   -4.100884   -0.543038   -0.546561
 C   -4.143700    0.036278    0.718564
 C   -4.553190   -0.740723    1.797538
 N   -4.914643   -2.022059    1.699451
 C   -4.874942   -2.566339    0.482224
 C   -4.476168   -1.879303   -0.660322
 C    2.173728   -1.965876   -0.270076
 C    2.664127   -3.193451    0.186329
 C    1.971625   -3.916285    1.153606
 C    0.778408   -3.424735    1.662816
 C    0.283535   -2.208605    1.210819
 S    2.573479    3.991694    0.295644
 C    2.288418    4.210728    1.967286
 N    2.139375    4.382515    3.106268
Cl    3.013360   -1.103996   -1.519702
Cl    4.140316   -3.862043   -0.442439
 H   -0.124905    5.259085   -0.826727
 H   -1.452943   -1.066894   -0.816501
 H   -2.949520    2.262856   -1.687544
 H   -3.242173   -0.457226   -2.514176
 H   -4.538031    0.700376   -2.242206
 H   -3.849431    1.070294    0.868402
 H   -4.588571   -0.310333    2.795795
 H   -5.169046   -3.611472    0.415926
 H   -4.452242   -2.387834   -1.620492
 H    2.376055   -4.863022    1.493667
 H    0.237627   -3.989198    2.414853
 H   -0.645390   -1.813017    1.610659
