75 
2r43_ligand_xtb.xyz
 C   -4.630331    1.906432   -0.737168
 C   -5.871824    1.622876   -0.144647
 C   -6.169128    0.294562    0.199162
 C   -5.256694   -0.708725   -0.037820
 C   -4.034408   -0.401185   -0.615077
 C   -3.719748    0.900386   -0.970555
 S   -2.848796   -1.674518   -0.914574
 O   -3.415084   -2.976792   -0.688880
 O   -2.183150   -1.474000   -2.176102
 N   -1.664629   -1.367389    0.264554
 C   -2.147923   -1.503859    1.634825
 C   -1.565448   -0.396515    2.472305
 C   -2.111616    0.880315    2.397252
 C   -1.545654    1.927210    3.103279
 C   -0.423948    1.710019    3.887434
 C    0.120558    0.440501    3.972231
 C   -0.447696   -0.609157    3.268969
 C   -0.335056   -1.864093    0.017067
 C   -0.282040   -3.321241   -0.509084
 N    0.754100   -3.304669   -1.559506
 C    0.650110   -1.983994   -2.215436
 C    0.413062   -1.019782   -1.053204
 N    1.633980   -0.401176   -0.563270
 C    1.394542    0.843703    0.164942
 C    0.861047    1.903469   -0.758358
 C   -0.393420    2.458644   -0.548549
 C   -0.877522    3.429188   -1.410298
 C   -0.118355    3.841686   -2.491485
 C    1.132590    3.286182   -2.707376
 C    1.621280    2.323034   -1.843532
 S    2.755982   -1.343749    0.286988
 C    4.228634   -0.380328    0.203659
 C    4.752686   -0.074031   -1.043210
 C    5.906880    0.668643   -1.130685
 C    6.560088    1.112088    0.032807
 C    6.010465    0.783823    1.283818
 C    4.853565    0.043876    1.366756
 O    2.934593   -2.559616   -0.503293
 O    2.327261   -1.556517    1.638938
 N    7.679585    1.864051   -0.051554
 N   -6.750149    2.619348    0.129750
 H   -4.401170    2.923921   -1.014781
 H   -7.124091    0.066060    0.646477
 H   -5.476129   -1.736839    0.203392
 H   -2.768149    1.101586   -1.435564
 H   -3.234022   -1.417262    1.590261
 H   -1.897861   -2.488916    2.044183
 H   -2.987092    1.045873    1.785167
 H   -1.980411    2.913835    3.043622
 H    0.017280    2.527502    4.436832
 H    0.989459    0.261167    4.586266
 H   -0.015239   -1.595664    3.348003
 H    0.217565   -1.778921    0.957176
 H   -1.253174   -3.584221   -0.933766
 H   -0.017896   -4.035429    0.270659
 H    0.674469   -4.087860   -2.208697
 H    1.721846   -3.268353   -1.091097
 H    1.559893   -1.752169   -2.766055
 H   -0.227405   -1.957302   -2.864160
 H   -0.235010   -0.205404   -1.385382
 H    0.708380    0.677827    1.003800
 H    2.361161    1.152284    0.570652
 H   -0.983014    2.135923    0.297457
 H   -1.849019    3.865334   -1.234213
 H   -0.497218    4.596686   -3.163027
 H    1.728574    3.609390   -3.547212
 H    2.598339    1.890207   -2.000264
 H    4.247417   -0.428556   -1.927049
 H    6.324727    0.913848   -2.094861
 H    6.507523    1.116011    2.181814
 H    4.419454   -0.221176    2.317567
 H    8.193487    2.098671    0.778405
 H    8.120972    2.016438   -0.940308
 H   -7.685499    2.386818    0.413327
 H   -6.600465    3.532829   -0.260512
