32 
2r58_ligand_xtb.xyz
 N   -3.666410   -1.497141    0.037471
 C   -2.573174   -0.540586    0.391942
 C   -1.231841   -0.960172   -0.220312
 C   -0.057994   -0.223597    0.439612
 C    1.276163   -0.538004   -0.247295
 C    2.398196    0.268007    0.409549
 N    3.697777    0.188811   -0.309471
 C    4.635025    1.217958    0.185368
 C    4.314498   -1.148454   -0.219743
 C   -2.991934    0.886712   -0.047976
 O   -2.217820    1.766635   -0.245268
 O   -4.313163    0.968409   -0.146949
 H   -3.639222   -1.724357   -0.966639
 H   -4.574804   -1.038347    0.228894
 H   -3.604869   -2.372878    0.572591
 H   -2.486168   -0.512058    1.484808
 H   -1.097447   -2.036142   -0.089532
 H   -1.234776   -0.739356   -1.289433
 H   -0.243411    0.848167    0.385212
 H    0.002160   -0.508042    1.490961
 H    1.470986   -1.608577   -0.175473
 H    1.201721   -0.270627   -1.303691
 H    2.559842   -0.072401    1.434508
 H    2.097464    1.317893    0.443177
 H    3.517427    0.384085   -1.301798
 H    4.839984    1.053169    1.241765
 H    4.214461    2.213734    0.059150
 H    5.574098    1.167756   -0.362538
 H    5.260793   -1.162184   -0.757402
 H    4.506827   -1.394716    0.823188
 H    3.665031   -1.905312   -0.652076
 H   -4.615438    1.866967   -0.370806
