29 
2r5a_ligand_ani.xyz
 N   -3.297733   -1.503018   -0.032297
 C   -2.189302   -0.542000    0.350942
 C   -0.841888   -0.896341   -0.275798
 C    0.342055   -0.181902    0.375766
 C    1.674628   -0.545917   -0.276050
 C    2.853788    0.177406    0.358169
 N    4.109429   -0.170240   -0.353741
 C    5.308150    0.477040    0.158898
 C   -2.684493    0.853098   -0.014546
 O   -2.032269    1.809061   -0.343707
 O   -4.036089    0.895069    0.098610
 H   -4.193905   -0.994564    0.062358
 H   -3.296286   -2.326072    0.588923
 H   -3.179357   -1.798099   -1.021109
 H   -2.104026   -0.558892    1.441205
 H   -0.695826   -1.981407   -0.194026
 H   -0.862615   -0.656699   -1.347512
 H    0.181145    0.900966    0.316041
 H    0.377998   -0.434500    1.446080
 H    1.831738   -1.633362   -0.207289
 H    1.632616   -0.293520   -1.346326
 H    2.704497    1.260449    0.318031
 H    2.948921   -0.089392    1.414747
 H    3.974881    0.088835   -1.357612
 H    4.218775   -1.208161   -0.292782
 H    5.479656    0.197801    1.201248
 H    5.199366    1.564134    0.128827
 H    6.173183    0.190297   -0.433909
 H   -4.303388    1.803647   -0.118149
