94 
2r5p_ligand_ani.xyz
 N    3.506353   -0.858184   -1.337375
 C    2.447668   -1.854954   -1.770450
 C    1.089565   -1.708373   -1.075897
 C    1.079700   -2.300784    0.347137
 O    1.974832   -3.042468    0.729274
 N    0.007583   -1.982750    1.117115
 C   -0.157818   -2.387929    2.522642
 C   -1.465958   -1.751980    2.997994
 C    1.004811   -1.860890    3.371913
 C   -0.243214   -3.913181    2.644834
 N    0.575669   -0.282686   -1.135503
 C    1.606472    0.661203   -0.587378
 C    2.951116    0.568237   -1.297998
 C    0.116871    0.173379   -2.492084
 C   -0.923074   -0.678341   -3.214734
 O   -0.247233   -1.822123   -3.739446
 C   -2.150035   -1.103503   -2.402433
 C   -3.053329    0.042987   -1.933518
 C   -4.510358   -0.420944   -1.652469
 C   -4.654351   -1.467003   -0.569266
 C   -4.631877   -2.831086   -0.879153
 C   -4.789205   -3.797307    0.110418
 C   -4.977530   -3.412872    1.433251
 C   -5.001661   -2.060144    1.758972
 C   -4.836563   -1.099596    0.766367
 C   -2.499167    0.756109   -0.703101
 O   -1.786229    0.180433    0.127068
 N   -2.842601    2.054941   -0.568897
 C   -2.622617    2.835147    0.651579
 C   -3.235599    4.248333    0.479765
 O   -4.371403    4.196068   -0.367825
 C   -2.088049    5.138441   -0.040267
 C   -0.863801    4.468026    0.541042
 C    0.418930    4.979981    0.718106
 C    1.382667    4.186334    1.334579
 C    1.068997    2.898638    1.772162
 C   -0.210193    2.385168    1.583817
 C   -1.167781    3.166240    0.947655
 C    4.221101   -1.189732   -0.027469
 C    5.568251   -0.521156    0.035265
 C    5.924006    0.324327    1.085504
 N    7.108744    0.925222    1.199405
 C    8.002789    0.697045    0.237695
 C    7.757346   -0.121016   -0.860561
 C    6.514545   -0.729237   -0.967835
 H    4.240397   -0.864869   -2.068911
 H    2.305146   -1.734478   -2.843978
 H    2.826703   -2.858259   -1.585375
 H    0.382147   -2.299772   -1.656231
 H   -0.751464   -1.436243    0.731316
 H   -2.326376   -2.095275    2.411384
 H   -1.653316   -2.002961    4.047839
 H   -1.416363   -0.659661    2.917499
 H    0.841952   -2.114199    4.426319
 H    1.078646   -0.769854    3.287676
 H    1.948607   -2.302964    3.045970
 H   -1.067920   -4.302229    2.037396
 H    0.686598   -4.378832    2.310884
 H   -0.422207   -4.191664    3.690173
 H   -0.246566   -0.176841   -0.516966
 H    1.726794    0.433404    0.474902
 H    1.229701    1.683326   -0.674240
 H    3.685801    1.188857   -0.785834
 H    2.868006    0.923364   -2.327431
 H    0.981827    0.238308   -3.155537
 H   -0.278661    1.187026   -2.375773
 H   -1.268622   -0.062291   -4.060849
 H   -0.884688   -2.324568   -4.262166
 H   -2.745703   -1.760951   -3.054300
 H   -1.841211   -1.720434   -1.553460
 H   -3.110918    0.786444   -2.742448
 H   -4.930782   -0.804645   -2.590536
 H   -5.107579    0.462981   -1.393589
 H   -4.496678   -3.147217   -1.913007
 H   -4.773444   -4.851797   -0.152458
 H   -5.103499   -4.160939    2.211444
 H   -5.126582   -1.753491    2.795721
 H   -4.867341   -0.046418    1.036176
 H   -3.508838    2.459120   -1.214666
 H   -3.079540    2.309719    1.502793
 H   -3.527311    4.599028    1.479839
 H   -4.790269    5.065935   -0.357833
 H   -2.067952    5.107154   -1.137276
 H   -2.199535    6.185937    0.261201
 H    0.667358    5.987428    0.391309
 H    2.386141    4.575610    1.480057
 H    1.836229    2.284697    2.241667
 H   -0.450428    1.375979    1.902794
 H    4.305022   -2.274888    0.035440
 H    3.593827   -0.856432    0.797196
 H    5.204934    0.533614    1.879484
 H    8.965203    1.194470    0.351219
 H    8.519224   -0.265366   -1.622317
 H    6.277631   -1.373340   -1.814789
