43 
2r7b_ligand_dft.xyz
 C    6.064585    0.484451   -0.348553
 O    5.108556   -0.517623   -0.079777
 C    3.811682   -0.148866   -0.066891
 C    2.885367   -1.195994    0.237507
 O    3.452329   -2.389729    0.520563
 C    2.594479   -3.465195    0.824377
 C    1.537029   -0.939579    0.244208
 C    1.020323    0.354113   -0.041818
 C   -0.382738    0.684331   -0.062976
 C   -1.484292   -0.249444   -0.150863
 C   -2.796181    0.249198    0.087053
 N   -3.040647    1.575465    0.353589
 C   -3.918539   -0.614424    0.049952
 C   -5.298771   -0.104757    0.365483
 C   -3.739009   -1.949463   -0.305197
 N   -4.813470   -2.832343   -0.314675
 C   -2.453738   -2.419357   -0.647718
 C   -1.362416   -1.591984   -0.570393
 C   -0.694327    2.048903   -0.002504
 C   -2.064284    2.429257    0.256635
 N   -2.378252    3.766493    0.412720
 C    0.335157    3.008494   -0.202208
 N    1.594511    2.719181   -0.368152
 C    1.949996    1.402851   -0.236961
 C    3.338096    1.119863   -0.281244
 H    5.906671    0.931657   -1.338069
 H    6.039739    1.274431    0.412602
 H    7.034359   -0.013250   -0.324308
 H    2.008362   -3.269724    1.731675
 H    1.909893   -3.678791   -0.007368
 H    3.241683   -4.326724    0.991211
 H    0.855778   -1.719959    0.548073
 H   -5.250984    0.931486    0.698390
 H   -5.956058   -0.141070   -0.515430
 H   -5.768065   -0.708174    1.152898
 H   -5.721375   -2.418241   -0.468924
 H   -4.678154   -3.665538   -0.869181
 H   -2.333810   -3.443259   -0.992993
 H   -0.406700   -1.969355   -0.910329
 H   -3.325301    3.896150    0.743238
 H   -1.704544    4.341363    0.897098
 H    0.074611    4.062959   -0.280858
 H    3.997312    1.958889   -0.465720
