148 
2r9b_ligand_ani.xyz
 N   -6.857682   -2.925364    1.236734
 C   -7.994140   -2.291934    0.489949
 C   -8.687951   -1.421534    1.554590
 O   -9.281274   -1.980501    2.471407
 C   -8.944383   -3.348007   -0.078563
 C  -10.153696   -2.757525   -0.801420
 C  -11.083232   -3.826756   -1.374613
 C  -12.289502   -3.201617   -2.075912
 N  -13.232133   -4.230218   -2.636835
 N   -8.568653   -0.065581    1.501437
 C   -7.739413    0.697741    0.579765
 C   -6.248144    0.301830    0.628109
 O   -5.781271   -0.516676    1.416575
 C   -7.965678    2.155347    1.036583
 C   -8.257355    2.019983    2.532181
 C   -9.083686    0.738293    2.613388
 N   -5.485928    0.920651   -0.305234
 C   -4.051599    0.765238   -0.381083
 C   -3.451972    2.163034   -0.580118
 O   -4.122115    3.075097   -1.048458
 C   -3.640370   -0.145031   -1.559323
 C   -4.232969   -1.535150   -1.488024
 C   -3.720184   -2.485770   -0.602355
 C   -5.288813   -1.909737   -2.322617
 C   -4.181613   -3.800612   -0.613641
 C   -5.768462   -3.216202   -2.326552
 C   -5.199263   -4.174227   -1.488616
 N   -2.148345    2.321019   -0.239981
 C   -1.440196    3.544708   -0.532165
 C    0.069679    3.238978   -0.484798
 O    0.475049    2.079478   -0.364634
 C   -1.862582    4.681776    0.410926
 O   -1.273388    5.889629   -0.070108
 N    0.879465    4.303359   -0.602191
 C    2.323268    4.236527   -0.822810
 C    3.072407    3.757956    0.435246
 C    2.835289    5.610730   -1.260191
 C    2.132390    6.253713   -2.466085
 C    2.082263    5.317003   -3.675040
 C    2.835031    7.563144   -2.829023
 N    3.053034    2.284532    0.564382
 C    3.347239    1.780511    1.936565
 C    3.937984    0.359783    1.797199
 O    3.303620   -0.662312    2.026970
 C    2.111564    1.810682    2.845651
 C    2.429640    1.986620    4.336944
 C    1.128943    2.121199    5.129753
 C    3.281195    0.843771    4.892749
 N    5.217816    0.322431    1.355521
 C    5.860260   -0.912114    0.972387
 C    7.298477   -0.567296    0.566329
 O    7.658802    0.576414    0.338106
 C    5.137871   -1.682046   -0.169745
 C    4.373705   -0.817541   -1.191945
 C    5.131699    0.389576   -1.733485
 O    4.814659    1.541474   -1.435413
 N    6.151405    0.127741   -2.580385
 N    8.148226   -1.636052    0.491133
 C    9.417304   -1.521990   -0.188086
 C    9.241803   -1.781189   -1.683807
 O    8.201276   -2.059898   -2.233008
 C   10.485131   -2.438975    0.440751
 C   10.115206   -3.905271    0.412513
 C   10.395773   -4.695712   -0.705057
 C    9.460078   -4.490797    1.498717
 C   10.029443   -6.037422   -0.736229
 C    9.091272   -5.833590    1.470854
 C    9.375157   -6.609675    0.351485
 O   10.403971   -1.674135   -2.351338
 H   -6.365790   -3.625297    0.654284
 H   -7.264020   -3.341741    2.098696
 H   -6.191517   -2.160624    1.492846
 H   -7.570961   -1.696834   -0.320541
 H   -9.288958   -3.984983    0.744759
 H   -8.374011   -3.982890   -0.771960
 H   -9.818480   -2.095583   -1.614530
 H  -10.719772   -2.125974   -0.102178
 H  -11.421955   -4.482524   -0.559655
 H  -10.523895   -4.456737   -2.081277
 H  -11.953800   -2.564700   -2.893714
 H  -12.843819   -2.578722   -1.374720
 H  -14.025930   -3.779714   -3.109257
 H  -13.582721   -4.820108   -1.864452
 H  -12.720602   -4.820562   -3.312975
 H   -8.085175    0.566816   -0.455705
 H   -7.113626    2.810586    0.824405
 H   -8.837246    2.558736    0.511757
 H   -8.779528    2.888674    2.941974
 H   -7.320748    1.890685    3.085280
 H  -10.157826    0.918270    2.478407
 H   -8.956079    0.184412    3.546983
 H   -5.847755    1.721604   -0.807266
 H   -3.701599    0.317306    0.556015
 H   -3.943286    0.340994   -2.493493
 H   -2.544383   -0.210169   -1.575752
 H   -2.934562   -2.204264    0.095413
 H   -5.731013   -1.167713   -2.983158
 H   -3.759009   -4.527904    0.075835
 H   -6.584493   -3.491415   -2.991349
 H   -5.557579   -5.201338   -1.505754
 H   -1.567385    1.522708   -0.019642
 H   -1.687248    3.882640   -1.546435
 H   -1.534716    4.460769    1.435746
 H   -2.955542    4.748080    0.392165
 H   -1.462984    6.593177    0.561142
 H    0.433654    5.212700   -0.543729
 H    2.514682    3.504620   -1.620209
 H    2.614036    4.213259    1.319225
 H    4.113806    4.103714    0.400022
 H    3.904942    5.510411   -1.496130
 H    2.775316    6.300073   -0.402971
 H    1.097325    6.500991   -2.181570
 H    1.619174    5.816658   -4.533023
 H    3.093922    5.012653   -3.974013
 H    1.502586    4.410537   -3.466433
 H    3.867511    7.370852   -3.146256
 H    2.322211    8.071124   -3.653170
 H    2.868175    8.250501   -1.976069
 H    3.738917    1.904308   -0.124155
 H    2.109804    1.940842    0.282184
 H    4.121134    2.435532    2.365218
 H    1.460593    2.634431    2.523409
 H    1.546214    0.882394    2.700421
 H    2.995909    2.924588    4.452223
 H    0.523605    2.962325    4.773389
 H    1.328460    2.278038    6.195928
 H    0.525477    1.209381    5.033840
 H    2.804096   -0.122638    4.692006
 H    3.404982    0.945973    5.976712
 H    4.281623    0.814557    4.447844
 H    5.738663    1.163594    1.138948
 H    5.897840   -1.582627    1.841060
 H    5.873632   -2.302355   -0.697519
 H    4.420118   -2.365424    0.288284
 H    3.450585   -0.445246   -0.739979
 H    4.079381   -1.461162   -2.030970
 H    6.765768    0.902643   -2.792908
 H    6.565614   -0.793912   -2.624320
 H    7.733564   -2.558032    0.516306
 H    9.735957   -0.480275   -0.083377
 H   11.432648   -2.272965   -0.081162
 H   10.617909   -2.112992    1.477635
 H   10.903345   -4.250271   -1.558427
 H    9.233159   -3.885642    2.375610
 H   10.256815   -6.639532   -1.611896
 H    8.580293   -6.271178    2.324468
 H    9.088166   -7.657965    0.327187
 H   10.202150   -1.848855   -3.286368
