47 
2r9x_ligand_dft.xyz
 C    0.639685    1.934767   -0.900060
 C   -0.171034    1.180100   -1.792607
 C   -1.478236    1.518724   -2.029569
 C   -2.052770    2.645317   -1.399963
 C   -1.289210    3.420604   -0.568315
 C    0.067626    3.096917   -0.302071
 C    0.856789    3.903862    0.556011
 C    2.157424    3.569780    0.819925
 C    2.710540    2.395911    0.266619
 C    1.984210    1.573575   -0.563052
 C    2.591735    0.246451   -0.958383
 C    2.401755   -0.797729    0.165129
 C    3.078945   -2.135185   -0.133812
 C    4.580741   -2.040371   -0.029311
 O    5.211177   -1.067851    0.315221
 O    5.169794   -3.202833   -0.359965
 N    0.985266   -0.982777    0.465323
 C    0.060161   -1.578005   -0.392313
 O    0.322814   -2.182114   -1.409557
 C   -1.283075   -1.286565    0.186624
 C   -2.538381   -1.605908   -0.289769
 C   -3.634539   -1.113438    0.428985
 C   -5.035452   -1.382955   -0.002938
 O   -5.102003   -2.121592   -1.125492
 O   -6.020946   -0.989065    0.576023
 C   -3.455450   -0.334909    1.579050
 C   -2.180167   -0.024948    2.047382
 C   -1.107442   -0.514798    1.326235
 C    0.357381   -0.317572    1.533615
 O    0.919326    0.276675    2.419660
 H    0.241053    0.311370   -2.293104
 H   -2.076650    0.914844   -2.705218
 H   -3.091943    2.898492   -1.586801
 H   -1.714073    4.301241   -0.093120
 H    0.410124    4.789627    1.000021
 H    2.763123    4.189966    1.473389
 H    3.727908    2.113904    0.527805
 H    3.668185    0.368187   -1.106042
 H    2.180398   -0.150313   -1.890571
 H    2.831120   -0.387329    1.083269
 H    2.805948   -2.512455   -1.123552
 H    2.745627   -2.894842    0.582795
 H    6.125241   -3.066213   -0.255777
 H   -2.668416   -2.197496   -1.188624
 H   -6.045665   -2.239257   -1.317823
 H   -4.339181    0.027234    2.093383
 H   -2.028369    0.584953    2.931124
