19 
2ra6_ligand_ani.xyz
 C   39.059301   29.996004   82.897686
 C   39.642755   31.018529   83.878931
 C   41.152383   30.977717   83.940785
 C   41.927853   31.493039   82.901880
 C   43.317155   31.442675   82.936512
 C   41.819363   30.394380   85.020426
 C   43.205252   30.328784   85.071924
 C   43.960395   30.857000   84.025937
 O   45.316934   30.771660   84.123373
 H   39.430068   30.171316   81.881535
 H   39.339314   28.977280   83.183880
 H   37.965913   30.055096   82.872648
 H   39.316838   32.025640   83.587171
 H   39.231792   30.841918   84.880262
 H   41.433885   31.945196   82.043051
 H   43.900202   31.856615   82.114649
 H   41.236743   29.984400   85.843933
 H   43.719004   29.875480   85.915175
 H   45.714850   31.172269   83.340243
