15 
2rc8_ligand_dft.xyz
 N    0.546562    1.585662    0.145163
 C    0.209170    0.236984    0.727708
 C   -1.079019   -0.298505    0.090995
 O   -1.778580    0.686809   -0.489375
 O   -1.397767   -1.447334    0.160212
 C    1.389207   -0.688894    0.442050
 O    1.685425   -0.451397   -0.917301
 H    1.058566    1.401370   -0.735251
 H    1.149618    2.137775    0.761329
 H   -0.303852    2.119042   -0.069097
 H    0.037061    0.356537    1.800525
 H   -2.603502    0.322217   -0.856447
 H    2.237180   -0.444869    1.095832
 H    1.066699   -1.716044    0.637260
 H    2.343516   -1.077800   -1.243092
