15 
2rc8_ligand_xtb.xyz
 N    0.547402    1.554553    0.174087
 C    0.194545    0.224696    0.734013
 C   -1.108038   -0.295424    0.079728
 O   -1.786879    0.701501   -0.486217
 O   -1.437786   -1.434791    0.112341
 C    1.358114   -0.732572    0.418908
 O    1.807574   -0.365584   -0.870290
 H    1.168570    1.314427   -0.633762
 H    1.053836    2.153040    0.833496
 H   -0.304974    2.024320   -0.165985
 H    0.014739    0.275284    1.811230
 H   -2.621812    0.390735   -0.876459
 H    2.163380   -0.617811    1.155048
 H    0.986373   -1.761024    0.450965
 H    2.377072   -1.050057   -1.235715
