75 
2rcu_ligand_ani.xyz
 O    5.528400    3.999573   -2.053846
 C    5.734408    3.123205   -1.055943
 O    6.652866    3.236640   -0.274186
 C    4.698423    2.025344   -1.037715
 C    4.929688    1.058783    0.129513
 C    6.175199    0.198238   -0.131177
 N    6.854864   -0.391324    1.104353
 C    8.140010   -0.993214    0.652667
 C    6.048243   -1.477603    1.734167
 C    7.172400    0.666289    2.113811
 N    3.754515    0.244040    0.422902
 C    3.172419   -0.619775   -0.460023
 O    3.608173   -0.801237   -1.587663
 C    1.928737   -1.326245    0.065246
 C    1.555003   -2.545411   -0.772662
 C    0.288441   -3.252706   -0.286045
 C   -0.970726   -2.387131   -0.346801
 C   -2.247195   -3.153573   -0.005531
 C   -3.498395   -2.279680   -0.066716
 C   -4.778024   -3.028339    0.305900
 C   -6.029119   -2.144637    0.336626
 C   -6.375668   -1.517541   -1.016106
 C   -7.724731   -0.793099   -1.038837
 C   -7.807723    0.410033   -0.098849
 C   -9.146767    1.141593   -0.200613
 C   -9.301160    2.321098    0.763255
 C   -8.324950    3.471768    0.514645
 C   -8.571361    4.659988    1.441115
 H    6.234282    4.664822   -1.986930
 H    4.698019    1.498437   -1.997823
 H    3.714235    2.498717   -0.949155
 H    5.096437    1.671935    1.017574
 H    6.941782    0.795442   -0.624984
 H    5.914341   -0.635695   -0.784773
 H    7.934301   -1.768571   -0.090129
 H    8.648575   -1.433889    1.512917
 H    8.767614   -0.214023    0.212406
 H    5.131999   -1.064295    2.149992
 H    6.633611   -1.936188    2.537280
 H    5.812181   -2.226822    0.975799
 H    7.900583    0.267217    2.824954
 H    7.579689    1.540582    1.601207
 H    6.267784    0.939390    2.658035
 H    3.345259    0.341663    1.338501
 H    2.085365   -1.607794    1.116726
 H    1.109045   -0.591706    0.062796
 H    1.438123   -2.228119   -1.815513
 H    2.393274   -3.251073   -0.766109
 H    0.131355   -4.151700   -0.897981
 H    0.436208   -3.605240    0.745894
 H   -1.061784   -1.956399   -1.355106
 H   -0.879588   -1.536627    0.342721
 H   -2.152238   -3.587134    1.001363
 H   -2.361770   -4.003840   -0.694284
 H   -3.592274   -1.859777   -1.078064
 H   -3.374203   -1.421411    0.610564
 H   -4.931450   -3.854839   -0.404235
 H   -4.644999   -3.491978    1.293232
 H   -5.887736   -1.353280    1.086255
 H   -6.882386   -2.745528    0.680482
 H   -5.586620   -0.811361   -1.310231
 H   -6.382405   -2.306232   -1.781347
 H   -8.524415   -1.504761   -0.783399
 H   -7.930210   -0.456580   -2.064554
 H   -7.654098    0.083810    0.939421
 H   -6.984433    1.100735   -0.328994
 H   -9.957183    0.422938   -0.015307
 H   -9.283570    1.497936   -1.232988
 H   -9.182308    1.965836    1.797774
 H  -10.327158    2.707570    0.689762
 H   -7.293394    3.120848    0.643187
 H   -8.411277    3.795903   -0.531668
 H   -7.863216    5.472323    1.247793
 H   -8.465382    4.366458    2.492179
 H   -9.584044    5.059177    1.309966
