45 
2rfy_ligand_xtb.xyz
 C    1.053921    0.513073   -0.085703
 C    2.129319    1.572890    0.202747
 C    3.481636    1.075083   -0.313103
 C    3.785615   -0.318622    0.253434
 C    2.604208   -1.248268   -0.044587
 C    2.767718   -2.636084    0.576698
 O    1.835932    2.788770   -0.439848
 O    4.529168    1.937283    0.060169
 O    4.946922   -0.851503   -0.320977
 O    1.408809   -0.711007    0.496695
 O    1.683951   -3.458408    0.242033
 C   -3.942241   -0.573344    0.431158
 C   -2.972916   -1.340584   -0.473958
 C   -1.518321   -0.980453   -0.144646
 C   -1.338484    0.543910   -0.123372
 C   -2.445436    1.214651    0.709072
 C   -2.393749    2.741757    0.564023
 O   -5.233498   -0.870336    0.026701
 O   -3.108778   -2.729030   -0.317896
 O   -0.674008   -1.533655   -1.120557
 O   -0.132500    0.967872    0.485180
 O   -3.737067    0.810774    0.305071
 O   -2.492807    3.148885   -0.770292
 H    0.942133    0.391666   -1.179626
 H    2.180142    1.713982    1.293711
 H    3.426854    1.009418   -1.412662
 H    3.903334   -0.226128    1.345386
 H    2.499674   -1.352453   -1.135674
 H    2.846766   -2.524071    1.667449
 H    3.674264   -3.104911    0.192675
 H    0.898817    2.979623   -0.309200
 H    4.251268    2.835128   -0.157823
 H    5.622831   -0.162228   -0.279359
 H    0.892028   -2.912068    0.330390
 H   -3.775130   -0.875700    1.487524
 H   -3.187012   -1.043616   -1.513522
 H   -1.271193   -1.379604    0.851613
 H   -1.374997    0.905403   -1.162623
 H   -2.281715    0.943849    1.763331
 H   -1.435257    3.101944    0.938541
 H   -3.204631    3.172151    1.167108
 H   -5.831201   -0.208378    0.393622
 H   -4.042237   -2.950553   -0.419971
 H   -0.906257   -2.467735   -1.209947
 H   -3.305096    2.773074   -1.131751
