45 
2rfy_ligand_ani.xyz
 C    1.058679    0.540229    0.008108
 C    2.160723    1.565891    0.277077
 C    3.466612    1.077830   -0.329697
 C    3.795827   -0.330548    0.149950
 C    2.585711   -1.240159   -0.039766
 C    2.757629   -2.634340    0.551788
 O    1.872047    2.818298   -0.310378
 O    4.552880    1.905719    0.029948
 O    4.872531   -0.873077   -0.578914
 O    1.446437   -0.671729    0.614926
 O    1.561551   -3.366089    0.404384
 C   -3.913620   -0.625948    0.387819
 C   -2.899915   -1.351137   -0.481905
 C   -1.482425   -0.940861   -0.135418
 C   -1.334066    0.580736   -0.094867
 C   -2.473294    1.227969    0.702028
 C   -2.515171    2.741612    0.527979
 O   -5.185940   -0.980202   -0.067424
 O   -2.982275   -2.750715   -0.313491
 O   -0.607087   -1.469318   -1.115877
 O   -0.137954    0.988065    0.569541
 O   -3.752842    0.767845    0.258997
 O   -2.650953    3.096442   -0.830050
 H    0.932547    0.399136   -1.079114
 H    2.284549    1.650515    1.369302
 H    3.351567    1.050109   -1.429036
 H    4.023593   -0.277312    1.228220
 H    2.370162   -1.338116   -1.117953
 H    3.048346   -2.548837    1.612419
 H    3.554459   -3.167935    0.025349
 H    1.017597    3.100765    0.041591
 H    4.324195    2.802259   -0.252517
 H    5.610285   -0.255697   -0.478882
 H    0.872695   -2.769634    0.735300
 H   -3.780501   -0.908450    1.449840
 H   -3.096041   -1.058892   -1.526000
 H   -1.239774   -1.324526    0.867513
 H   -1.341392    0.959331   -1.127390
 H   -2.339867    0.975519    1.766530
 H   -1.583238    3.190441    0.881532
 H   -3.338792    3.145436    1.136018
 H   -5.784968   -0.273342    0.204753
 H   -3.883405   -3.007444   -0.551041
 H   -0.669580   -2.433077   -1.057788
 H   -3.479728    2.700201   -1.130513
