50 
2rg5_ligand_xtb.xyz
 C    4.428964    1.838338   -0.136062
 C    3.447840    2.807846   -0.032453
 C    2.722538    0.146607   -0.089228
 C   -3.545684   -1.593557    0.452586
 C    4.063989    0.496940   -0.159071
 C   -3.891493   -0.253486    0.286316
 C    2.103917    2.480192    0.059305
 C   -2.698283    0.491018    0.181079
 C    1.739700    1.122647    0.030300
 C   -1.651438   -0.423956    0.278461
 C   -0.211437   -2.648007    0.548900
 C   -0.225518   -0.389535    0.253719
 C    5.058525   -0.607916   -0.301756
 C   -5.259728    0.301438    0.239586
 C    1.074900    3.566572    0.182506
 C   -2.603918    1.966183   -0.018828
 C   -8.094841   -0.426317   -1.644816
 C    7.919264   -1.534010   -0.808457
 C   -7.611173   -0.251219   -0.209154
 N   -1.496693   -2.809875    0.589625
 N    0.467795   -1.506065    0.389504
 N   -2.213050   -1.686356    0.450759
 N    0.386302    0.808163    0.103881
 N   -6.218687   -0.606418   -0.067181
 N    6.245796   -0.329781    0.305709
 O    4.853627   -1.616458   -0.938799
 O   -5.521211    1.470837    0.464518
 O    7.266559   -1.282899    0.423483
 H    5.463101    2.133110   -0.229690
 H    3.733473    3.849842   -0.022371
 H    2.442124   -0.892813   -0.121762
 H   -4.146355   -2.467231    0.607692
 H    0.384930   -3.541723    0.656690
 H    1.561055    4.537578    0.224808
 H    0.399450    3.570237   -0.674008
 H    0.484705    3.447299    1.091599
 H   -3.608951    2.377585   -0.054207
 H   -2.081201    2.442534    0.811879
 H   -2.094601    2.207111   -0.953699
 H   -7.506748    0.193052   -2.317584
 H   -8.002743   -1.464981   -1.957208
 H   -9.137831   -0.132748   -1.723489
 H    7.230009   -1.971320   -1.533492
 H    8.359038   -0.618218   -1.215937
 H    8.703470   -2.246569   -0.563988
 H   -8.212652   -0.868567    0.467644
 H   -7.693815    0.793971    0.096888
 H   -0.241993    1.596661    0.057421
 H   -5.951997   -1.542689   -0.322109
 H    6.328752    0.399688    0.997628
