60 
2rg6_ligand_ani.xyz
 C    8.761333   -2.078934   -0.692946
 C    8.006944   -2.335837    0.449209
 C    8.586671   -0.878857   -1.374710
 C   -6.362448    1.661854   -0.152706
 C    7.082445   -1.400791    0.904060
 C    7.663494    0.055402   -0.914031
 C   -5.517635    2.721712   -0.459961
 C   -4.435096    0.230528    0.077519
 C    2.009613   -0.796181   -0.482311
 C   -5.815744    0.407408    0.100672
 C    2.180052    0.485782    0.014329
 C    6.901643   -0.192800    0.228130
 C   -4.135073    2.569467   -0.507337
 C    0.896963    1.094831    0.102998
 C   -3.594691    1.294352   -0.233557
 C   -0.025410    0.136994   -0.347726
 C   -1.139567   -2.107330   -1.256461
 C   -1.442085    0.022387   -0.510667
 C   -6.753163   -0.718795    0.407024
 C    3.467199    1.139275    0.363782
 C   -3.263281    3.750548   -0.845638
 C    0.608565    2.481326    0.597405
 C    6.098584    1.249284    2.159261
 C   -7.406314   -3.609610    1.331471
 C    5.881688    0.824300    0.703621
 N    0.164988   -2.139162   -1.172013
 N   -1.996169   -1.095850   -0.924581
 N    0.694262   -1.005834   -0.695756
 N   -2.190839    1.129405   -0.245708
 N    4.536527    0.306042    0.484465
 N   -6.181254   -1.975655    0.263368
 O   -7.897124   -0.552587    0.777353
 O    3.591187    2.349901    0.535622
 O   -7.068555   -3.024396    0.079495
 H    9.481235   -2.811801   -1.048620
 H    8.134584   -3.271427    0.987845
 H    9.168721   -0.667369   -2.268641
 H   -7.439577    1.786155   -0.106497
 H    6.500635   -1.623408    1.798386
 H    7.529353    0.992615   -1.452217
 H   -5.943065    3.701877   -0.669860
 H   -3.986637   -0.723781    0.333972
 H    2.700809   -1.584503   -0.753375
 H   -1.581603   -3.023184   -1.633211
 H   -2.559473    3.525453   -1.656698
 H   -2.681268    4.095646    0.018750
 H   -3.878410    4.595386   -1.171066
 H    0.233494    3.122255   -0.211273
 H   -0.143455    2.469661    1.397739
 H    1.520855    2.941560    0.979008
 H    5.977295    0.404125    2.845301
 H    7.106545    1.658217    2.283391
 H    5.366900    2.017355    2.422032
 H   -8.074699   -4.436695    1.081445
 H   -6.515290   -3.989535    1.846078
 H   -7.931268   -2.886176    1.964067
 H    5.969036    1.723738    0.086374
 H   -1.655306    1.967202   -0.089829
 H    4.418198   -0.688610    0.368363
 H   -5.442399   -2.048614   -0.428240
