60 
2rg6_ligand_dft.xyz
 C    8.637316   -1.237260   -2.000601
 C    7.870163   -2.048137   -1.167643
 C    8.521564    0.146359   -1.911291
 C   -6.127823    1.921542   -0.722777
 C    6.996804   -1.476020   -0.248713
 C    7.639316    0.715280   -0.996762
 C   -5.136471    2.877948   -0.891433
 C   -4.444293    0.324333   -0.058286
 C    1.936806   -1.206698    0.477530
 C   -5.778117    0.636564   -0.317015
 C    2.170056    0.144977    0.715895
 C    6.869232   -0.086595   -0.155175
 C   -3.791721    2.585740   -0.668775
 C    0.942803    0.841106    0.595428
 C   -3.453851    1.286295   -0.247608
 C   -0.010285   -0.121628    0.272073
 C   -1.263968   -2.418220   -0.261477
 C   -1.417669   -0.157102    0.000373
 C   -6.878263   -0.370884   -0.166395
 C    3.485420    0.738957    1.069002
 C   -2.732198    3.638945   -0.871973
 C    0.727553    2.317615    0.766667
 C    6.371457    0.279819    2.296239
 C   -7.907072   -3.069529    0.933277
 C    5.927367    0.538642    0.852947
 N    0.012006   -2.545720   -0.047625
 N   -2.030763   -1.295321   -0.257236
 N    0.625934   -1.356637    0.214655
 N   -2.092789    1.023058    0.012850
 N    4.570532    0.037708    0.628641
 N   -6.448404   -1.686385   -0.180173
 O   -8.040898   -0.061835    0.003422
 O    3.598335    1.770273    1.722220
 O   -7.429305   -2.652705   -0.338390
 H    9.322761   -1.682669   -2.715317
 H    7.957601   -3.128843   -1.230231
 H    9.116149    0.785711   -2.557018
 H   -7.172445    2.152367   -0.900426
 H    6.411587   -2.116598    0.407591
 H    7.546645    1.796576   -0.934679
 H   -5.407129    3.880135   -1.212623
 H   -4.157952   -0.653166    0.302453
 H    2.585326   -2.068581    0.519566
 H   -1.783573   -3.347393   -0.473461
 H   -1.960943    3.304293   -1.576628
 H   -2.231260    3.908450    0.068026
 H   -3.170850    4.555572   -1.272908
 H    0.402384    2.795032   -0.167299
 H   -0.018670    2.527864    1.543280
 H    1.657988    2.789879    1.082935
 H    6.402428   -0.794256    2.505497
 H    7.371270    0.693809    2.460218
 H    5.673423    0.757406    2.987800
 H   -8.632771   -3.856470    0.718838
 H   -7.091029   -3.467318    1.547725
 H   -8.401240   -2.241823    1.450556
 H    5.904882    1.623295    0.695621
 H   -1.519287    1.837328    0.165528
 H    4.435932   -0.625914   -0.119470
 H   -5.646651   -1.919768   -0.752396
