60 
2rg6_ligand_xtb.xyz
 C    8.579440   -1.900774   -1.163312
 C    7.738885   -2.378692   -0.172534
 C    8.538898   -0.561242   -1.509027
 C   -6.246015    1.801981   -0.199784
 C    6.865339   -1.520236    0.470196
 C    7.661373    0.295442   -0.867345
 C   -5.346988    2.845593   -0.310321
 C   -4.413976    0.259090   -0.032463
 C    1.989327   -0.975138    0.034016
 C   -5.781543    0.497998   -0.072214
 C    2.212398    0.399710    0.065763
 C    6.817818   -0.173385    0.130284
 C   -3.977544    2.628421   -0.290590
 C    0.960164    1.044489    0.005721
 C   -3.511229    1.310476   -0.145742
 C   -0.000487    0.036108   -0.048583
 C   -1.233824   -2.319659   -0.156783
 C   -1.422802   -0.048295   -0.105620
 C   -6.798204   -0.589058    0.045619
 C    3.526822    1.071487    0.140956
 C   -3.030341    3.786295   -0.416369
 C    0.740149    2.519528    0.015034
 C    6.238348    0.918625    2.314114
 C   -7.514619   -3.440673    0.809852
 C    5.869465    0.768693    0.835418
 N    0.058770   -2.373551   -0.097499
 N   -2.015200   -1.232144   -0.160800
 N    0.671737   -1.183592   -0.039851
 N   -2.133900    1.100765   -0.106680
 N    4.500624    0.312404    0.695522
 N   -6.352306   -1.794927   -0.387433
 O   -7.905183   -0.412247    0.508456
 O    3.725242    2.210639   -0.244851
 O   -7.174642   -2.922030   -0.464905
 H    9.262811   -2.570710   -1.663730
 H    7.765170   -3.423198    0.101877
 H    9.190834   -0.182122   -2.282096
 H   -7.309905    1.978977   -0.210594
 H    6.220049   -1.907334    1.246668
 H    7.628607    1.339374   -1.143258
 H   -5.715734    3.855490   -0.414469
 H   -4.015082   -0.730454    0.110493
 H    2.669903   -1.802637    0.014662
 H   -1.745253   -3.269932   -0.205411
 H   -2.375135    3.667042   -1.279848
 H   -2.414437    3.892021    0.477758
 H   -3.587830    4.709954   -0.545456
 H    0.218074    2.843878   -0.886168
 H    0.174051    2.832005    0.894458
 H    1.707419    3.014561    0.031499
 H    6.170452   -0.037966    2.827611
 H    7.256789    1.287198    2.403738
 H    5.564753    1.623730    2.795103
 H   -8.116442   -4.321131    0.597921
 H   -6.619135   -3.724678    1.371661
 H   -8.099967   -2.717515    1.381397
 H    5.899515    1.751684    0.353627
 H   -1.573353    1.940103   -0.097491
 H    4.283756   -0.613287    1.024639
 H   -5.476455   -1.909353   -0.874724
