19 
2ri9_ligand_xtb.xyz
 C   -0.103281   -1.724047   -0.076288
 O    1.261724   -1.428981   -0.263754
 C    1.721209   -0.446804    0.636988
 C    1.002734    0.880571    0.377878
 O    1.282515    1.358725   -0.918938
 C   -0.517229    0.678949    0.538284
 O   -1.218211    1.850852    0.202802
 C   -0.984584   -0.498113   -0.342033
 O   -2.319856   -0.830300   -0.064504
 H   -0.289110   -2.075891    0.947747
 H   -0.348889   -2.523400   -0.775996
 H    1.560097   -0.764321    1.676451
 H    2.792029   -0.342086    0.449440
 H    1.344629    1.654229    1.073621
 H    1.377652    0.588754   -1.496560
 H   -0.760220    0.455496    1.583602
 H   -0.742631    2.265126   -0.532143
 H   -0.885637   -0.201708   -1.401521
 H   -2.810387   -0.001911    0.021545
