19 
2ri9_ligand_ani.xyz
 C   -0.102356   -1.721705   -0.086695
 O    1.267928   -1.404254   -0.288799
 C    1.718089   -0.436018    0.641095
 C    0.993421    0.879731    0.398273
 O    1.282494    1.359937   -0.909248
 C   -0.512959    0.668473    0.537444
 O   -1.232689    1.832703    0.184597
 C   -0.973749   -0.500991   -0.331945
 O   -2.313197   -0.824679   -0.038227
 H   -0.273858   -2.085891    0.938943
 H   -0.350802   -2.524945   -0.783794
 H    1.552289   -0.787803    1.670812
 H    2.791896   -0.316736    0.475292
 H    1.321797    1.649953    1.103541
 H    1.378943    0.572437   -1.466578
 H   -0.758492    0.440804    1.583786
 H   -0.770916    2.189548   -0.591290
 H   -0.869180   -0.199822   -1.390248
 H   -2.792640    0.015850   -0.076076
