28 
2ria_ligand_ani.xyz
 O    3.179154    0.965750    0.142340
 C    3.023146   -0.256333   -0.565081
 C    1.868135   -1.077870   -0.000467
 O    1.979816   -0.979777    1.411911
 C    0.472609   -0.631673   -0.460444
 O   -0.413308   -1.542764    0.214543
 C   -1.784564   -1.365812   -0.056710
 O   -2.075432   -1.565007   -1.416974
 C   -2.252860    0.040599    0.283539
 O   -2.145490    0.211046    1.678058
 C   -1.377954    1.052450   -0.432808
 O   -1.751364    2.337399    0.029382
 C    0.086878    0.803173   -0.100532
 O    0.804930    1.771443   -0.841058
 H    3.025499    0.735862    1.074629
 H    2.839326    0.000725   -1.612363
 H    3.953466   -0.838071   -0.516540
 H    1.980936   -2.125012   -0.318282
 H    1.175792   -1.378050    1.777181
 H    0.386883   -0.759850   -1.549919
 H   -2.316086   -2.094272    0.568479
 H   -1.740281   -2.438472   -1.661693
 H   -3.293311    0.148118   -0.058512
 H   -2.238806    1.164936    1.820207
 H   -1.521008    0.966145   -1.520331
 H   -1.030011    2.929148   -0.234765
 H    0.218684    0.940358    0.982783
 H    1.720124    1.776507   -0.501483
