28 
2rib_ligand_ani.xyz
 C   -1.518325   -1.584862   -0.041058
 C   -2.252202   -0.335468    0.426959
 C   -1.697608    0.890531   -0.280509
 C   -0.188969    0.943805   -0.078726
 C    0.436765   -0.350676   -0.610546
 C    1.950944   -0.446526   -0.442851
 C    2.424847   -0.368048    1.006323
 O   -1.900696   -1.791843   -1.376813
 O   -2.060312   -0.210788    1.818462
 O   -2.301113    2.026217    0.309640
 O    0.266377    2.095621   -0.749616
 O   -0.120026   -1.465388    0.085524
 O    2.543436    0.630439   -1.161327
 O    3.846491   -0.343902    0.933635
 H   -1.802171   -2.437672    0.587659
 H   -3.317066   -0.453467    0.176598
 H   -1.919360    0.839544   -1.357388
 H   -0.012291    1.016427    1.008789
 H    0.208851   -0.422529   -1.687521
 H    2.278917   -1.402527   -0.871842
 H    2.049328    0.560274    1.462539
 H    2.060405   -1.227340    1.581810
 H   -1.399449   -2.549245   -1.708947
 H   -2.352984    0.688669    2.028735
 H   -1.767371    2.787399    0.035741
 H    1.201703    1.944836   -0.974722
 H    3.449432    0.697275   -0.819396
 H    4.196085   -0.057030    1.784350
