28 
2rib_ligand_dft.xyz
 C   -1.460428   -1.593128   -0.124112
 C   -2.225493   -0.391354    0.428172
 C   -1.711121    0.893719   -0.209317
 C   -0.198101    0.988754   -0.075048
 C    0.448421   -0.265543   -0.677040
 C    1.965450   -0.345804   -0.492775
 C    2.402562   -0.533691    0.955016
 O   -1.895450   -1.776366   -1.443292
 O   -2.031781   -0.360566    1.823648
 O   -2.333298    1.971817    0.465690
 O    0.184793    2.174892   -0.734921
 O   -0.063875   -1.436539   -0.053876
 O    2.537466    0.849786   -1.004061
 O    3.821916   -0.436884    0.923942
 H   -1.661007   -2.471436    0.499883
 H   -3.288054   -0.523326    0.180830
 H   -1.966108    0.901176   -1.278023
 H    0.037112    1.037128    0.998692
 H    0.229807   -0.273168   -1.753877
 H    2.336010   -1.207889   -1.066332
 H    1.974454    0.254668    1.588339
 H    2.065092   -1.506480    1.327164
 H   -1.428753   -2.544721   -1.795177
 H   -2.284154    0.535623    2.091218
 H   -1.837153    2.763856    0.215460
 H    1.150577    2.134185   -0.836460
 H    3.438510    0.871708   -0.646098
 H    4.147760   -0.378167    1.827961
