47 
2rip_ligand_ani.xyz
 N    0.249162   -2.029186   -0.367245
 N    2.823765   -2.629671    1.335854
 C    3.305172   -0.025761    0.227362
 C    2.305442    1.956737   -0.977222
 C    2.920875    3.346989   -1.152326
 C    4.162057    2.231693    0.580324
 C    3.612647    3.604392    0.189169
 C   -1.055269   -2.377686   -0.322725
 C   -4.252880    0.309398    0.143568
 C   -2.695599    2.194295    0.210852
 C   -2.130916   -1.322200   -0.151410
 O   -1.397646   -3.552624   -0.417940
 C   -3.473985   -1.810289   -0.106318
 N   -4.511408   -1.028670    0.036768
 C   -2.927277    0.801329    0.099163
 N   -1.869471   -0.041606   -0.050185
 C   -3.752447    3.056597    0.362424
 C   -5.328003    1.219862    0.300908
 C   -5.078873    2.564648    0.407928
 C    0.854117   -0.701601   -0.336043
 C    2.363936   -0.977819   -0.504904
 C    2.566360   -2.462360   -0.137481
 C    1.238116   -3.095987   -0.553802
 O    4.136652   -0.424196    1.048671
 N    3.232230    1.294961   -0.059079
 H    1.956460   -2.433060    1.866829
 H    3.165839   -3.582655    1.539049
 H    3.553766   -1.913942    1.573934
 H    2.229072    1.421962   -1.929918
 H    1.297805    2.019043   -0.540945
 H    3.658552    3.325683   -1.962568
 H    2.169191    4.101171   -1.400733
 H    5.178232    2.063375    0.202481
 H    4.183405    2.058593    1.659498
 H    2.883887    3.941875    0.935471
 H    4.397436    4.362981    0.124708
 H   -1.663321    2.529017    0.170149
 H   -3.645713   -2.881167   -0.194473
 H   -3.576328    4.125702    0.448902
 H   -6.333532    0.810923    0.331757
 H   -5.903588    3.262907    0.528787
 H    0.446399   -0.093261   -1.149702
 H    0.610365   -0.187030    0.598722
 H    2.582419   -0.890280   -1.575807
 H    3.410356   -2.887623   -0.676840
 H    1.251470   -3.416405   -1.600787
 H    0.964983   -3.957477    0.056027
