67 
2rjp_ligand_dft.xyz
 C   -4.423468    1.944688    0.979493
 C   -5.844838    2.479910    0.805925
 C   -6.534228    2.665399    2.159212
 C   -6.659632    1.551839   -0.127927
 C   -8.024062    2.149640   -0.434879
 O   -7.931853    3.246528   -1.198840
 O   -9.070262    1.720354   -0.011122
 N   -6.839100    0.224350    0.451659
 S   -6.573862   -1.101324   -0.540967
 O   -7.249990   -2.204132    0.119758
 O   -6.845320   -0.769477   -1.933457
 C   -4.813104   -1.299384   -0.382691
 C   -3.978570   -0.857326   -1.401376
 C   -2.601346   -0.934942   -1.228643
 C   -2.053572   -1.455962   -0.052196
 C   -2.920082   -1.918098    0.948311
 C   -4.295385   -1.840626    0.790608
 C   -0.582619   -1.516921    0.134195
 C   -0.006584   -1.203144    1.368448
 C    1.371794   -1.252936    1.540918
 C    2.206343   -1.620566    0.488016
 C    1.634921   -1.935038   -0.745610
 C    0.259644   -1.884258   -0.922058
 C    3.699979   -1.655861    0.658445
 O    4.238106   -0.499712    0.029539
 C    5.581178   -0.334141    0.031807
 C    6.048010    0.824315   -0.600725
 C    7.404785    1.086620   -0.654488
 C    8.333193    0.205181   -0.081556
 C    7.850798   -0.945136    0.544794
 C    6.491948   -1.223619    0.610048
 C    9.813806    0.421838   -0.103077
 O   10.561761   -0.421879    0.357924
 C   10.373679    1.728116   -0.664990
 C   10.161987    2.848852    0.368938
 C   11.850993    1.577348   -1.020122
 H   -3.919449    1.814310    0.015644
 H   -4.433880    0.974866    1.486719
 H   -3.828093    2.638226    1.582281
 H   -5.792976    3.451431    0.299190
 H   -5.944834    3.332053    2.796419
 H   -6.629200    1.704124    2.676052
 H   -7.535412    3.098311    2.057648
 H   -6.125185    1.461433   -1.078846
 H   -8.836129    3.576387   -1.326755
 H   -7.759214    0.115448    0.878771
 H   -4.407192   -0.453419   -2.312368
 H   -1.943380   -0.562546   -2.007937
 H   -2.508622   -2.360504    1.850439
 H   -4.967451   -2.199463    1.563136
 H   -0.640231   -0.891167    2.193781
 H    1.803094   -0.993259    2.504144
 H    2.275581   -2.226190   -1.573736
 H   -0.169939   -2.157822   -1.881405
 H    4.119334   -2.557768    0.192437
 H    3.968925   -1.663470    1.723044
 H    5.323842    1.501022   -1.041569
 H    7.736102    1.992390   -1.152252
 H    8.570462   -1.627445    0.985234
 H    6.158332   -2.126361    1.108319
 H    9.817237    1.986049   -1.574886
 H    9.105478    2.989038    0.617380
 H   10.699186    2.614216    1.294314
 H   10.551352    3.795819   -0.018900
 H   12.001402    0.789877   -1.764430
 H   12.239845    2.516797   -1.426921
 H   12.433579    1.310151   -0.134419
