28 
2rjs_ligand_ani.xyz
 C    5.138333    0.301800   -0.367278
 O    4.136793    0.529299    0.600395
 C    2.869653    0.142352    0.294110
 C    2.493836   -0.437832   -0.914994
 C    1.160888   -0.794255   -1.112181
 C    1.906742    0.361525    1.284943
 C    0.586836    0.001080    1.073265
 C    0.196190   -0.593045   -0.130436
 C   -1.223616   -1.055379   -0.402343
 N   -1.532121   -2.405173    0.209811
 C   -2.317204   -0.100805    0.085978
 C   -2.179023    1.308239   -0.492788
 O   -1.691642    1.518309   -1.574005
 O   -2.669529    2.243590    0.321445
 F   -3.518905   -0.609152   -0.339269
 F   -2.365151   -0.060586    1.441823
 H    5.237918   -0.767002   -0.598655
 H    4.933325    0.851435   -1.295548
 H    6.069027    0.665564    0.070331
 H    3.217170   -0.613878   -1.703779
 H    0.872052   -1.240298   -2.062372
 H    2.223856    0.821017    2.215622
 H   -0.146199    0.185143    1.853939
 H   -1.352849   -1.131903   -1.476902
 H   -2.506979   -2.656104   -0.015382
 H   -0.898458   -3.126179   -0.171802
 H   -1.418647   -2.348443    1.237401
 H   -2.549662    3.092833   -0.136864
