28 
2rjs_ligand_xtb.xyz
 C    5.033872    0.682470   -0.173750
 O    4.093145    0.068715    0.686704
 C    2.837336   -0.114454    0.272941
 C    2.337161    0.248375   -0.980720
 C    1.016487    0.004050   -1.298625
 C    1.970148   -0.722734    1.193552
 C    0.655320   -0.958837    0.872828
 C    0.161016   -0.599181   -0.383833
 C   -1.275491   -0.846908   -0.755451
 N   -1.630342   -2.303332   -0.578592
 C   -2.279896   -0.050802    0.099209
 C   -2.062532    1.490201   -0.034911
 O   -1.545600    1.949426   -1.007623
 O   -2.527772    2.119749    1.007143
 F   -3.536179   -0.368685   -0.334680
 F   -2.237313   -0.467187    1.383508
 H    5.188573    0.090355   -1.079498
 H    4.726346    1.696547   -0.441318
 H    5.961639    0.724125    0.392990
 H    2.970088    0.723360   -1.711339
 H    0.643471    0.303230   -2.265645
 H    2.362154   -0.992722    2.160095
 H    0.015427   -1.406211    1.619759
 H   -1.451616   -0.558738   -1.797224
 H   -2.636011   -2.457449   -0.750178
 H   -1.074814   -2.889107   -1.213611
 H   -1.412148   -2.571106    0.394550
 H   -2.437998    3.087694    0.944885
