94 
2rkg_ligand_ani.xyz
 C   -2.734998   -2.070202    2.101753
 C   -0.502129   -1.556116    2.980934
 N    0.082595   -2.391543    1.929483
 C   -0.676003   -2.688588    0.815811
 N   -2.033986   -2.766642    1.030432
 C    0.515538    5.102560    0.760371
 C    1.470751    4.862166    1.752353
 C    2.584920    5.686401    1.886813
 C    2.765816    6.760019    1.019462
 C    1.826630    7.003747    0.021703
 C    0.710599    6.182408   -0.104825
 O   -0.202111   -2.914227   -0.298015
 C    1.548726   -2.388238    1.861110
 C    2.013684   -1.081969    1.200295
 N    1.851875   -0.991820   -0.132171
 C    2.196135    0.189261   -0.912855
 C    2.181954   -3.678036    1.301203
 C    3.707663   -3.546059    1.308258
 C    1.740680   -4.900952    2.108780
 O    2.458935   -0.160147    1.889614
 C    6.416158   -1.273467   -1.629531
 C    6.354490   -2.658017   -1.752359
 C    5.140711   -3.269480   -2.055786
 C    3.996221   -2.497077   -2.233951
 C    4.043418   -1.106534   -2.108368
 C    5.268201   -0.506306   -1.803749
 C    2.800502   -0.257508   -2.254247
 C    0.976249    1.100579   -1.142105
 C    0.695994    2.131702   -0.036836
 C   -0.475959    3.045829   -0.400446
 N   -1.668668    2.232604   -0.491349
 C   -2.688896    2.593295   -1.295811
 C   -3.864158    1.628805   -1.286691
 O   -3.564455    0.496110   -0.474871
 C   -4.329472   -0.606774   -0.816369
 O    0.360155    1.531558    1.199482
 C   -0.682351    4.195148    0.606265
 O   -2.699176    3.599940   -1.990980
 C   -5.610349   -0.752070   -0.267011
 C   -6.349841   -1.875470   -0.638905
 C   -5.834669   -2.808993   -1.534533
 C   -4.558241   -2.638834   -2.062588
 C   -3.775339   -1.540379   -1.704308
 C   -2.367975   -1.341543   -2.220122
 C   -6.155980    0.277210    0.692401
 C   -1.873149   -2.096576    3.352072
 H   -2.948093   -1.030113    1.803576
 H   -3.691511   -2.575015    2.261870
 H   -0.566100   -0.504863    2.651414
 H    0.178223   -1.589968    3.835908
 H   -2.549396   -2.929850    0.178173
 H    1.343364    4.005033    2.413262
 H    3.314019    5.486253    2.667056
 H    3.636158    7.403291    1.120175
 H    1.960710    7.840114   -0.660156
 H   -0.021449    6.387462   -0.884918
 H    1.889544   -2.285745    2.897138
 H    1.315337   -1.728698   -0.583730
 H    2.960514    0.729235   -0.339389
 H    1.836743   -3.808640    0.271682
 H    4.079050   -3.427088    2.334354
 H    4.172438   -4.441922    0.881264
 H    4.046950   -2.681622    0.728151
 H    2.033532   -4.801517    3.162149
 H    0.657860   -5.052846    2.068535
 H    2.220524   -5.803535    1.715267
 H    7.361550   -0.789586   -1.395223
 H    7.248737   -3.259411   -1.613081
 H    5.082085   -4.352829   -2.139301
 H    3.050382   -2.983544   -2.464602
 H    5.321750    0.576775   -1.701064
 H    2.032077   -0.800648   -2.821812
 H    3.045655    0.640606   -2.836174
 H    0.088405    0.472683   -1.300757
 H    1.132580    1.667221   -2.071468
 H    1.604233    2.745436    0.078193
 H   -0.316980    3.488794   -1.389276
 H   -1.768162    1.436272    0.123351
 H   -4.754437    2.153397   -0.917957
 H   -4.061831    1.337257   -2.325472
 H    1.174448    1.139055    1.567497
 H   -0.951710    3.760760    1.575996
 H   -1.546341    4.768415    0.248573
 H   -7.342989   -2.013838   -0.216023
 H   -6.426488   -3.676445   -1.817353
 H   -4.156687   -3.372779   -2.759392
 H   -1.712223   -0.994646   -1.412808
 H   -1.964133   -2.285775   -2.599442
 H   -2.320389   -0.599392   -3.028207
 H   -6.959049   -0.141869    1.305520
 H   -6.569309    1.146727    0.165621
 H   -5.361249    0.641458    1.350990
 H   -1.775958   -3.124119    3.718915
 H   -2.325069   -1.493658    4.147255
