57 
2rl5_ligand_ani.xyz
 C   57.588543   52.647189   12.830033
 C   58.917566   52.970909   12.807504
 C   59.845575   52.308368   13.656472
 C   59.376510   51.304872   14.529207
 C   57.992011   50.971673   14.549422
 C   57.109909   51.620199   13.724269
 N   61.153686   52.676135   13.587469
 C   61.994315   52.052792   14.378874
 C   61.649700   51.032805   15.294609
 C   60.330240   50.662627   15.363519
 O   59.837307   49.699297   16.198742
 C   60.721392   49.021938   17.020072
 C   60.945402   49.485480   18.303475
 C   61.806655   48.786407   19.142392
 C   62.438615   47.603319   18.708134
 C   62.197433   47.166289   17.398252
 C   61.342470   47.865239   16.559822
 O   61.980034   49.290857   20.396490
 C   63.122196   48.800951   21.077182
 C   63.152406   47.288098   21.023753
 N   63.237450   46.880911   19.625477
 O   55.778244   51.383492   13.661763
 O   56.641250   53.226271   12.057797
 C   64.106982   45.877968   19.200236
 O   64.595147   45.840615   18.085437
 N   64.365169   44.925116   20.169586
 C   65.128998   43.750517   19.987045
 C   66.193333   43.677504   19.086809
 C   66.938904   42.508737   18.989920
 C   66.624670   41.411599   19.782515
 C   65.568784   41.472198   20.683263
 C   64.830350   42.643783   20.785613
Cl   67.563111   39.952190   19.645765
 C   55.265700   50.387900   14.518031
 C   57.075815   54.235273   11.172499
 H   59.323727   53.733948   12.154558
 H   57.672051   50.194303   15.236041
 H   63.036769   52.362770   14.307099
 H   62.418601   50.572607   15.907040
 H   60.471955   50.396999   18.650747
 H   62.693567   46.278721   17.030265
 H   61.162350   47.530230   15.543332
 H   64.035326   49.211956   20.626457
 H   63.038000   49.155783   22.106609
 H   64.029963   46.929386   21.566838
 H   62.246108   46.887149   21.496409
 H   63.704199   44.872440   20.930521
 H   66.427923   44.531247   18.464849
 H   67.766274   42.450165   18.288831
 H   65.329206   40.612778   21.301757
 H   64.008410   42.691593   21.495913
 H   55.714778   49.409566   14.304364
 H   55.435942   50.643140   15.571758
 H   54.193282   50.344968   14.323862
 H   57.521981   55.078349   11.715763
 H   57.801137   53.844861   10.446916
 H   56.184576   54.576526   10.644620
