57 
2rl5_ligand_xtb.xyz
 C   -7.570668   -0.440246   -0.068727
 C   -7.195107    0.764712   -0.598413
 C   -5.835668    1.067957   -0.826607
 C   -4.854712    0.100456   -0.494389
 C   -5.251761   -1.136688    0.053919
 C   -6.574142   -1.415245    0.267177
 N   -5.525000    2.267484   -1.351438
 C   -4.265591    2.536343   -1.568239
 C   -3.207438    1.666378   -1.282350
 C   -3.498949    0.436942   -0.731046
 O   -2.569770   -0.523279   -0.453269
 C   -1.271508   -0.183721   -0.174832
 C   -0.936275    0.909213    0.609403
 C    0.391987    1.165566    0.919990
 C    1.403640    0.308612    0.469395
 C    1.045823   -0.794362   -0.300709
 C   -0.270305   -1.034861   -0.632315
 O    0.634752    2.266359    1.695513
 C    1.986907    2.637370    1.763962
 C    2.876036    1.414404    2.012020
 N    2.736850    0.516459    0.883805
 O   -7.062706   -2.570499    0.787809
 O   -8.845466   -0.826105    0.183515
 C    3.804858    0.122804    0.091044
 O    3.697585   -0.120936   -1.087593
 N    4.980315    0.020452    0.802413
 C    6.261093   -0.231238    0.308458
 C    6.562820   -0.245004   -1.050879
 C    7.859338   -0.473535   -1.470831
 C    8.862428   -0.687676   -0.539553
 C    8.577165   -0.676736    0.816484
 C    7.281371   -0.448435    1.234290
Cl   10.484449   -0.970587   -1.068790
 C   -6.147765   -3.581230    1.131215
 C   -9.883635    0.072245   -0.123253
 H   -7.911751    1.523191   -0.864557
 H   -4.477812   -1.847233    0.293489
 H   -4.059220    3.506471   -2.001840
 H   -2.190547    1.952252   -1.501521
 H   -1.690092    1.577000    0.995752
 H    1.814151   -1.460547   -0.654508
 H   -0.538791   -1.887206   -1.234636
 H    2.066189    3.355733    2.582401
 H    2.295937    3.118326    0.825147
 H    2.551181    0.916264    2.934355
 H    3.907808    1.750203    2.115444
 H    4.911766   -0.008203    1.809091
 H    5.779500   -0.086256   -1.772294
 H    8.090184   -0.484934   -2.524140
 H    9.361590   -0.844375    1.537335
 H    7.058243   -0.438459    2.292157
 H   -5.578367   -3.921003    0.259882
 H   -5.452674   -3.247419    1.908781
 H   -6.748873   -4.404549    1.513563
 H   -9.795688    0.998298    0.453724
 H   -9.903256    0.312349   -1.190980
 H  -10.805073   -0.439143    0.150251
