37 
2sim_ligand_xtb.xyz
 C   -3.900092   -0.128814    0.105983
 C   -2.473331    0.278763    0.145894
 C   -2.111541    1.525290    0.447933
 C   -0.684735    1.980343    0.405959
 C    0.222218    0.906390   -0.248370
 C   -0.230725   -0.510789    0.121219
 C    0.458680   -1.628427   -0.693994
 C    1.948490   -1.897195   -0.405992
 C    2.202071   -2.291442    1.059406
 C    2.388665    2.077264   -0.313128
 C    3.806518    2.025907    0.201074
 N    1.599490    1.093130    0.166672
 O   -4.822313    0.593221    0.380883
 O   -4.060019   -1.401906   -0.273565
 O   -0.654188    3.190338   -0.301778
 O   -1.609453   -0.728821   -0.152199
 O   -0.193839   -2.858216   -0.459377
 O    2.383214   -2.926690   -1.252109
 O    2.217203   -1.139242    1.885084
 O    1.984368    2.924562   -1.088973
 H   -2.859615    2.271510    0.651670
 H   -0.324948    2.142943    1.442410
 H    0.159834    1.043157   -1.336750
 H   -0.062676   -0.669158    1.196544
 H    0.368230   -1.364682   -1.760973
 H    2.552840   -1.023045   -0.659368
 H    1.420289   -2.990332    1.381082
 H    3.173284   -2.799448    1.096579
 H    4.386458    2.815552   -0.267148
 H    4.254141    1.061317   -0.025633
 H    3.812342    2.166291    1.279518
 H    1.948593    0.472833    0.884791
 H   -5.005255   -1.620054   -0.300197
 H    0.240457    3.318835   -0.673500
 H   -1.145116   -2.694059   -0.501953
 H    1.716955   -3.627007   -1.213890
 H    2.450672   -1.406271    2.780476
