54 
2tsr_ligand_xtb.xyz
 N    2.401903    3.027814    1.043353
 C    1.219902    3.403808    0.713609
 C    0.552799    4.521984    1.435851
 N    0.498002    2.827626   -0.295341
 C    0.978018    1.812914   -1.078073
 O    0.300562    1.337884   -1.989329
 C    2.294073    1.339860   -0.694359
 C    2.824119    0.192329   -1.279186
 C    3.952467   -0.403835   -0.750711
 C    4.633444    0.244276    0.287920
 C    4.162959    1.417692    0.830009
 C    2.947349    1.955862    0.390132
 C    4.238231   -1.837825   -1.101778
 N    3.428523   -2.692925   -0.214785
 C   -0.236673   -1.651143    0.266742
 S    1.227902   -1.837954    1.179530
 C    2.076253   -2.415029   -0.233320
 C    1.242649   -2.453926   -1.323560
 C   -0.058960   -2.019015   -1.041549
 C   -1.415803   -1.199066    1.000195
 O   -1.423059   -1.056315    2.211612
 N   -2.508086   -0.914356    0.235102
 C   -3.799874   -0.702473    0.833959
 C   -4.268880    0.765574    0.780071
 C   -4.239660    1.346527   -0.639915
 C   -2.822690    1.747094   -0.994303
 O   -2.287473    1.013753   -1.934907
 O   -2.255093    2.664498   -0.436626
 C   -4.817382   -1.596556    0.145625
 O   -5.996856   -1.590675    0.767785
 O   -4.603935   -2.230833   -0.852423
 C    3.992524   -2.888105    1.102514
 H   -0.423952    4.200943    1.792652
 H    1.169245    4.832831    2.272692
 H    0.405918    5.364846    0.761974
 H   -0.495629    3.066072   -0.415596
 H    2.291802   -0.244346   -2.109464
 H    5.541005   -0.196079    0.676480
 H    4.680443    1.910457    1.637329
 H    3.954143   -2.052536   -2.133498
 H    5.285605   -2.103284   -0.956151
 H    1.557885   -2.795955   -2.293027
 H   -0.834226   -1.990762   -1.786466
 H   -2.509191   -1.142097   -0.748025
 H   -3.725942   -0.995548    1.890027
 H   -5.282264    0.807673    1.180354
 H   -3.618598    1.363828    1.420321
 H   -4.609228    0.628299   -1.371218
 H   -4.856989    2.245861   -0.666707
 H   -1.302832    1.206886   -2.067391
 H   -6.628902   -2.167495    0.308920
 H    3.987750   -1.971177    1.705207
 H    3.407121   -3.644169    1.623483
 H    5.015673   -3.246266    0.999168
