54 
2tsr_ligand_ani.xyz
 N    2.812061    3.381369    0.702118
 C    1.624698    3.820864    0.479313
 C    1.163889    5.130926    1.048452
 N    0.668928    3.153995   -0.279958
 C    0.926696    1.971179   -0.921703
 O    0.103030    1.422414   -1.653298
 C    2.251483    1.424243   -0.649943
 C    2.579202    0.163182   -1.144776
 C    3.776756   -0.439809   -0.802510
 C    4.696653    0.299013   -0.026948
 C    4.395760    1.563345    0.437848
 C    3.140879    2.141466    0.160460
 C    4.016806   -1.898988   -1.147233
 N    3.397114   -2.797863   -0.172166
 C   -0.375782   -2.265111    0.360438
 S    1.094025   -2.290584    1.279891
 C    2.013649   -2.763615   -0.130392
 C    1.187128   -2.978756   -1.207129
 C   -0.172283   -2.685769   -0.931107
 C   -1.635255   -1.853442    1.022268
 O   -1.834106   -1.975551    2.224673
 N   -2.560563   -1.325086    0.175804
 C   -3.873501   -0.959627    0.632350
 C   -3.995883    0.413872    1.326147
 C   -4.115584    1.668263    0.443040
 C   -2.878726    2.063725   -0.325594
 O   -2.539950    1.177545   -1.258160
 O   -2.261531    3.091840   -0.124001
 C   -4.851366   -1.118741   -0.515755
 O   -6.096078   -0.746838   -0.158060
 O   -4.588591   -1.531945   -1.617986
 C    4.171349   -3.048336    1.022493
 H    0.310405    4.976856    1.717054
 H    1.981748    5.582407    1.610820
 H    0.854364    5.809779    0.248263
 H   -0.310155    3.459930   -0.300939
 H    1.847096   -0.343664   -1.768106
 H    5.661639   -0.141395    0.221794
 H    5.095623    2.128105    1.044893
 H    3.596102   -2.116882   -2.135932
 H    5.088818   -2.122779   -1.186082
 H    1.547360   -3.340076   -2.165567
 H   -0.967691   -2.806583   -1.664864
 H   -2.322628   -1.080702   -0.775446
 H   -4.147977   -1.700885    1.393025
 H   -4.906264    0.375962    1.931059
 H   -3.153010    0.494779    2.021571
 H   -4.938619    1.528119   -0.266148
 H   -4.368721    2.519103    1.079106
 H   -1.640811    1.431373   -1.590735
 H   -6.652273   -0.889707   -0.942637
 H    4.289090   -2.155765    1.657667
 H    3.697720   -3.843400    1.603884
 H    5.169405   -3.389143    0.724820
