81 
2upj_ligand_ani.xyz
 C    8.614976    0.154616    2.649112
 C   10.169018   -1.758186    2.202015
 C   10.106647    0.174640    0.609101
 C    9.288720   -0.686219    1.568265
 O    8.294256   -1.457104    0.832767
 C    7.332017   -0.817989    0.135860
 O    7.186102    0.387996    0.060168
 N    6.521730   -1.725231   -0.475954
 C    5.528139   -1.283464   -1.435970
 C    4.315816   -0.668690   -0.742239
 C    3.205674   -0.323646   -1.727105
 O    3.264399   -0.613120   -2.908725
 N    2.145253    0.328363   -1.147097
 C    0.961293    0.804377   -1.746812
 C    0.694191    0.691056   -3.110088
 C   -0.497573    1.210741   -3.605089
 C   -1.405782    1.843680   -2.765183
 C   -1.137469    1.963692   -1.400484
 C    0.036418    1.421045   -0.897109
 C   -2.155395    2.677479   -0.507070
 C   -1.471416    3.637804    0.453309
 C   -2.165591    4.913668    0.818282
 C   -0.961981    4.939522   -0.083201
 C   -3.122991    1.753842    0.181900
 C   -2.656752    0.920881    1.267901
 O   -1.557219    0.928944    1.764763
 O   -3.572875    0.017290    1.792969
 C   -4.843802   -0.091177    1.365061
 C   -5.315132    0.718376    0.379069
 C   -4.429836    1.651493   -0.218673
 O   -4.881221    2.459576   -1.213024
 C   -5.640638   -1.162353    2.051474
 C   -5.694641   -0.947346    3.580319
 C   -6.332546    0.376806    3.997613
 C   -5.112419   -2.588593    1.726397
 C   -5.236471   -3.004974    0.274318
 C   -4.221042   -2.728196   -0.646044
 C   -4.349563   -3.082428   -1.984929
 C   -5.499211   -3.728449   -2.428332
 C   -6.514650   -4.018932   -1.523573
 C   -6.380668   -3.663634   -0.184637
 H    7.997580    0.937411    2.203344
 H    7.984871   -0.478076    3.282856
 H    9.382559    0.620318    3.276538
 H   10.968446   -1.296910    2.790762
 H    9.576633   -2.397316    2.864420
 H   10.626160   -2.384782    1.429639
 H    9.488517    0.960070    0.168308
 H   10.522979   -0.443040   -0.193466
 H   10.934740    0.638867    1.155350
 H    6.853776   -2.676662   -0.486456
 H    5.965906   -0.549418   -2.121235
 H    5.210735   -2.140900   -2.034386
 H    3.926698   -1.375235    0.002134
 H    4.626487    0.229259   -0.193692
 H    2.212030    0.515591   -0.156895
 H    1.409364    0.203290   -3.759877
 H   -0.712165    1.122571   -4.667735
 H   -2.331511    2.248360   -3.170356
 H    0.230179    1.447586    0.171926
 H   -2.749349    3.302284   -1.184773
 H   -0.894898    3.144184    1.227510
 H   -3.142302    5.096238    0.373430
 H   -2.060243    5.287229    1.833029
 H   -1.128536    5.135135   -1.140226
 H   -0.029072    5.337225    0.306162
 H   -6.344896    0.629420    0.054399
 H   -5.815370    2.267716   -1.373081
 H   -6.660036   -1.075424    1.654086
 H   -6.261349   -1.779071    4.019583
 H   -4.675870   -1.016740    3.979890
 H   -5.750396    1.231712    3.635282
 H   -7.347950    0.470488    3.594576
 H   -6.395144    0.452854    5.087872
 H   -5.672249   -3.297376    2.349479
 H   -4.065482   -2.647052    2.046057
 H   -3.316700   -2.223583   -0.308494
 H   -3.547778   -2.855873   -2.684117
 H   -5.601925   -4.006315   -3.474423
 H   -7.414964   -4.528268   -1.859461
 H   -7.179951   -3.912991    0.511300
