46 
2usn_ligand_ani.xyz
 C   -3.331626   -0.778999   -0.405107
 C   -4.987580   -2.355746    0.208627
 C   -2.111677    1.250541   -1.062981
 C   -0.601660    3.854344    1.266917
 C   -0.577148    5.200942    1.618891
 C    0.308057    6.069046    0.986885
 C    1.162447    5.583894   -0.000072
 C    1.138820    4.236662   -0.346380
 C    1.623726   -0.027542   -0.269036
 C    3.086338   -1.832139   -0.064895
 C    7.293783   -2.680173    0.214269
 C    6.423031   -3.170009    1.182509
 C    5.061078   -2.893219    1.096791
 C    6.798695   -1.910528   -0.836261
 S   -3.246562   -2.429955    0.173930
 N   -4.531619   -0.313183   -0.528081
 N   -5.483660   -1.227058   -0.173447
 N   -2.175645   -0.087505   -0.698109
 S   -5.943322   -3.735997    0.731217
 O   -3.064550    1.994468   -1.107999
 C   -0.688871    1.692042   -1.386769
 C    0.179106    1.897839   -0.113948
 C    0.259338    3.357620    0.288993
 O    2.906397   -0.406726   -0.164802
 O    0.688323   -0.810538   -0.330989
 N    1.510150    1.329235   -0.312287
 C    4.558925   -2.122564    0.050344
 C    5.439164   -1.630559   -0.913558
 H   -1.296454    3.180223    1.765558
 H   -1.249332    5.571508    2.389115
 H    0.331009    7.121099    1.259243
 H    1.856910    6.255692   -0.498745
 H    1.805180    3.869170   -1.124945
 H    2.540939   -2.201263    0.807803
 H    2.648004   -2.298433   -0.953251
 H    8.357350   -2.896832    0.276891
 H    6.803560   -3.769972    2.005888
 H    4.381409   -3.277776    1.856044
 H    7.474431   -1.525096   -1.596667
 H   -1.279822   -0.565325   -0.608354
 H   -7.117805   -3.107795    0.561982
 H   -0.199351    0.932475   -2.002390
 H   -0.754995    2.617942   -1.962756
 H   -0.289109    1.352506    0.717713
 H    2.295591    1.839514    0.072029
 H    5.051007   -1.019170   -1.725027
