19 
2uy4_ligand_dft.xyz
 C    0.986296    0.279674    0.006086
 C   -1.308124    0.716198   -0.001159
 C   -3.514242   -0.329699    0.006437
 C   -4.988281   -0.009564   -0.015715
 N    3.573703    0.935067    0.510807
 N   -0.600786    1.813840   -0.010936
 N    0.734694    1.548163   -0.009634
 N   -2.683076    0.776584   -0.002516
 O    3.007398   -0.502598   -1.455143
 O    2.755091   -1.400391    0.904165
 O   -3.054438   -1.453604    0.027852
 S    2.673498   -0.322867   -0.059688
 S   -0.401406   -0.765147    0.025621
 H   -5.250941    0.524479   -0.934939
 H   -5.548222   -0.942982    0.030589
 H   -5.262194    0.621778    0.835861
 H    3.479905    1.769041   -0.061333
 H    3.402648    1.120186    1.493829
 H   -3.064722    1.713223   -0.021863
