49 
2uyi_ligand_ani.xyz
 O    2.495281   -2.402447    0.451097
 C    2.647103   -1.227286    0.159197
 C    3.997433   -0.632798    0.088060
 S    4.346235    1.016000   -0.291201
 C    6.032552    0.741831   -0.134852
 C    6.314872   -0.551374    0.191762
 C    5.141351   -1.344586    0.320684
 N    1.582503   -0.392022   -0.118120
 C    0.271311   -0.818120   -0.117094
 S   -0.220084   -2.478854    0.096515
 C   -1.877690   -2.033406   -0.204962
 C   -2.032988   -0.696789   -0.444228
 C   -3.349087   -0.173617   -0.975831
 C   -4.529944   -1.010575   -0.472964
 C   -4.789387   -0.786206    1.018644
 C   -4.265936   -2.487264   -0.802322
 C   -2.998661   -3.019305   -0.120801
 C   -0.806567    0.032229   -0.295748
 C   -0.617433    1.506720   -0.359231
 O    0.399104    1.992317   -0.865313
 N   -1.584055    2.322350    0.178358
 C   -2.357800    1.956732    1.363175
 C   -1.730012    2.393758    2.686066
 C   -1.477721    3.746362   -0.138164
 C   -1.777249    4.049042   -1.602014
 H    6.731137    1.551908   -0.292459
 H    7.321847   -0.925891    0.335250
 H    5.108938   -2.398585    0.572787
 H    1.693042    0.588594   -0.390272
 H   -3.484341    0.879628   -0.715695
 H   -3.318484   -0.210043   -2.074846
 H   -5.425883   -0.692511   -1.022964
 H   -3.925242   -1.085109    1.623237
 H   -5.655915   -1.362029    1.362542
 H   -4.981264    0.274056    1.230214
 H   -4.147658   -2.584508   -1.889768
 H   -5.127597   -3.104229   -0.517981
 H   -3.198377   -3.224646    0.942281
 H   -2.703024   -3.979990   -0.555943
 H   -3.352300    2.416767    1.272259
 H   -2.491674    0.875034    1.371297
 H   -2.389447    2.113562    3.515377
 H   -0.759658    1.915210    2.852156
 H   -1.590638    3.480066    2.723434
 H   -2.199914    4.269500    0.498518
 H   -0.473679    4.109563    0.117828
 H   -1.021694    3.603462   -2.253092
 H   -2.760541    3.660113   -1.888809
 H   -1.775151    5.132410   -1.764571
