13 
2uyn_ligand_xtb.xyz
 C   -2.669542   -0.066786   -0.005621
 C   -1.289367   -0.706919    0.010704
 C   -0.182890    0.287469    0.000894
 O   -0.285528    1.494032   -0.002787
 C    1.254738   -0.295591   -0.001341
 O    1.497010   -1.468857   -0.006717
 O    2.158511    0.671458    0.003329
 H   -2.796561    0.577221    0.860912
 H   -2.792857    0.540891   -0.898507
 H   -3.441480   -0.830750    0.008296
 H   -1.141395   -1.366955   -0.849277
 H   -1.149590   -1.335354    0.895695
 H    1.684293    1.532846    0.004457
