28 
2uyq_ligand_ani.xyz
 C    3.366310   -1.242280    0.411109
 O    2.208072   -1.512303   -0.381441
 C    3.423417    0.269284    0.585445
 O    4.081929    0.828935   -0.527103
 C    1.942053    0.637206    0.550292
 O    1.771963    1.965388    0.142122
 C    1.401315   -0.366080   -0.479374
 N    0.014171   -0.728203   -0.226520
 C   -0.538148   -1.992417   -0.113753
 N   -1.833357   -1.992143    0.023981
 C   -2.170690   -0.646388    0.001149
 C   -3.395364    0.038688    0.089577
 N   -4.558125   -0.626260    0.251383
 N   -3.407875    1.380078    0.028669
 C   -2.244208    2.012283   -0.107054
 N   -1.016912    1.483238   -0.194597
 C   -1.043932    0.148695   -0.148812
 H    3.274477   -1.754330    1.378300
 H    4.248589   -1.611940   -0.117337
 H    3.910499    0.565254    1.526587
 H    3.670610    1.694980   -0.670537
 H    1.462275    0.438424    1.519931
 H    0.814222    2.095818   -0.016448
 H    1.474773    0.065737   -1.487249
 H    0.098480   -2.866686   -0.145677
 H   -4.558052   -1.632046    0.183166
 H   -5.424766   -0.116276    0.192903
 H   -2.296664    3.093979   -0.144143
