32 
2uyw_ligand_ani.xyz
 C    2.692172    0.689732   -0.226833
 O    2.688459    1.036781    0.940516
 O    2.192750    1.431457   -1.213745
 C    3.211848   -0.645225   -0.715648
 C    2.884482   -1.807515    0.235848
 C    1.449243   -1.818078    0.789578
 C    0.349428   -1.635011   -0.260014
 C   -1.041649   -1.431321    0.353613
 S   -2.293091   -1.466927   -0.977895
 C   -3.419193   -0.367194   -0.088413
 C   -2.537931    0.623966    0.656882
 N   -1.999780    1.676810   -0.195772
 C   -0.671384    1.915116    0.077766
 O    0.006183    2.846163   -0.349444
 N   -0.247333    0.919251    0.905920
 C   -1.245325   -0.101495    1.143930
 H    1.647909    2.160767   -0.822836
 H    4.299868   -0.555921   -0.834080
 H    2.799069   -0.816081   -1.715257
 H    3.572309   -1.775359    1.088130
 H    3.088317   -2.746128   -0.294634
 H    1.368412   -1.038703    1.553164
 H    1.282857   -2.767319    1.316251
 H    0.557089   -0.778040   -0.909327
 H    0.310261   -2.512847   -0.914577
 H   -1.265072   -2.261231    1.035915
 H   -4.036593   -0.931046    0.618931
 H   -4.075909    0.143058   -0.798351
 H   -3.077797    1.047385    1.513493
 H   -2.564588    2.455114   -0.499894
 H    0.683814    0.957133    1.306387
 H   -1.299977   -0.335432    2.213106
