34 
2uzd_ligand_ani.xyz
 O    6.147048    0.107711   -0.473440
 S    5.173557   -0.806174    0.105803
 O    5.365498   -1.366346    1.434560
 N    4.989470   -2.115793   -0.920697
 C    3.591365   -0.010527    0.012180
 C    3.563286    1.379013   -0.071105
 C    2.340156    2.030393   -0.084434
 C    1.146606    1.304396   -0.016112
 C    1.193494   -0.097327    0.059356
 C    2.413689   -0.754907    0.072948
 C   -0.133039    2.007533   -0.019832
 O   -1.243679    1.230965    0.004598
 C   -0.492564    3.325892   -0.034714
 C   -1.911434    3.354432   -0.016520
 C   -2.327347    2.050534    0.007092
 C   -3.631149    1.460700    0.028423
 C   -3.894023    0.135447    0.022196
 S   -2.744799   -1.193650   -0.010785
 C   -4.056369   -2.403202   -0.035175
 N   -3.988257   -3.665890   -0.075792
 N   -5.278611   -1.744959   -0.002786
 C   -5.300868   -0.368058    0.029253
 O   -6.299358    0.317122    0.057011
 H    5.483456   -1.957663   -1.793361
 H    5.326974   -2.949505   -0.448745
 H    4.498623    1.926142   -0.126854
 H    2.312820    3.113874   -0.151160
 H    0.270848   -0.668422    0.106554
 H    2.451315   -1.839878    0.124011
 H    0.167781    4.181749   -0.052688
 H   -2.553288    4.223976   -0.021576
 H   -4.482927    2.134467    0.044608
 H   -3.026817   -3.998841   -0.096377
 H   -6.134015   -2.283732   -0.012941
