34 
2uzd_ligand_dft.xyz
 O    6.167746   -0.043619    0.756181
 S    5.197660   -0.912344    0.108791
 O    4.950840   -2.273687    0.557738
 N    5.627191   -0.966056   -1.510845
 C    3.632471   -0.066065    0.088904
 C    3.611348    1.326124    0.059462
 C    2.392534    1.983294    0.033296
 C    1.191749    1.259510    0.039733
 C    1.235640   -0.139041    0.080629
 C    2.454526   -0.803351    0.106741
 C   -0.085809    1.960671    0.012289
 O   -1.208053    1.199525    0.005313
 C   -0.432638    3.285520   -0.009941
 C   -1.849016    3.333190   -0.031783
 C   -2.282149    2.033615   -0.021431
 C   -3.594346    1.461562   -0.034077
 C   -3.919556    0.158689   -0.020686
 S   -2.854760   -1.245821    0.017146
 C   -4.253507   -2.372112    0.012782
 N   -4.251574   -3.635599    0.032947
 N   -5.424817   -1.633581   -0.018319
 C   -5.353292   -0.257441   -0.037616
 O   -6.308190    0.488111   -0.064181
 H    6.559637   -0.583180   -1.631998
 H    5.556258   -1.912261   -1.871618
 H    4.541476    1.883863    0.071481
 H    2.374355    3.068168    0.012648
 H    0.311809   -0.706205    0.098028
 H    2.495495   -1.885973    0.156280
 H    0.243772    4.127509   -0.009023
 H   -2.478098    4.211386   -0.051898
 H   -4.428298    2.158408   -0.057177
 H   -3.309725   -4.019941    0.055371
 H   -6.315165   -2.112100   -0.023783
