37 
2uzl_ligand_xtb.xyz
 O    5.183338    1.283429    0.908507
 S    4.235501    1.731504   -0.061365
 O    4.614985    1.921396   -1.425412
 N    3.583878    3.187679    0.481677
 C    2.778979    0.674805   -0.019758
 C    2.877650   -0.710885   -0.000216
 C    4.221507   -1.393889    0.025449
 F    5.111524   -0.841115   -0.798254
 F    4.122596   -2.684383   -0.357087
 F    4.752736   -1.428035    1.253426
 C    1.733075   -1.492918    0.012419
 C    0.470676   -0.895392   -0.010308
 C    0.383963    0.500561   -0.046343
 C    1.530088    1.269832   -0.052048
 C   -0.730831   -1.696240   -0.003594
 O   -1.925429   -1.069376   -0.007979
 C   -0.928107   -3.064867    0.001640
 C   -2.311894   -3.269653   -0.000866
 C   -2.892206   -2.012293   -0.006389
 C   -4.256126   -1.619038   -0.009473
 C   -4.682269   -0.336193   -0.003929
 S   -3.666136    1.079636    0.011326
 C   -5.105758    2.173183    0.021362
 N   -5.145478    3.421394    0.038181
 N   -6.230482    1.399454    0.007509
 C   -6.109627    0.030407   -0.006658
 O   -7.039000   -0.738389   -0.018862
 H    3.925779    3.409909    1.403085
 H    3.779794    3.931524   -0.169418
 H    1.822081   -2.566926    0.032079
 H   -0.588945    0.966803   -0.070018
 H    1.476546    2.345403   -0.073172
 H   -0.172216   -3.822618    0.004199
 H   -2.830547   -4.206156    0.001287
 H   -5.004165   -2.398248   -0.016017
 H   -4.264811    3.915795    0.047494
 H   -7.136339    1.847382    0.009005
