33 
2uzo_ligand_ani.xyz
 O    6.127108    0.094432   -0.522777
 S    5.160920   -0.810540    0.082068
 O    5.379574   -1.367117    1.408059
 N    4.942826   -2.123310   -0.933788
 C    3.581576   -0.006745    0.020275
 C    2.403810   -0.746364    0.122705
 C    1.185248   -0.085915    0.119763
 C    1.141009    1.314239    0.015966
 C    2.334385    2.035840   -0.087276
 C    3.555984    1.381135   -0.087361
 C   -0.137929    2.018034    0.012876
 O   -1.244689    1.238247    0.016497
 C   -0.502877    3.334933    0.010438
 C   -1.922262    3.357080    0.009339
 C   -2.332997    2.050926    0.010725
 C   -3.630037    1.448950    0.002758
 C   -3.876148    0.118010   -0.002272
 S   -2.723281   -1.193633    0.010487
 C   -4.020800   -2.421103   -0.010596
 N   -5.246549   -1.776070   -0.026884
 C   -5.279114   -0.391517   -0.023616
 O   -6.284188    0.280499   -0.036608
 O   -3.862449   -3.611834   -0.010915
 H    5.403644   -1.967552   -1.824764
 H    5.297566   -2.955364   -0.471846
 H    2.440059   -1.830099    0.196375
 H    0.262236   -0.653573    0.196053
 H    2.307387    3.117900   -0.174531
 H    4.491428    1.924126   -0.173389
 H    0.154067    4.193448    0.016706
 H   -2.566926    4.224486    0.007188
 H   -4.489927    2.112144   -0.003126
 H   -6.097611   -2.321933   -0.041217
