33 
2uzo_ligand_dft.xyz
 O    6.191774    0.002121    0.674992
 S    5.205119   -0.905597    0.111576
 O    4.976436   -2.237958    0.647894
 N    5.580569   -1.057898   -1.514801
 C    3.637328   -0.062590    0.091963
 C    2.461394   -0.801579    0.147174
 C    1.240886   -0.140498    0.118824
 C    1.194462    1.256349    0.039329
 C    2.392774    1.982165   -0.004504
 C    3.613428    1.327914    0.023192
 C   -0.084964    1.955029    0.011588
 O   -1.204630    1.192320    0.008343
 C   -0.433798    3.280089   -0.011166
 C   -1.849574    3.325104   -0.029171
 C   -2.280523    2.024253   -0.016517
 C   -3.591380    1.452651   -0.026232
 C   -3.917627    0.148325   -0.017684
 S   -2.851831   -1.257510    0.006474
 C   -4.257289   -2.381773    0.000368
 N   -5.427583   -1.644631   -0.018805
 C   -5.349279   -0.258940   -0.030182
 O   -6.307524    0.480259   -0.047731
 O   -4.174606   -3.579234    0.010830
 H    6.499423   -0.665865   -1.695334
 H    5.516276   -2.026962   -1.810200
 H    2.503999   -1.882284    0.227767
 H    0.319049   -0.709292    0.165598
 H    2.372050    3.065905   -0.057724
 H    4.542801    1.886660    0.005877
 H    0.241303    4.123025   -0.010694
 H   -2.480274    4.202254   -0.048145
 H   -4.423205    2.152270   -0.042838
 H   -6.321568   -2.117354   -0.024410
