81 
2v10_ligand_dft.xyz
 C   -0.075633   -1.476491    3.076606
 O   -1.032765   -0.835561    2.255111
 C   -2.340708   -0.763868    2.807371
 C   -3.016878   -2.126693    2.933734
 C   -2.931495   -2.949259    1.656057
 O   -3.626870   -2.270993    0.603356
 O   -1.815672   -3.895980   -0.898313
 C   -2.898648   -4.767840   -1.221114
 C   -3.118300   -0.461400   -0.812177
 C   -2.915609   -1.788337   -0.448265
 C   -2.044359   -2.587118   -1.215066
 C   -1.391991   -2.023852   -2.306314
 C   -1.597881   -0.686458   -2.654419
 C   -2.470806    0.111493   -1.910384
 C   -2.633685    1.588040   -2.171276
 C   -1.840949    2.414480   -1.132704
 C   -2.270182    3.897925   -1.061789
 C   -3.654774    4.060921   -0.430372
 C   -2.201174    4.607737   -2.417018
 C   -0.313768    2.284809   -1.370746
 C    0.542568    1.639946   -0.273896
 N    0.123391    0.228735    0.008572
 C    0.622205    2.416438    1.044506
 O   -0.684000    2.423638    1.588154
 C    1.603505    1.857508    2.086435
 C    3.081174    1.754748    1.693959
 C    3.962059    1.698899    2.958174
 C    3.371339    0.511876    0.850744
 O    2.629213   -0.478773    0.838893
 N    4.519463    0.542879    0.143712
 C    5.003042   -0.543629   -0.615504
 C    6.143688   -0.494466   -1.299484
 C    6.714818   -1.621606   -2.112617
 C    5.880424   -2.899032   -2.140560
 H    0.893063   -1.379542    2.579866
 H   -0.297085   -2.542426    3.204811
 H   -0.027535   -0.999998    4.065437
 H   -2.902615   -0.125849    2.121420
 H   -2.299947   -0.262303    3.784742
 H   -2.576761   -2.708616    3.752490
 H   -4.067663   -1.961881    3.195698
 H   -3.416375   -3.919788    1.794555
 H   -1.892617   -3.126850    1.371233
 H   -2.597397   -5.762986   -0.892583
 H   -3.074519   -4.774780   -2.302831
 H   -3.817172   -4.468087   -0.704931
 H   -3.803980    0.129763   -0.210472
 H   -0.735790   -2.660595   -2.891482
 H   -1.094838   -0.274584   -3.525423
 H   -3.695520    1.848107   -2.109890
 H   -2.304869    1.834744   -3.187228
 H   -2.074074    1.991478   -0.152082
 H   -1.552690    4.381955   -0.383290
 H   -3.886768    5.120530   -0.282912
 H   -4.445759    3.643439   -1.063691
 H   -3.703614    3.566078    0.546156
 H   -2.385195    5.680046   -2.299008
 H   -1.223787    4.492389   -2.900118
 H   -2.960057    4.219444   -3.105740
 H    0.123097    3.276070   -1.539267
 H   -0.117349    1.727776   -2.295177
 H    1.559193    1.565889   -0.673959
 H    0.966014   -0.301907    0.304316
 H   -0.552731    0.140372    0.792146
 H   -0.291737   -0.217480   -0.820019
 H    0.934535    3.437101    0.772324
 H   -0.668421    2.872871    2.441880
 H    1.541250    2.527222    2.953737
 H    1.245200    0.882445    2.430655
 H    3.367823    2.642812    1.112606
 H    3.680046    0.843213    3.580160
 H    5.023327    1.600871    2.713264
 H    3.834201    2.611030    3.547515
 H    5.100755    1.368172    0.204169
 H    4.356300   -1.410877   -0.573527
 H    6.733199    0.423553   -1.280802
 H    7.718646   -1.845160   -1.727665
 H    6.872104   -1.260062   -3.137562
 H    5.750197   -3.314299   -1.135429
 H    6.372622   -3.659364   -2.752564
 H    4.888165   -2.718517   -2.568405
