79 
2v11_ligand_xtb.xyz
 C   -6.296105   -0.435224   -0.913600
 C   -6.699958   -1.298836   -1.915590
 C   -6.926690   -2.635423   -1.631723
 C   -6.744778   -3.105975   -0.342974
 C   -6.336002   -2.243083    0.659765
 C   -6.114717   -0.901766    0.382823
 C   -5.657576    0.046076    1.468857
 N   -4.377460    0.627728    1.138745
 C   -3.204214   -0.013442    1.243949
 C   -4.165219    1.868879    0.578519
 C   -2.288530    3.186044   -0.222496
 C   -2.781128    2.009670    0.333621
 C   -2.172808    0.782110    0.769135
 C   -5.060618    2.886775    0.274056
 C   -4.549910    4.041898   -0.280203
 C   -3.183483    4.189457   -0.524708
 C   -0.782827    0.447610    0.726432
 O    0.098501    1.191437    0.294235
 O   -0.522697   -0.777364    1.206347
 C    0.824450   -1.210776    1.332395
 C    1.223937   -2.221456    0.245499
 C    0.201763   -3.355871    0.200235
 C    1.371250   -1.589584   -1.145464
 C    2.581247   -0.652166   -1.277280
 N    2.160951    0.764820   -1.254774
 C    3.327971   -0.874808   -2.607229
 O    2.389048   -0.526052   -3.606806
 C    4.604767   -0.031579   -2.769664
 C    5.663467   -0.212568   -1.676961
 C    7.037265    0.210299   -2.214618
 C    5.361166    0.649905   -0.452206
 O    4.535416    1.560576   -0.464980
 N    6.080855    0.362041    0.631861
 C    5.949419    1.096868    1.877097
 C    4.847845    0.522829    2.771012
 C    5.087900   -0.937708    3.148985
 C    4.031733   -1.440598    4.125228
 H   -6.120662    0.606783   -1.139326
 H   -6.842410   -0.926465   -2.918797
 H   -7.246378   -3.307655   -2.413125
 H   -6.920803   -4.146439   -0.115901
 H   -6.198059   -2.614748    1.665111
 H   -6.380957    0.855455    1.593979
 H   -5.569435   -0.488551    2.418818
 H   -3.142340   -1.004186    1.651903
 H   -1.231530    3.300372   -0.400856
 H   -6.119175    2.788839    0.460848
 H   -5.219838    4.850387   -0.528740
 H   -2.826488    5.111749   -0.956668
 H    1.492366   -0.342111    1.340242
 H    0.874918   -1.703999    2.307515
 H    2.193965   -2.634180    0.544475
 H    0.107225   -3.819188    1.178250
 H    0.506876   -4.116802   -0.512557
 H   -0.772496   -2.974029   -0.093109
 H    1.467534   -2.397952   -1.869901
 H    0.459430   -1.050952   -1.405711
 H    3.269409   -0.823011   -0.444727
 H    1.367345    0.945206   -0.562153
 H    3.004032    1.345946   -1.005365
 H    1.827798    0.998334   -2.196055
 H    3.592749   -1.940309   -2.678226
 H    2.752338   -0.706010   -4.479257
 H    4.341645    1.026777   -2.830908
 H    5.049696   -0.307635   -3.728227
 H    5.707091   -1.263912   -1.372268
 H    7.006601    1.246658   -2.542316
 H    7.807636    0.115718   -1.453934
 H    7.317997   -0.411634   -3.060653
 H    6.735851   -0.403064    0.607462
 H    5.707994    2.131786    1.623763
 H    6.910070    1.067221    2.392458
 H    4.801396    1.127555    3.677078
 H    3.887966    0.618965    2.259046
 H    6.074278   -1.034705    3.606680
 H    5.073034   -1.560480    2.250085
 H    4.064838   -0.866954    5.047677
 H    4.202257   -2.486235    4.367094
 H    3.035951   -1.342778    3.697761
