79 
2v16_ligand_xtb.xyz
 C   -4.604667   -2.347016   -2.610959
 O   -5.195518   -1.491443   -1.639144
 C   -4.484251   -1.228347   -0.551722
 O   -3.384295   -1.679453   -0.342089
 C   -5.253280   -0.317877    0.398193
 C   -5.766021    0.933345   -0.318589
 C   -4.705033    1.994736   -0.429844
 C   -4.968207    3.123859   -1.197154
 C   -4.054101    4.154158   -1.296102
 C   -2.858480    4.074828   -0.601639
 C   -2.579263    2.962678    0.167486
 C   -3.485733    1.908905    0.242181
 N   -3.193037    0.776066    1.053126
 C   -4.374842    0.120975    1.577310
 C   -1.960367    0.228789    1.054266
 O   -1.086169    0.660058    0.297716
 C   -1.704970   -0.867159    2.067784
 C   -0.250679   -1.347707    2.267219
 C   -0.274225   -2.249914    3.512403
 C    0.671403   -0.165520    2.580171
 C    0.211783   -2.229409    1.070362
 C    1.344979   -1.698875    0.191824
 N    0.810772   -0.728194   -0.782359
 C    2.008598   -2.832389   -0.613732
 O    0.988103   -3.338990   -1.453787
 C    3.203873   -2.372411   -1.468235
 C    4.344942   -1.689251   -0.707233
 C    5.642408   -1.798529   -1.519859
 C    4.067071   -0.202122   -0.484192
 O    3.175508    0.404567   -1.071617
 N    4.867771    0.388978    0.404884
 C    4.859347    1.818498    0.649315
 C    5.957248    2.547146   -0.127362
 C    7.366862    2.151370    0.308981
 C    8.421424    2.984327   -0.408975
 H   -5.400892   -2.623220   -3.296617
 H   -4.183797   -3.232020   -2.130843
 H   -3.812203   -1.817369   -3.142965
 H   -6.102881   -0.901158    0.766497
 H   -6.140708    0.673307   -1.309707
 H   -6.606976    1.347305    0.245887
 H   -5.911275    3.186406   -1.719569
 H   -4.277187    5.018392   -1.901729
 H   -2.145232    4.882519   -0.651112
 H   -1.654548    2.910642    0.717949
 H   -4.106357   -0.734397    2.190091
 H   -4.932145    0.835784    2.190517
 H   -2.071436   -0.499817    3.029428
 H   -2.302083   -1.735374    1.784337
 H   -0.941673   -3.095630    3.365346
 H   -0.611900   -1.698621    4.386556
 H    0.722161   -2.630272    3.723884
 H    0.742283    0.541808    1.760193
 H    0.279420    0.368469    3.443057
 H    1.668522   -0.513492    2.840227
 H   -0.640209   -2.437714    0.421801
 H    0.538352   -3.189235    1.470449
 H    2.104306   -1.207031    0.800311
 H    0.384914   -1.262370   -1.545397
 H    1.604460   -0.138043   -1.128799
 H    0.054116   -0.123364   -0.320735
 H    2.349200   -3.606724    0.089387
 H    1.308688   -4.110215   -1.930963
 H    3.603961   -3.260173   -1.963384
 H    2.853236   -1.697657   -2.252375
 H    4.488616   -2.175189    0.263783
 H    5.513848   -1.329401   -2.492562
 H    6.472396   -1.312546   -1.013492
 H    5.905376   -2.842187   -1.671762
 H    5.630973   -0.133123    0.806525
 H    4.981877    1.982812    1.722680
 H    3.880663    2.187638    0.336347
 H    5.823302    3.618595    0.027108
 H    5.831394    2.345622   -1.192969
 H    7.543644    1.094780    0.091647
 H    7.466092    2.293749    1.387671
 H    9.419343    2.688659   -0.096257
 H    8.345304    2.851607   -1.485692
 H    8.290567    4.039862   -0.184325
