79 
2v16_ligand_ani.xyz
 C   -5.088394   -2.335121   -2.502487
 O   -5.522041   -1.331353   -1.581236
 C   -4.864206   -1.304261   -0.412744
 O   -3.956209   -2.065445   -0.162219
 C   -5.431563   -0.277160    0.567400
 C   -5.928583    1.016082   -0.077220
 C   -4.826029    2.024321   -0.332117
 C   -5.103288    3.169874   -1.078503
 C   -4.157182    4.170708   -1.254207
 C   -2.902953    4.028912   -0.666800
 C   -2.593181    2.888039    0.056898
 C   -3.540816    1.868963    0.209711
 N   -3.237577    0.706433    0.974602
 C   -4.381972    0.065146    1.622131
 C   -1.981972    0.130797    0.908409
 O   -1.167851    0.489449    0.065295
 C   -1.674336   -0.964339    1.914661
 C   -0.193364   -1.377250    2.066437
 C   -0.141013   -2.334879    3.270415
 C    0.661340   -0.147635    2.420693
 C    0.297210   -2.171079    0.809585
 C    1.509845   -1.631628    0.019847
 N    1.073936   -0.660174   -1.011010
 C    2.253920   -2.760557   -0.709402
 O    1.315242   -3.234592   -1.676531
 C    3.552793   -2.360217   -1.417579
 C    4.648866   -1.716944   -0.564646
 C    6.016883   -1.851777   -1.253380
 C    4.376342   -0.234175   -0.302841
 O    3.648170    0.452215   -1.017364
 N    5.009619    0.307026    0.769621
 C    4.931824    1.733185    1.067510
 C    5.763176    2.617894    0.134083
 C    7.264306    2.339054    0.165480
 C    8.045886    3.296377   -0.730703
 H   -5.716117   -2.213846   -3.385387
 H   -5.218942   -3.331868   -2.073444
 H   -4.035217   -2.196042   -2.758117
 H   -6.279884   -0.778553    1.056041
 H   -6.462407    0.791194   -1.003435
 H   -6.666818    1.468480    0.599489
 H   -6.092570    3.285422   -1.517894
 H   -4.399252    5.058934   -1.831772
 H   -2.150595    4.804684   -0.783089
 H   -1.611624    2.788815    0.505389
 H   -4.058014   -0.840855    2.128147
 H   -4.800310    0.748261    2.371659
 H   -2.039577   -0.622042    2.891002
 H   -2.265470   -1.847096    1.638195
 H   -0.793460   -3.202787    3.115263
 H   -0.461355   -1.829235    4.187453
 H    0.879268   -2.702254    3.432952
 H    0.742545    0.562640    1.593052
 H    0.210420    0.381295    3.268183
 H    1.672503   -0.443063    2.726647
 H   -0.530012   -2.289381    0.098283
 H    0.538419   -3.191700    1.134524
 H    2.197091   -1.139757    0.710282
 H    0.816558   -1.225584   -1.837370
 H    1.873669   -0.036069   -1.228852
 H    0.251155   -0.125625   -0.673666
 H    2.477370   -3.559781    0.017566
 H    1.764042   -3.861418   -2.257661
 H    3.965160   -3.276902   -1.866812
 H    3.320713   -1.692194   -2.253681
 H    4.707949   -2.220725    0.412215
 H    6.005619   -1.366867   -2.236030
 H    6.813890   -1.390748   -0.659974
 H    6.277000   -2.905573   -1.396445
 H    5.591967   -0.281748    1.344517
 H    5.258727    1.864605    2.104569
 H    3.883473    2.041173    1.010288
 H    5.583243    3.665098    0.414200
 H    5.384338    2.499487   -0.888046
 H    7.454074    1.304775   -0.151465
 H    7.631163    2.419847    1.198407
 H    9.120170    3.087347   -0.698694
 H    7.720876    3.212167   -1.774382
 H    7.898635    4.338317   -0.421978
