106 
2v22_ligand_ani.xyz
 C    6.918715   -0.885167    0.413261
 C    7.614551    0.212594   -0.077545
 C    7.061958    0.976758   -1.097372
Cl    7.939371    2.346472   -1.717689
 C    5.813124    0.666941   -1.624035
 C    5.115285   -0.424324   -1.124687
 C    5.674012   -1.212250   -0.122868
 N    4.921322   -2.324957    0.331688
 N    3.568569   -2.282897    0.299529
 C    5.314179   -3.564891    0.757305
 C    6.728123   -4.030381    0.862835
 N    4.261390   -4.293219    1.038127
 C    3.222756   -3.474598    0.753491
 C    1.801016   -3.897099    0.895438
 O    1.486427   -5.006433    1.295887
 N    0.900165   -2.952706    0.516445
 C   -0.510501   -3.278333    0.469912
 C   -1.213467   -3.019975    1.807791
 C   -1.206576   -1.559186    2.257812
 C   -2.047813   -1.294440    3.515153
 N   -3.383719   -1.883693    3.518175
 C   -4.275938   -1.593270    2.501443
 N   -4.228068   -0.600654    1.688624
 N   -5.272369   -2.551310    2.354739
 C   -1.166016   -2.641244   -0.771444
 O   -0.551712   -2.551739   -1.830657
 N   -2.465019   -2.253344   -0.662464
 C   -3.239275   -1.742100   -1.787551
 C   -4.722669   -2.114528   -1.646294
 C   -5.101754   -3.594574   -1.869760
 C   -4.657694   -4.531962   -0.744126
 C   -4.634174   -4.116094   -3.230180
 C   -3.020395   -0.214943   -1.922890
 O   -2.302237    0.255662   -2.801660
 N   -3.661177    0.558838   -1.004021
 C   -3.288979    1.956532   -0.839340
 C   -4.347657    2.746769   -0.054106
 C   -3.969231    4.229729    0.004645
 C   -5.765801    2.542931   -0.615869
 C   -5.903900    2.815508   -2.113468
 C   -1.924831    1.992536   -0.124028
 O   -1.791715    1.600527    1.032368
 N   -0.896090    2.458847   -0.881902
 C    0.511217    2.155213   -0.616895
 C    0.788758    0.638575   -0.765606
 O    1.266110   -0.007548    0.163111
 N    0.516604    0.107013   -1.979636
 C    0.989215    2.665626    0.746032
 C    0.759462    4.145805    0.910249
 C    1.666191    5.080098    0.408889
 C    1.434151    6.446506    0.529173
 C    0.272041    6.867510    1.155737
 F    0.037564    8.187030    1.275358
 C   -0.657777    5.971364    1.657230
 C   -0.403324    4.609293    1.532884
 H    7.350154   -1.463783    1.222096
 H    8.585215    0.471500    0.332129
 H    5.389393    1.280161   -2.414049
 H    4.130136   -0.683408   -1.498501
 H    7.208331   -3.637959    1.766166
 H    6.736743   -5.120087    0.927196
 H    7.319210   -3.717023   -0.001994
 H    1.198805   -2.005742    0.274652
 H   -0.558007   -4.360247    0.290978
 H   -2.237074   -3.414067    1.736548
 H   -0.705058   -3.641871    2.553338
 H   -1.574080   -0.910827    1.455778
 H   -0.175417   -1.235717    2.450175
 H   -2.135711   -0.211032    3.664242
 H   -1.539611   -1.690112    4.400912
 H   -3.378451   -2.866418    3.760987
 H   -3.507560    0.065210    1.954009
 H   -5.610827   -2.938946    3.225170
 H   -6.032831   -2.212270    1.778781
 H   -2.908855   -2.181865    0.244660
 H   -2.806401   -2.161580   -2.698811
 H   -5.282488   -1.513107   -2.374338
 H   -5.075724   -1.815482   -0.648538
 H   -6.201625   -3.603047   -1.878219
 H   -3.572035   -4.679139   -0.746485
 H   -5.120110   -5.517970   -0.870483
 H   -4.949438   -4.144044    0.238971
 H   -5.045207   -5.113026   -3.426321
 H   -4.950396   -3.453797   -4.044965
 H   -3.540996   -4.202219   -3.270241
 H   -4.016470    0.093621   -0.166186
 H   -3.173040    2.379550   -1.843435
 H   -4.336159    2.350433    0.971562
 H   -4.711149    4.792443    0.581383
 H   -3.918678    4.672584   -0.997508
 H   -2.995706    4.379446    0.482972
 H   -6.100511    1.520111   -0.404952
 H   -6.446058    3.204091   -0.063335
 H   -6.943364    2.692083   -2.433929
 H   -5.292489    2.121539   -2.700774
 H   -5.598866    3.836874   -2.368412
 H   -1.129695    2.725774   -1.827286
 H    1.065329    2.675396   -1.406598
 H   -0.226268    0.504704   -2.545610
 H    0.521727   -0.910727   -2.023745
 H    0.450602    2.118897    1.518857
 H    2.051116    2.419461    0.838354
 H    2.574821    4.735155   -0.081268
 H    2.134347    7.182818    0.147728
 H   -1.559373    6.346987    2.133254
 H   -1.115729    3.880636    1.912773
