17 
2v25_ligand_ani.xyz
 N    0.722311    1.699559    0.137704
 C    0.646247    0.379078    0.838400
 C    1.444526   -0.618596    0.012150
 O    1.222662   -1.795654   -0.102456
 C   -0.785077   -0.098892    1.073936
 C   -1.663779    0.017161   -0.146072
 O   -1.427823    0.693605   -1.127458
 O   -2.787869   -0.700367   -0.034878
 O    2.499260   -0.002166   -0.568820
 H    1.647548    1.751489   -0.314468
 H   -0.020892    1.692055   -0.591365
 H    0.595092    2.482598    0.792224
 H    1.165246    0.446988    1.798986
 H   -0.774144   -1.141039    1.396049
 H   -1.264787    0.479636    1.871669
 H   -3.287496   -0.558141   -0.857197
 H    2.981919   -0.686356   -1.061417
