37 
2v3d_ligand_xtb.xyz
 O    0.245061    2.937761   -0.522895
 C    1.118604    2.250955    0.353688
 C    0.465187    0.889369    0.637432
 C    1.410191   -0.114690    1.310881
 O    0.603656   -1.072223    1.944321
 C    2.415821   -0.757476    0.328772
 O    3.370158    0.221839    0.001549
 C    1.713073   -1.276738   -0.949914
 O    0.866878   -2.366533   -0.715516
 N   -0.128245    0.382615   -0.631103
 C    0.893504   -0.140114   -1.563487
 C   -1.274539   -0.542566   -0.408260
 C   -2.560991    0.222194   -0.127486
 C   -3.741517   -0.741367    0.015199
 C   -5.042076    0.007213    0.277398
 H    0.499138    3.864286   -0.578900
 H    2.109271    2.122193   -0.096657
 H    1.236510    2.788084    1.299651
 H   -0.372300    1.040238    1.325313
 H    2.004162    0.449567    2.045605
 H    1.118307   -1.597046    2.567080
 H    2.883625   -1.608495    0.847211
 H    4.178176   -0.187644   -0.327925
 H    2.495976   -1.539510   -1.681015
 H    1.372330   -3.144671   -0.457654
 H   -0.507248    1.244122   -1.060876
 H    0.392345   -0.502789   -2.461804
 H    1.574975    0.668842   -1.829712
 H   -1.399677   -1.149005   -1.305433
 H   -1.020643   -1.210766    0.414430
 H   -2.476350    0.804304    0.791665
 H   -2.766074    0.916453   -0.947166
 H   -3.544591   -1.430648    0.837420
 H   -3.840431   -1.330758   -0.897696
 H   -5.865578   -0.693811    0.375004
 H   -4.976008    0.585370    1.195710
 H   -5.267774    0.685954   -0.541530
