37 
2v3d_ligand_ani.xyz
 O   -0.397599    2.800564   -0.344252
 C    0.756807    2.301351    0.333219
 C    0.441508    0.837962    0.637903
 C    1.608216    0.054989    1.246319
 O    1.030620   -1.048535    1.963003
 C    2.614897   -0.472638    0.218555
 O    3.353351    0.641818   -0.248072
 C    1.902737   -1.199708   -0.931787
 O    1.314110   -2.401138   -0.486540
 N   -0.167872    0.228545   -0.630124
 C    0.882324   -0.266563   -1.580954
 C   -1.288368   -0.731469   -0.348021
 C   -2.619156    0.014773   -0.238347
 C   -3.798555   -0.884874    0.118094
 C   -5.103759   -0.103568    0.240836
 H   -0.182384    3.656104   -0.733267
 H    1.655352    2.374984   -0.292650
 H    0.931210    2.847375    1.272376
 H   -0.356019    0.816339    1.383494
 H    2.136110    0.719295    1.943644
 H    1.711474   -1.427702    2.535437
 H    3.283245   -1.188217    0.730991
 H    3.986454    0.325845   -0.905795
 H    2.644453   -1.473346   -1.692302
 H    0.940035   -2.200928    0.388241
 H   -0.599495    1.066439   -1.069358
 H    0.391012   -0.793308   -2.404558
 H    1.399207    0.602909   -1.993292
 H   -1.322043   -1.478996   -1.148482
 H   -1.079011   -1.260947    0.587480
 H   -2.517943    0.806595    0.519466
 H   -2.814518    0.524067   -1.193119
 H   -3.587823   -1.401232    1.064575
 H   -3.907279   -1.667133   -0.645165
 H   -5.942220   -0.757535    0.501638
 H   -5.027537    0.668272    1.015485
 H   -5.350950    0.398102   -0.701976
