52 
2v3e_ligand_ani.xyz
 O    0.090464   -1.409389   -1.368447
 C    1.498547   -1.628299   -1.470765
 C    2.147815   -0.314759   -1.039987
 C    3.675014   -0.367263   -0.944779
 O    4.140141    0.985528   -1.085886
 O    3.963626   -2.350960    0.321996
 C    3.524141   -0.306842    1.582110
 O    3.912646    1.041408    1.720352
 N    1.426555    0.156263    0.231328
 C    1.226539    1.645821    0.286393
 C   -0.016589    2.081072   -0.494472
 C    2.008498   -0.461068    1.472381
 C   -1.339631    1.567265    0.076139
 C   -2.550883    2.220062   -0.588817
 C   -3.896268    1.788342    0.000831
 C   -4.193966    0.294909   -0.137634
 C   -5.603012   -0.072026    0.324513
 C   -7.344628   -1.902683    0.620253
 C   -5.923268   -1.558421    0.180612
 C    4.203809   -0.956234    0.367518
 H   -0.355802   -2.255629   -1.484564
 H    1.787223   -1.862046   -2.506079
 H    1.826119   -2.447736   -0.818939
 H    1.920275    0.435517   -1.798889
 H    4.046184   -0.979898   -1.777138
 H    5.086441    0.963374   -1.283018
 H    4.285705   -2.735659    1.147562
 H    3.852156   -0.825629    2.491265
 H    3.953420    1.395039    0.815895
 H    0.486862   -0.262134    0.102456
 H    1.146191    1.943640    1.337535
 H    2.108969    2.136433   -0.131122
 H   -0.030157    3.176744   -0.508650
 H    0.080402    1.754486   -1.540548
 H    1.538850    0.002089    2.344649
 H    1.752404   -1.522611    1.471420
 H   -1.365305    1.753132    1.159217
 H   -1.397375    0.479190   -0.052638
 H   -2.460850    3.311936   -0.507862
 H   -2.535763    1.988973   -1.664296
 H   -4.697304    2.356252   -0.492369
 H   -3.934336    2.064201    1.065359
 H   -4.066713   -0.004898   -1.188897
 H   -3.462745   -0.291749    0.436578
 H   -5.731579    0.227803    1.375333
 H   -6.337182    0.512612   -0.249782
 H   -8.083883   -1.358330    0.020807
 H   -7.549968   -2.972918    0.513862
 H   -7.507332   -1.632414    1.670415
 H   -5.778373   -1.858170   -0.866589
 H   -5.203373   -2.141959    0.770671
 H    5.289253   -0.755437    0.419152
