27 
2v57_ligand_ani.xyz
 C   -2.493548    1.614059   -0.003309
 C   -3.637958    0.871150    0.001843
 C   -3.585444   -0.558359    0.009568
 C   -2.362450   -1.185676    0.007414
 C    2.362572   -1.185774   -0.011097
 C    3.585325   -0.558260   -0.007864
 C    3.637977    0.871241    0.001882
 C    2.493577    1.614041    0.004529
 C    0.000093    1.689164   -0.002068
 N   -0.000027   -1.126741   -0.003018
 C   -1.149812   -0.443716   -0.000099
 C    1.208455    0.992685   -0.000368
 C   -1.208447    0.992855   -0.002769
 C    1.149857   -0.443939   -0.004578
 N   -4.773039   -1.284292    0.079626
 N    4.773414   -1.284202   -0.073595
 H   -2.547373    2.700891   -0.007801
 H   -4.611083    1.357224    0.008398
 H   -2.267790   -2.267068    0.016567
 H    2.268290   -2.267061   -0.022726
 H    4.611086    1.357303   -0.000853
 H    2.546987    2.700771    0.011777
 H    0.000467    2.779542   -0.002612
 H   -5.580593   -0.815156   -0.302074
 H   -4.706358   -2.240191   -0.241135
 H    4.704341   -2.240456    0.246104
 H    5.578398   -0.815979    0.314756
