27 
2v57_ligand_xtb.xyz
 C   -2.470854    1.605302    0.000665
 C   -3.615464    0.874078   -0.000093
 C   -3.572241   -0.546749    0.000726
 C   -2.357490   -1.187868    0.005912
 C    2.357540   -1.187919    0.006062
 C    3.572253   -0.546837    0.000830
 C    3.615350    0.873966   -0.000462
 C    2.470696    1.605136   -0.000109
 C   -0.000056    1.670034    0.001749
 N   -0.000109   -1.134306    0.008330
 C   -1.148611   -0.461526    0.003465
 C    1.203460    0.973551    0.001002
 C   -1.203599    0.973671    0.001381
 C    1.148615   -0.461680    0.003418
 N   -4.754938   -1.248387   -0.071457
 N    4.755269   -1.248007   -0.070950
 H   -2.508397    2.686123    0.001634
 H   -4.581310    1.360045   -0.002837
 H   -2.298736   -2.265440    0.007924
 H    2.298890   -2.265488    0.008203
 H    4.581124    1.360212   -0.003124
 H    2.508253    2.686012    0.000384
 H    0.000141    2.753477    0.001085
 H   -5.589837   -0.772851    0.228523
 H   -4.711707   -2.227118    0.160027
 H    4.712712   -2.226870    0.159859
 H    5.589716   -0.772149    0.229590
