37 
2v59_ligand_dft.xyz
 N    5.950206   -0.048772    0.103203
 C    4.612406    0.025848   -0.150737
 N    3.787775   -0.375123    0.801844
 N    4.291936    0.539330   -1.376247
 C    3.006086    0.653212   -1.610736
 C    2.013260    0.281647   -0.687363
 C    2.466638   -0.250534    0.549153
 N    1.608349   -0.644707    1.514973
 C    0.313682   -0.534710    1.277655
 N   -0.523121   -0.959496    2.266768
 C    0.619804    0.387500   -0.907657
 C   -0.254635   -0.021187    0.054190
 C   -1.728120    0.061174   -0.119657
 C   -2.474504   -1.097947   -0.386442
 O   -1.749430   -2.235339   -0.485185
 C   -2.432309   -3.454604   -0.668710
 C   -2.401396    1.287457   -0.010648
 O   -1.616677    2.360195    0.253359
 C   -2.230212    3.622119    0.389969
 C   -3.790284    1.357456   -0.160797
 C   -4.498536    0.190692   -0.418707
 C   -3.863433   -1.039776   -0.532801
 H    6.233241   -0.613833    0.887588
 H    6.571189    0.021093   -0.686364
 H    2.719017    1.057841   -2.582609
 H   -0.092073   -1.128445    3.162521
 H   -1.485305   -0.661227    2.256358
 H    0.248219    0.792404   -1.846047
 H   -3.132121   -3.650505    0.153482
 H   -2.976699   -3.472113   -1.621411
 H   -1.663081   -4.227083   -0.679194
 H   -2.740076    3.924636   -0.533448
 H   -2.947534    3.634138    1.220485
 H   -1.422771    4.323659    0.601803
 H   -4.317742    2.299657   -0.078314
 H   -5.577095    0.241914   -0.534876
 H   -4.445031   -1.929692   -0.739434
