22 
2v6n_ligand_ani.xyz
 C   -3.170901    1.111556   -0.001992
 N   -2.360894   -0.085117   -0.004317
 C   -2.987650   -1.386925    0.007925
 C   -0.987103    0.015595   -0.003147
 C   -0.348272    1.274954   -0.000393
 C    1.034659    1.362564    0.001904
 C    1.828220    0.217511    0.000692
 C    3.301719    0.332128    0.003848
 O    4.061615   -0.610661   -0.000797
 C    1.207451   -1.033127   -0.003290
 C   -0.171809   -1.137547   -0.004923
 H   -2.982558    1.727336    0.888078
 H   -2.978277    1.732002   -0.887712
 H   -4.229141    0.835627   -0.005483
 H   -2.711458   -1.977334   -0.876189
 H   -2.705852   -1.963615    0.899430
 H   -4.074833   -1.268543    0.010315
 H   -0.932361    2.188010    0.000645
 H    1.508393    2.344238    0.004644
 H    3.693414    1.373631    0.011290
 H    1.828119   -1.925769   -0.004716
 H   -0.619997   -2.124740   -0.007457
