138 
2v88_ligand_ani.xyz
 N    1.795094   -2.894036    1.277634
 C    2.998021   -2.980469    2.141625
 C    4.187695   -2.287632    1.466713
 O    4.543674   -1.162929    1.804075
 C    3.241119   -4.431203    2.542346
 N    4.816929   -2.964322    0.472048
 C    5.853888   -2.293240   -0.280988
 C    6.444804   -3.172271   -1.397324
 C    5.536629   -3.569561   -2.576477
 C    4.818318   -4.920028   -2.447544
 N    3.827231   -5.014028   -1.366756
 C    2.457890   -4.691448   -1.752245
 N    1.570587   -5.318653   -0.783945
 C    0.158784   -5.082292   -1.072641
 N    2.258983   -3.261810   -1.729989
 C    1.636313   -2.654634   -2.896870
 C    5.308470   -0.961506   -0.828572
 O    4.234006   -0.890218   -1.428845
 N    6.099068    0.112021   -0.615661
 C    5.816336    1.508882   -0.951219
 C    4.711819    2.151524   -0.086407
 O    4.898489    3.274378    0.390453
 C    5.673352    1.806636   -2.465329
 O    6.255696    3.100501   -2.626698
 C    4.267789    1.803638   -3.054356
 N    3.570252    1.467767    0.103117
 C    2.519983    1.958227    0.969547
 C    1.816700    3.239698    0.430704
 C    2.022956    4.475508    1.318437
 C    1.800550    5.808061    0.595142
 C    2.761410    6.066676   -0.571936
 N    4.196895    5.850227   -0.247362
 C    5.018271    5.901779   -1.469089
 C    4.701288    6.831985    0.728494
 C    1.516441    0.816554    1.177526
 O    1.550277   -0.215277    0.514324
 N    0.597257    1.041343    2.155768
 C   -0.674934    0.347078    2.209297
 C   -1.754053    1.265420    1.618109
 O   -1.591052    2.473964    1.524914
 C   -1.018555   -0.043723    3.654466
 C   -0.160379   -1.209969    4.175480
 C   -0.734204   -2.588605    3.876952
 O   -0.181870   -3.415329    3.159996
 N   -1.930189   -2.865970    4.462326
 N   -2.897934    0.651296    1.219464
 C   -4.031147    1.403545    0.746808
 C   -5.299986    0.633061    1.109059
 O   -5.270275   -0.554650    1.389760
 C   -3.969372    1.671606   -0.783348
 O   -5.104930    2.422110   -1.179482
 C   -3.817077    0.402399   -1.611032
 N   -6.453311    1.367600    1.079785
 C   -7.719864    0.676342    0.971108
 C   -7.905345    0.122020   -0.450923
 O   -7.262273    0.521767   -1.417323
 C   -8.867998    1.621076    1.323100
 N   -8.859447   -0.840718   -0.589374
 C   -9.396247   -1.104682   -1.906091
 C  -10.245056    0.083966   -2.349111
 O  -10.660252   -0.040281   -3.621150
 C  -10.187861   -2.409389   -1.935654
 O  -10.528045    1.030521   -1.655493
 H    1.697215   -1.943115    0.879215
 H    1.855568   -3.570322    0.490640
 H    0.962266   -3.112496    1.858937
 H    2.801960   -2.376240    3.034333
 H    2.387007   -4.786526    3.127393
 H    3.332413   -5.078720    1.663368
 H    4.147469   -4.529397    3.145467
 H    4.443342   -3.830576    0.093789
 H    6.668576   -2.049871    0.410294
 H    7.305964   -2.620488   -1.794521
 H    6.857476   -4.075212   -0.927229
 H    6.173938   -3.648893   -3.466818
 H    4.820283   -2.771859   -2.794165
 H    5.572722   -5.698331   -2.270884
 H    4.338410   -5.158069   -3.411504
 H    3.843797   -5.956028   -0.991115
 H    2.248626   -5.079074   -2.776667
 H    1.737648   -6.320763   -0.799260
 H   -0.139116   -5.357217   -2.100747
 H   -0.454751   -5.657889   -0.373080
 H   -0.074226   -4.021514   -0.928704
 H    3.141674   -2.792827   -1.544428
 H    0.543376   -2.741143   -2.849971
 H    1.979217   -3.087811   -3.850347
 H    1.880670   -1.586878   -2.898409
 H    6.876340   -0.028320    0.012078
 H    6.713666    2.051316   -0.665108
 H    6.290035    1.056690   -2.981196
 H    6.197674    3.321256   -3.564767
 H    3.657241    2.598397   -2.611511
 H    3.777337    0.841012   -2.906586
 H    4.331307    1.997573   -4.132454
 H    3.421593    0.561605   -0.332731
 H    2.960048    2.198689    1.949551
 H    0.741663    3.061883    0.302045
 H    2.215849    3.425024   -0.570767
 H    1.344107    4.413722    2.180153
 H    3.037775    4.466972    1.737017
 H    1.869595    6.631978    1.317474
 H    0.779488    5.851600    0.192749
 H    2.520174    5.413750   -1.419352
 H    2.643096    7.100150   -0.930457
 H    4.317424    4.905273    0.136850
 H    6.065113    5.728089   -1.212875
 H    4.924905    6.883637   -1.950710
 H    4.689420    5.129605   -2.168426
 H    4.153902    6.759279    1.669019
 H    4.589052    7.849526    0.331210
 H    5.761750    6.649234    0.920820
 H    0.526441    2.007299    2.452039
 H   -0.586847   -0.557342    1.596948
 H   -2.079919   -0.305470    3.728211
 H   -0.868383    0.836217    4.289254
 H   -0.051716   -1.120911    5.264009
 H    0.846671   -1.158278    3.750205
 H   -2.279046   -3.809425    4.379931
 H   -2.312224   -2.282902    5.188781
 H   -3.081645   -0.318902    1.444425
 H   -4.025892    2.386813    1.228030
 H   -3.102057    2.320903   -0.941060
 H   -5.801311    1.783162   -1.425244
 H   -4.654092   -0.284834   -1.450628
 H   -2.886580   -0.116522   -1.364294
 H   -3.794785    0.671593   -2.671937
 H   -6.379277    2.228082    0.546587
 H   -7.691295   -0.162599    1.673637
 H   -8.710867    2.034499    2.322558
 H   -8.925716    2.448465    0.605358
 H   -9.831369    1.100439    1.311735
 H   -9.506639   -0.944931    0.180509
 H   -8.549023   -1.164544   -2.594012
 H  -11.180847    0.756772   -3.816379
 H   -9.546101   -3.233820   -1.614031
 H  -11.056258   -2.357653   -1.267896
 H  -10.549247   -2.614447   -2.946499
