28 
2vb8_ligand_ani.xyz
 S    1.049479   -1.443571   -0.958019
 C    2.233329   -0.088221   -0.816181
 C    1.815930    0.845123    0.238613
 C    0.687654    0.449081    0.850289
 C    0.130759   -0.924404    0.557132
 C   -1.369687   -0.928332    0.324640
 C   -2.141966    0.004639   -0.251367
 C   -3.607263   -0.153106   -0.151442
 C   -4.522988    0.697369   -0.616536
 O    3.211440    0.010560   -1.513648
 C    2.595136    2.096231    0.487723
 O    0.049019    1.215949    1.760172
 C    0.456940   -1.892746    1.716504
 C   -1.607910    1.194362   -0.996918
 H   -1.855877   -1.835007    0.686299
 H   -3.946203   -1.054607    0.364062
 H   -4.247573    1.609798   -1.140829
 H   -5.583322    0.503699   -0.485768
 H    3.633936    1.855845    0.733262
 H    2.156604    2.673992    1.304591
 H    2.615228    2.716798   -0.414450
 H   -0.851462    0.868251    1.852945
 H   -0.001512   -1.529355    2.643018
 H    1.536650   -1.967375    1.863049
 H    0.072412   -2.890582    1.487941
 H   -2.194583    1.376557   -1.901018
 H   -0.569123    1.054472   -1.306068
 H   -1.660109    2.102624   -0.385652
