28 
2vba_ligand_dft.xyz
 N   -0.258660    0.816045    0.000468
 C    0.001235   -0.468348    0.000395
 N    1.244613   -1.021676    0.000575
 C   -1.610481    1.040384    0.000268
 C   -2.402639   -0.083991    0.000048
 C   -3.849964   -0.311629   -0.000287
 C   -2.057046    2.474290    0.000325
 C    2.508613   -0.401325    0.000213
 C    3.623705   -1.248406   -0.000027
 C    4.906609   -0.720219   -0.000391
 C    5.098672    0.658967   -0.000520
 C    3.988443    1.496096   -0.000273
 C    2.694184    0.983740    0.000106
 S   -1.394059   -1.516547    0.000094
 C   -4.791278    0.874238   -0.000565
 O   -4.282174   -1.454072   -0.000380
 H    1.270606   -2.030365    0.000709
 H   -2.657421    2.711952    0.883789
 H   -1.173607    3.114594    0.000763
 H   -2.656756    2.712242   -0.883518
 H    3.484595   -2.327455    0.000053
 H    5.758978   -1.392830   -0.000577
 H    6.101507    1.073785   -0.000810
 H    4.122630    2.573843   -0.000363
 H    1.833934    1.638247    0.000315
 H   -4.634100    1.501498   -0.884039
 H   -5.814923    0.497302   -0.001173
 H   -4.635079    1.501147    0.883332
