44 
2vcb_ligand_ani.xyz
 C   -3.016907    4.310965    0.406992
 C   -3.391175    2.919760   -0.049499
 O   -4.491735    2.706362   -0.563150
 N   -2.463386    1.956275    0.133032
 C   -2.570058    0.603387   -0.407055
 C   -3.662711   -0.235807    0.283764
 O   -4.964246    0.096652   -0.119356
 C   -3.506024   -1.708008   -0.074326
 O   -4.425649   -2.483117    0.654462
 C   -2.109109   -2.181773    0.252176
 C   -1.823527   -3.619621   -0.160052
 O   -0.487365   -3.950789    0.129323
 O   -1.149772   -1.379421   -0.473028
 C   -1.210283   -0.053435   -0.269385
 N   -0.184672    0.672323   -0.030901
 O    0.963958   -0.131358   -0.070849
 C    2.115842    0.606246    0.045232
 O    2.156125    1.797590    0.189949
 N    3.153204   -0.286755   -0.035876
 C    4.533434   -0.028007   -0.009052
 C    5.049792    1.268239    0.047623
 C    6.428624    1.449368    0.063541
 C    7.298642    0.363741    0.025639
 C    6.777108   -0.926089   -0.029411
 C    5.402289   -1.123503   -0.047888
 H   -3.798759    4.674543    1.079227
 H   -3.005226    4.972158   -0.464544
 H   -2.048989    4.364047    0.913127
 H   -1.525506    2.202700    0.433953
 H   -2.834647    0.645787   -1.475418
 H   -3.546154   -0.117184    1.374791
 H   -5.000393    1.059509   -0.301865
 H   -3.670775   -1.808076   -1.161595
 H   -5.294221   -2.085565    0.497507
 H   -1.919980   -2.067033    1.330765
 H   -2.469196   -4.298640    0.402602
 H   -2.051225   -3.744984   -1.232980
 H    0.045810   -3.236516   -0.251170
 H    2.873639   -1.249652   -0.131801
 H    4.366313    2.109146    0.078967
 H    6.825398    2.461004    0.107020
 H    8.373297    0.522549    0.038937
 H    7.442395   -1.785255   -0.059155
 H    4.996036   -2.131588   -0.090761
