22 
2vcw_ligand_ani.xyz
 O   -4.463043   -0.300172   -0.057691
 C   -3.394647    0.506873    0.126339
 O   -3.544550    1.670848    0.393151
 C   -2.064440   -0.119546   -0.018271
 C   -1.658050   -1.452861   -0.278850
 N   -0.344561   -1.566736   -0.304768
 N    0.122027   -0.319635   -0.082477
 C   -0.880126    0.568074    0.108073
 C    1.521404   -0.074871   -0.039139
 C    2.016198    1.186369   -0.363231
 C    3.384839    1.422522   -0.301176
 C    4.256088    0.407742    0.081489
 C    3.752516   -0.852762    0.394421
 C    2.386808   -1.102371    0.330866
 H   -4.177240   -1.198303   -0.272454
 H   -2.251151   -2.344923   -0.441019
 H   -0.717797    1.609123    0.355592
 H    1.338278    1.970539   -0.685541
 H    3.767493    2.408575   -0.552251
 H    5.325015    0.595514    0.132631
 H    4.427435   -1.653198    0.686965
 H    1.982912   -2.083162    0.559989
