41 
2vd0_ligand_ani.xyz
 C   -4.157519    0.884938    0.014035
 C   -3.714865   -0.456990   -0.032422
 C   -3.173537    2.010574    0.101958
 N   -2.339814   -0.701761   -0.053201
 C   -1.686043   -1.894876    0.110406
 C   -0.195218   -1.835647    0.075547
 C    4.070178    0.609547   -0.204444
 C    0.584002   -0.759654   -0.068234
 C    4.849195   -0.565810   -0.189855
 C    2.686167    0.507887   -0.167984
 O   -2.006575    1.932644   -0.231643
 O   -2.233365   -2.974073    0.281198
 C    2.053837   -0.744031   -0.106679
 C    4.220752   -1.799688   -0.128529
 O   -3.624687    3.186223    0.576024
 C    2.834254   -1.896282   -0.086101
 O    4.763045    1.778385   -0.260234
 C   -5.530034    1.144804   -0.065764
 O    6.212448   -0.512377   -0.293752
 C   -4.648087   -1.493951   -0.075702
 C    4.016796    2.976131   -0.260147
 C    6.881090   -0.067344    0.877219
 C   -6.453067    0.112205   -0.139449
 C   -6.004920   -1.205774   -0.128183
 H   -1.805391    0.149672   -0.195951
 H    0.237745   -2.823593    0.201135
 H    0.157142    0.242925   -0.164266
 H    2.073372    1.403280   -0.180750
 H    4.841509   -2.689861   -0.117653
 H   -4.503341    3.082472    0.965290
 H    2.373737   -2.879174   -0.043383
 H   -5.889123    2.172759   -0.112238
 H   -4.288860   -2.514503   -0.072288
 H    3.355552    3.035531   -1.133979
 H    3.419347    3.072019    0.655402
 H    4.744014    3.787737   -0.303528
 H    6.568201    0.945273    1.152156
 H    6.695459   -0.751836    1.715869
 H    7.947590   -0.068717    0.640161
 H   -7.516140    0.331867   -0.191169
 H   -6.716914   -2.026155   -0.169186
