50 
2ves_ligand_ani.xyz
 O    4.626952   -1.949517   -0.842269
 C    4.040897   -0.870349   -0.783141
 N    4.724789    0.286733   -0.890041
 O    6.103885    0.187546   -0.942464
 C    2.527859   -0.721112   -0.606090
 C    1.795498   -1.965447   -1.111567
 C    0.295289   -1.844110   -0.938771
 C   -0.397903   -0.771763   -1.555252
 C   -1.745495   -0.611912   -1.404429
 C   -2.500663   -1.544243   -0.633351
 C   -3.909727   -1.428995   -0.474757
 C   -1.822744   -2.598957    0.005882
 C   -2.562066   -3.510793    0.810484
 C   -3.916268   -3.371487    0.953544
 C   -4.602186   -2.322146    0.301431
 C   -0.412224   -2.727461   -0.166250
 N    2.208423   -0.478643    0.797733
 S    2.032102    1.061170    1.396620
 O    2.845912    1.982756    0.604840
 O    2.226766    0.936492    2.829264
 C    0.330576    1.416632    1.066577
 C   -0.640676    0.804359    1.875426
 C   -1.968967    1.010750    1.597140
 C   -2.377070    1.807248    0.496670
 C   -3.741272    1.983094    0.145143
 C   -1.384886    2.417947   -0.309061
 C   -0.014388    2.230027    0.018746
 C   -1.793595    3.190018   -1.429126
 C   -3.121250    3.340966   -1.743021
 C   -4.109847    2.731032   -0.947698
 H    4.416881    1.153288   -0.458677
 H    6.231213   -0.783256   -0.895647
 H    2.189856    0.155644   -1.167863
 H    2.048653   -2.102765   -2.168559
 H    2.177477   -2.842699   -0.581898
 H    0.161956   -0.056896   -2.153632
 H   -2.258489    0.233004   -1.851832
 H   -4.419939   -0.615285   -0.984721
 H   -2.029300   -4.318810    1.307158
 H   -4.476001   -4.071751    1.568695
 H   -5.678995   -2.230246    0.420004
 H    0.095897   -3.545090    0.342091
 H    2.659112   -1.081790    1.478668
 H   -0.332569    0.180900    2.710689
 H   -2.735227    0.536394    2.206165
 H   -4.489944    1.479034    0.750847
 H    0.746249    2.725358   -0.573740
 H   -1.024370    3.649743   -2.044967
 H   -3.410734    3.930823   -2.607688
 H   -5.159317    2.851060   -1.200979
