66 
2vew_ligand_xtb.xyz
 C   -5.005461   -1.483254    0.660690
 C   -5.597869   -2.797811    0.181392
 C   -7.098537   -2.639385   -0.024606
 N   -7.398879   -1.323825   -0.192455
 S   -6.051510   -0.283933   -0.229293
 O   -6.369904    0.872584    0.546360
 O   -5.665519   -0.078346   -1.589376
 O   -7.892467   -3.541329   -0.040386
 C   -3.542167   -1.325600    0.407897
 C   -2.661287   -1.181483    1.474377
 C   -1.296062   -1.159315    1.259910
 C   -0.773080   -1.273536   -0.022706
 C   -1.658773   -1.346641   -1.090440
 C   -3.025492   -1.379813   -0.882197
 C    0.710282   -1.314110   -0.236928
 C    1.318464    0.094325   -0.203847
 N    0.783267    0.899081   -1.287548
 S    0.548778    2.519213   -0.989213
 O    0.477633    3.168631   -2.260068
 O    1.497728    3.004754   -0.019786
 C    4.884482   -0.553175   -0.769127
 C    4.933166    0.872458   -0.151791
 N    3.471961   -0.881831   -0.863228
 C    2.817378    0.051713   -0.288221
 N    3.552707    1.060108    0.253018
 F   -2.558492    2.350876    3.037039
 C   -2.427456    2.326722    1.697619
 C   -3.550435    2.133075    0.912885
 C   -1.167146    2.482504    1.145502
 C   -1.060401    2.429764   -0.228661
 C   -2.158375    2.225694   -1.040583
 C   -3.410340    2.085518   -0.465350
 C    9.858055   -1.075792    0.009589
 C    9.201333   -1.668334   -1.056282
 C    7.830291   -1.845375   -1.018211
 C    7.077975   -1.437648    0.078013
 C    7.768451   -0.849056    1.129850
 C    9.138048   -0.663125    1.115846
 C    5.589755   -1.607147    0.103979
 F    7.083308   -0.441987    2.226563
 H   -5.249259   -1.299194    1.707188
 H   -5.166065   -3.076460   -0.783548
 H   -5.410252   -3.616947    0.877320
 H   -8.343655   -1.035087   -0.389489
 H   -3.045404   -1.114357    2.481664
 H   -0.626923   -1.078777    2.103828
 H   -1.271468   -1.404145   -2.095917
 H   -3.695904   -1.440685   -1.724969
 H    1.190507   -1.900467    0.546919
 H    0.956180   -1.765584   -1.196968
 H    1.027455    0.605983    0.718655
 H    1.188586    0.703614   -2.189525
 H    5.321070   -0.581949   -1.773106
 H    5.592843    0.926849    0.715476
 H    5.246212    1.626828   -0.881940
 H    3.151555    1.975361    0.400514
 H   -4.522468    2.023283    1.366923
 H   -0.297959    2.658540    1.758409
 H   -2.015076    2.195644   -2.107790
 H   -4.282389    1.925273   -1.078460
 H   10.927889   -0.937597   -0.016742
 H    9.761377   -1.996592   -1.918729
 H    7.323801   -2.314412   -1.848756
 H    9.618863   -0.202360    1.964431
 H    5.319206   -2.588697   -0.288728
 H    5.209688   -1.524668    1.122958
