69 
2vex_ligand_ani.xyz
 C    4.652109   -1.424690    0.511140
 C    5.627505   -0.410369   -0.093010
 C    6.951221   -1.124989   -0.363518
 N    6.751757   -2.503633   -0.276434
 S    5.120379   -2.968103   -0.292695
 O    4.634142   -3.000080   -1.662316
 O    4.918952   -4.110880    0.574833
 O    8.012258   -0.613907   -0.616789
 C    3.180229   -1.146905    0.393595
 C    2.600926   -0.745979   -0.811123
 C    1.234528   -0.528566   -0.895695
 C    0.394231   -0.744186    0.200678
 C    0.982796   -1.123023    1.408411
 C    2.355286   -1.322664    1.503883
 C   -1.104468   -0.583954    0.069379
 C   -1.518621    0.856868   -0.241094
 N   -1.163783    1.726099    0.878120
 S   -0.620424    3.272804    0.611372
 O   -0.739553    3.944047    1.892730
 O   -1.276262    3.830597   -0.573768
 C   -5.095108    0.463035   -1.045912
 C   -4.837177    1.928285   -1.463537
 N   -3.756896   -0.068633   -0.757200
 C   -2.991110    0.948694   -0.594982
 N   -3.565677    2.177069   -0.806381
 F    4.060855    1.745455    1.803830
 C    3.239428    2.269365    0.874259
 C    3.765945    2.631786   -0.359915
 C    1.902280    2.438855    1.188344
 C    1.080654    3.003580    0.219296
 C    1.565246    3.373130   -1.031987
 C    2.913121    3.183169   -1.311173
 C   -5.980752   -1.852482   -1.688212
 C   -5.888154   -0.363901   -2.058401
 C   -8.063301   -2.417248   -0.368678
 C   -6.699190   -2.122142   -0.386627
 C   -6.017782   -2.052352    0.832975
 C   -6.681240   -2.278027    2.035322
 C   -8.042074   -2.569531    2.037562
 C   -8.732220   -2.636786    0.831779
 H    4.908993   -1.605771    1.562164
 H    5.780023    0.455874    0.554385
 H    5.258218   -0.047110   -1.060660
 H    7.435099   -3.128492   -0.692315
 H    3.208763   -0.638200   -1.708193
 H    0.812423   -0.206220   -1.846111
 H    0.356193   -1.261898    2.287406
 H    2.786045   -1.633120    2.454914
 H   -1.493182   -1.222265   -0.731058
 H   -1.597300   -0.901505    0.993553
 H   -0.948158    1.208725   -1.108329
 H   -1.797716    1.713510    1.671059
 H   -5.649232    0.481310   -0.093880
 H   -4.748105    2.020824   -2.558581
 H   -5.617599    2.614367   -1.118186
 H   -2.995959    2.993383   -1.003068
 H    4.822976    2.480413   -0.564115
 H    1.523434    2.145468    2.163391
 H    0.893285    3.812403   -1.763475
 H    3.306937    3.476802   -2.280092
 H   -4.961505   -2.252534   -1.628361
 H   -6.485899   -2.386258   -2.502580
 H   -5.407159   -0.279948   -3.042138
 H   -6.892339    0.068054   -2.150786
 H   -8.610114   -2.485195   -1.307805
 H   -4.962532   -1.785648    0.824812
 H   -6.135411   -2.220710    2.973474
 H   -8.561804   -2.742826    2.976522
 H   -9.795293   -2.866116    0.823934
