55 
2vh6_ligand_ani.xyz
 C   -4.989634    2.175079    0.154795
 S   -3.750675    0.984965   -0.310270
 O   -2.741890    1.009250    0.738662
 O   -3.389795    1.260448   -1.702171
 C   -4.581730   -0.605008   -0.238838
 C   -5.965617   -0.669732   -0.383357
 C   -6.634468   -1.873675   -0.215910
 C   -5.921522   -3.024530    0.097784
 C   -4.539157   -2.963803    0.202979
 C   -3.837875   -1.773548   -0.018844
 C   -2.352083   -1.834712   -0.031408
 C   -1.671403   -2.252441    1.110659
 C   -0.295805   -2.361150    1.089145
 F    0.325838   -2.736680    2.229743
 C   -1.608531   -1.552591   -1.177831
 C   -0.228435   -1.675661   -1.196320
 C    0.467957   -2.101785   -0.057879
 N    1.860724   -2.293981   -0.066132
 C    2.737424   -1.621523   -0.896684
 O    2.444007   -0.823674   -1.763435
 C    2.563920   -3.207499    0.846153
 C    3.931938   -3.374905    0.181439
 C    4.167874   -2.034282   -0.512208
 N    4.681940   -1.032631    0.429749
 S    5.380986    0.365583   -0.155972
 O    6.055007    0.936023    0.996639
 O    6.099027    0.087530   -1.389336
 C    3.972264    1.340692   -0.561278
 C    3.146730    1.759973    0.408053
 C    1.836437    2.314089    0.101711
 S    0.931825    3.207063    1.282781
 C    1.147871    2.222041   -1.085059
 C   -0.106549    2.895233   -1.059669
 C   -0.351320    3.458241    0.152898
Cl   -1.753037    4.328714    0.620680
 H   -5.705423    2.310414   -0.657597
 H   -5.476259    1.857099    1.079480
 H   -4.448044    3.108425    0.327698
 H   -6.543025    0.219478   -0.616235
 H   -7.714871   -1.905035   -0.318159
 H   -6.438615   -3.967084    0.252710
 H   -3.974483   -3.862102    0.437667
 H   -2.204876   -2.486946    2.028257
 H   -2.120148   -1.218069   -2.077006
 H    0.320913   -1.439392   -2.096720
 H    2.020635   -4.151474    0.929451
 H    2.644344   -2.762897    1.842262
 H    4.721195   -3.623328    0.896237
 H    3.889040   -4.170954   -0.567611
 H    4.810801   -2.086788   -1.393889
 H    5.264555   -1.384760    1.182874
 H    3.817082    1.492307   -1.626550
 H    3.443492    1.693888    1.454553
 H    1.512486    1.639870   -1.922766
 H   -0.803112    2.956186   -1.888713
