55 
2vh6_ligand_xtb.xyz
 C   -4.646422    1.783338    1.170220
 S   -3.477956    0.899697    0.080954
 O   -2.251038    0.735188    0.813353
 O   -3.406634    1.569945   -1.190847
 C   -4.282409   -0.693978   -0.176463
 C   -5.655534   -0.684559   -0.342434
 C   -6.350298   -1.875352   -0.463213
 C   -5.661703   -3.077198   -0.400066
 C   -4.287406   -3.082235   -0.259714
 C   -3.571210   -1.887231   -0.166855
 C   -2.104601   -1.921509   -0.117487
 C   -1.446920   -2.728683    0.798819
 C   -0.068960   -2.803222    0.804321
 F    0.471065   -3.588591    1.772210
 C   -1.338018   -1.198667   -1.026312
 C    0.035770   -1.305958   -1.032605
 C    0.723225   -2.118593   -0.122968
 N    2.118557   -2.221906   -0.151743
 C    2.960600   -1.468194   -0.914081
 O    2.666816   -0.723388   -1.819810
 C    2.846415   -3.120907    0.736812
 C    4.279999   -3.094724    0.208360
 C    4.382447   -1.703956   -0.395187
 N    4.591938   -0.685502    0.621285
 S    5.139594    0.804293    0.026861
 O    5.597519    1.510280    1.187245
 O    6.065530    0.579231   -1.046920
 C    3.649102    1.515619   -0.596026
 C    2.680712    1.802901    0.270155
 C    1.371104    2.268462   -0.074742
 S    0.327361    2.934638    1.148153
 C    0.755398    2.275655   -1.303020
 C   -0.532444    2.829608   -1.283405
 C   -0.889113    3.243407   -0.033042
Cl   -2.337717    4.012513    0.386700
 H   -5.368032    2.319215    0.567789
 H   -5.121039    1.054039    1.814220
 H   -4.061872    2.475926    1.762691
 H   -6.177939    0.257448   -0.387625
 H   -7.420699   -1.866185   -0.598730
 H   -6.198010   -4.010945   -0.475954
 H   -3.745697   -4.016028   -0.244290
 H   -1.992702   -3.287516    1.543459
 H   -1.824628   -0.553945   -1.741540
 H    0.604537   -0.747386   -1.754535
 H    2.420724   -4.124443    0.696038
 H    2.799483   -2.752926    1.765853
 H    5.011308   -3.270011    0.994930
 H    4.415539   -3.843179   -0.572986
 H    5.127130   -1.603529   -1.194115
 H    5.230336   -0.975834    1.349356
 H    3.590430    1.593003   -1.663634
 H    2.901714    1.687880    1.322943
 H    1.220054    1.877569   -2.185831
 H   -1.182418    2.911076   -2.134680
