31 
2vin_ligand_xtb.xyz
 C   -3.889886   -0.351609    1.042721
 C   -2.842787   -0.452449   -0.045456
 N   -2.782498    0.802480   -0.867351
 C   -1.411905   -0.630291    0.488461
 O   -0.558524   -0.270929   -0.588364
 C    0.792683   -0.059269   -0.230592
 C    1.657982   -1.146269   -0.146779
 C    1.193598   -2.543769   -0.420845
 C    2.981591   -0.898316    0.197104
 C    3.422344    0.387491    0.442126
 C    2.548855    1.454720    0.331839
 C    1.219466    1.249676   -0.006065
 C    0.276216    2.412034   -0.146204
 H   -4.880959   -0.211485    0.618863
 H   -3.904828   -1.268095    1.625150
 H   -3.673249    0.470645    1.721229
 H   -3.069257   -1.274521   -0.729014
 H   -2.960626    1.631897   -0.291226
 H   -3.418383    0.801084   -1.667270
 H   -1.761297    0.784827   -1.171398
 H   -1.245247   -1.665495    0.797932
 H   -1.232252    0.020903    1.353687
 H    1.990453   -3.114130   -0.890431
 H    0.327553   -2.548763   -1.078652
 H    0.932754   -3.047910    0.510428
 H    3.666939   -1.728631    0.267608
 H    4.452201    0.562574    0.710072
 H    2.899686    2.459657    0.508495
 H    0.810788    3.341372    0.025111
 H   -0.143632    2.448216   -1.152187
 H   -0.533903    2.356232    0.582116
