86 
2viy_ligand_dft.xyz
 C    1.367622   -2.313040   -0.475745
 N    2.594888   -2.018682   -0.932219
 C    3.849756   -2.467638   -0.327936
 C    4.045606   -2.122807    1.176280
 C    5.021847   -1.946345   -1.193490
 O    1.199480   -2.872909    0.625589
 C    0.196258   -1.882003   -1.286815
 C    0.241525   -1.680968   -2.667764
 C   -0.876397   -1.200136   -3.343843
 C   -2.042528   -0.902662   -2.645108
 C   -2.081779   -1.130239   -1.272036
 C   -0.983051   -1.626509   -0.590638
 C    5.276351   -0.462046   -1.051796
 C    6.211201    0.008962   -0.124233
 C    6.367719    1.372844    0.104274
 C    5.591562    2.291761   -0.597437
 C    4.682948    1.838928   -1.549666
 C    4.537046    0.474177   -1.780649
 O    3.500943   -3.089243    2.045271
 C    1.541503    0.462854    2.624697
 C    3.574575   -0.706396    1.599394
 N    2.229246   -0.814084    2.252591
 S   -3.533213   -0.670476   -0.320976
 C    2.441966    1.364365    3.464123
 C    1.056125    1.108773    1.309830
 N    0.404241    2.269596    1.433580
 C   -0.146592    2.986821    0.274623
 O    1.295200    0.559160    0.238437
 C   -1.362571    2.265919   -0.310258
 C   -1.943321    3.040882   -1.494280
 C   -2.286017    4.479476   -1.100039
 C   -1.070004    5.195727   -0.505068
 C   -0.485408    4.420777    0.681169
 C   -4.566841   -2.147740   -0.368525
 C   -5.699590   -2.094324    0.657937
 C   -6.764017   -1.027673    0.394156
 C   -7.917045   -1.109810    1.395303
 C   -8.977660   -0.036762    1.157892
 O   -3.083401   -0.474216    1.058756
 O   -4.188461    0.413560   -1.049633
 H    2.655904   -1.351938   -1.687068
 H    3.866694   -3.562969   -0.374233
 H    5.125002   -2.155759    1.346519
 H    4.817161   -2.207079   -2.238412
 H    5.916278   -2.507133   -0.905573
 H    1.140190   -1.918076   -3.230808
 H   -0.833619   -1.045570   -4.416594
 H   -2.905566   -0.479489   -3.148983
 H   -1.027755   -1.774719    0.482164
 H    6.830678   -0.699036    0.421631
 H    7.105242    1.717860    0.822400
 H    5.715084    3.355925   -0.423590
 H    4.095661    2.547319   -2.125245
 H    3.851255    0.145451   -2.559301
 H    2.663497   -3.388615    1.640308
 H    0.665708    0.157842    3.208643
 H    4.257843   -0.293801    2.342312
 H    3.478570   -0.015840    0.765259
 H    2.350607   -1.420569    3.069932
 H    1.615164   -1.359040    1.620612
 H    3.252236    1.792280    2.868249
 H    2.868494    0.818678    4.311615
 H    1.859098    2.191103    3.876060
 H    0.145301    2.603221    2.351593
 H    0.649307    3.005289   -0.479649
 H   -2.125051    2.152164    0.470687
 H   -1.062691    1.261544   -0.619908
 H   -1.211893    3.052494   -2.315217
 H   -2.832037    2.517185   -1.857896
 H   -2.659213    5.033727   -1.967380
 H   -3.097123    4.465800   -0.359671
 H   -1.336971    6.207547   -0.183425
 H   -0.296314    5.305193   -1.277576
 H    0.407909    4.924327    1.069701
 H   -1.229184    4.394754    1.491909
 H   -4.937910   -2.227345   -1.395203
 H   -3.890840   -2.984888   -0.166962
 H   -6.167428   -3.086440    0.652986
 H   -5.265171   -1.957494    1.654795
 H   -6.315205   -0.028630    0.437604
 H   -7.154216   -1.143797   -0.626304
 H   -8.379642   -2.104070    1.338624
 H   -7.517041   -1.011973    2.413263
 H   -8.543543    0.966478    1.233022
 H   -9.785167   -0.108994    1.892721
 H   -9.421352   -0.134946    0.160861
