89 
2viz_ligand_xtb.xyz
 C   -0.109366    2.292246   -0.835737
 C    0.101300    0.962888   -1.171896
 C    1.349177    0.385799   -0.962070
 C    2.400273    1.140323   -0.469490
 C    2.207464    2.495715   -0.182937
 C    0.946206    3.063001   -0.352426
 C    1.469505   -1.066032   -1.249768
 N    2.204652   -1.752202   -0.356021
 O    0.840531   -1.609041   -2.153287
 C    2.507747   -3.174487   -0.417395
 C    3.427368   -3.515264    0.765765
 C    1.228520   -4.045489   -0.417474
 O    0.679667   -4.169300   -1.698707
 C    4.636703   -2.617326    0.756649
 C    0.138489   -3.503523    0.572911
 N   -1.155022   -3.505974   -0.126162
 C   -1.882309   -2.230268   -0.305472
 C   -3.140804   -2.399448    0.581348
 N   -3.898807   -1.337302    0.735302
 O   -3.327835   -3.520098    1.053219
 C   -5.163603   -1.357675    1.454893
 C   -2.284707   -2.031113   -1.760355
 C   -6.327053   -1.149363    0.480410
 C   -6.343597    0.268550   -0.084050
 C   -6.408976    1.287143    1.049317
 C   -5.209991    1.120764    1.977889
 C   -5.173542   -0.292895    2.553759
 C    5.690624   -2.870403   -0.112662
 C    6.771919   -2.009989   -0.174420
 C    6.808671   -0.879694    0.625841
 C    5.766505   -0.620762    1.498530
 C    4.686463   -1.485920    1.563917
 O    3.291554    3.150536    0.270602
 C    3.209734    4.537577    0.559143
 C    4.589590    5.002962    1.010709
 C    4.597991    6.495152    1.313054
 N   -1.383734    2.853764   -0.985143
 C   -1.577468    4.276386   -1.222657
 C   -3.013254    4.355555   -1.741918
 C   -3.685289    3.172650   -1.051762
 C   -2.554550    2.190822   -0.835184
 O   -2.679005    1.013167   -0.537657
 H   -0.692806    0.372135   -1.592613
 H    3.391352    0.734736   -0.336047
 H    0.780994    4.097606   -0.104560
 H    2.769758   -1.224323    0.296519
 H    3.034738   -3.392211   -1.357271
 H    3.735059   -4.557287    0.679845
 H    2.873659   -3.393582    1.698829
 H    1.509332   -5.060447   -0.118143
 H    0.761530   -3.280610   -2.141109
 H    0.388690   -2.487788    0.882258
 H    0.090372   -4.134312    1.459437
 H   -0.910952   -3.936088   -1.057246
 H   -1.907519   -4.066840    0.395384
 H   -1.287380   -1.382656    0.040342
 H   -3.620394   -0.459687    0.305789
 H   -5.238834   -2.352850    1.905396
 H   -2.914860   -2.848721   -2.102848
 H   -2.839230   -1.102351   -1.858365
 H   -1.400375   -1.966796   -2.390899
 H   -7.257946   -1.334575    1.017822
 H   -6.257050   -1.879109   -0.328457
 H   -7.206929    0.384904   -0.740683
 H   -5.445818    0.442712   -0.681099
 H   -7.329258    1.137640    1.617010
 H   -6.432086    2.299403    0.641801
 H   -4.288498    1.319489    1.427092
 H   -5.269086    1.840034    2.796509
 H   -4.295410   -0.418235    3.190326
 H   -6.058927   -0.452888    3.170428
 H    5.666184   -3.750738   -0.738043
 H    7.587670   -2.221432   -0.848397
 H    7.650743   -0.207213    0.574761
 H    5.792013    0.253749    2.130862
 H    3.889829   -1.290397    2.270907
 H    2.473941    4.713909    1.355533
 H    2.901227    5.089872   -0.338443
 H    4.875980    4.438200    1.898920
 H    5.308506    4.775181    0.222786
 H    3.888760    6.732520    2.102744
 H    4.332529    7.068434    0.427874
 H    5.587017    6.805147    1.637036
 H   -0.842678    4.641973   -1.941387
 H   -1.471487    4.835600   -0.285447
 H   -3.482595    5.307375   -1.506872
 H   -3.029629    4.218710   -2.823331
 H   -4.086022    3.450411   -0.073641
 H   -4.491481    2.723994   -1.629287
