14 
2vj1_ligand_xtb.xyz
 C   -2.200711   -0.253439   -0.000762
 C   -1.724359    1.049088   -0.000384
 C   -0.363362    1.287157   -0.000155
 C    0.532508    0.218621    0.000876
 C    1.979791    0.460100    0.000969
 O    2.830471   -0.392636   -0.001962
 C    0.044693   -1.089247    0.001171
 C   -1.316307   -1.321868    0.000113
 H   -3.265270   -0.435906   -0.000881
 H   -2.418367    1.876549   -0.000441
 H    0.014611    2.299700   -0.000337
 H    2.251235    1.535665    0.004116
 H    0.753775   -1.903580    0.002853
 H   -1.693272   -2.333809   -0.000578
