87 
2vj6_ligand_xtb.xyz
 C   -0.194202    2.501637   -0.486180
 C    0.160419    1.243817   -0.957743
 C    1.468549    0.801326   -0.801905
 C    2.433528    1.622099   -0.242927
 C    2.102406    2.918972    0.174720
 C    0.769806    3.335950    0.063868
 C    1.754234   -0.594019   -1.213589
 N    2.518645   -1.278004   -0.340505
 O    1.232966   -1.116149   -2.194803
 C    2.990668   -2.645057   -0.501490
 C    3.879909   -2.985658    0.705425
 C    1.824213   -3.650541   -0.652081
 O    1.345215   -3.703560   -1.965205
 C    4.958011   -1.946805    0.867948
 C    0.641207   -3.334649    0.329524
 N   -0.614739   -3.407428   -0.430582
 C   -1.484011   -2.212910   -0.505288
 C   -2.744885   -2.629613    0.291566
 N   -3.630417   -1.688460    0.527872
 O   -2.813888   -3.813587    0.620429
 C   -4.909462   -1.943221    1.173723
 C   -1.852689   -1.896346   -1.948310
 C   -6.053140   -1.738259    0.175257
 C   -6.212896   -0.269089   -0.205729
 C   -6.435468    0.579514    1.041883
 C   -5.261708    0.423487    2.003849
 C   -5.084712   -1.041111    2.397074
 C    4.811371   -0.911037    1.784640
 C    5.769993    0.084337    1.882403
 C    6.885955    0.053683    1.064630
 C    7.044325   -0.979498    0.155056
 C    6.084440   -1.970376    0.054698
 N    3.070412    3.690723    0.747579
 C    2.964844    5.116173    0.966638
 C    3.059676    5.927058   -0.325591
 N   -1.529216    2.923812   -0.576972
 C   -1.885317    4.332154   -0.657945
 C   -3.328043    4.305865   -1.163042
 C   -3.852474    2.984898   -0.609685
 C   -2.613838    2.120359   -0.504164
 O   -2.605010    0.908833   -0.344073
 H   -0.564728    0.610806   -1.435800
 H    3.460568    1.293200   -0.160772
 H    0.489412    4.313399    0.415507
 H    2.975138   -0.752859    0.393785
 H    3.587554   -2.716301   -1.422021
 H    3.262739   -3.030428    1.604802
 H    4.326823   -3.966447    0.543695
 H    2.209538   -4.652601   -0.437295
 H    1.341819   -2.769707   -2.316720
 H    0.761758   -2.333276    0.745351
 H    0.630542   -4.052474    1.148449
 H   -0.286185   -3.700040   -1.388769
 H   -1.314246   -4.108028   -0.013327
 H   -1.010791   -1.346531   -0.038873
 H   -3.437507   -0.736412    0.227917
 H   -4.884582   -2.991511    1.489514
 H   -0.958999   -1.662571   -2.523448
 H   -2.369837   -2.735135   -2.408579
 H   -2.507822   -1.030391   -1.972474
 H   -5.869928   -2.343418   -0.714799
 H   -6.975147   -2.093859    0.637027
 H   -5.320305    0.078117   -0.730477
 H   -7.059878   -0.163205   -0.885016
 H   -6.557220    1.627957    0.764276
 H   -7.353829    0.259300    1.537457
 H   -5.434623    1.017750    2.902677
 H   -4.348469    0.791910    1.532609
 H   -5.968782   -1.377605    2.940195
 H   -4.223145   -1.152656    3.058246
 H    3.956603   -0.892780    2.448615
 H    5.644377    0.879157    2.602516
 H    7.635707    0.826031    1.142037
 H    7.918705   -1.013371   -0.476495
 H    6.213281   -2.774757   -0.654493
 H    4.012339    3.356079    0.609462
 H    3.776093    5.400279    1.640468
 H    2.023298    5.327094    1.478706
 H    2.266293    5.644616   -1.013821
 H    2.973268    6.987474   -0.107969
 H    4.015346    5.751606   -0.813956
 H   -1.206119    4.854017   -1.333762
 H   -1.828622    4.795230    0.334331
 H   -3.898165    5.165980   -0.821401
 H   -3.344530    4.289712   -2.252988
 H   -4.609904    2.514277   -1.233924
 H   -4.269151    3.104744    0.393614
