87 
2vj6_ligand_dft.xyz
 C   -1.596524    1.553399   -1.148115
 C   -0.635339    0.637859   -1.567121
 C    0.684313    0.832811   -1.173485
 C    1.066827    1.944332   -0.431650
 C    0.107508    2.898291   -0.047968
 C   -1.234937    2.673534   -0.401586
 C    1.632888   -0.263735   -1.524777
 N    2.599506   -0.512270   -0.616125
 O    1.463505   -0.972282   -2.524215
 C    3.678911   -1.474197   -0.792926
 C    4.676781   -1.307686    0.375887
 C    3.181672   -2.937654   -0.872805
 O    2.686478   -3.294669   -2.140640
 C    4.974189    0.142786    0.678317
 C    2.125645   -3.239881    0.238215
 N    0.942553   -3.918731   -0.376107
 C   -0.290592   -3.077620   -0.518287
 C   -0.807473   -2.926920    0.921834
 N   -1.597067   -1.877037    1.158409
 O   -0.446851   -3.763146    1.751417
 C   -2.166814   -1.638845    2.489632
 C   -1.294405   -3.770620   -1.430220
 C   -3.572654   -2.241636    2.621855
 C   -4.615089   -1.474000    1.804140
 C   -4.623541    0.010656    2.184648
 C   -3.234292    0.635528    2.026255
 C   -2.170193   -0.138753    2.810090
 C    4.395486    0.763783    1.788300
 C    4.579279    2.126551    2.019458
 C    5.348915    2.881494    1.140675
 C    5.938529    2.268283    0.035451
 C    5.750116    0.910481   -0.194624
 N    0.493222    3.983318    0.701485
 C   -0.340346    5.153399    0.923192
 C   -0.586490    6.002843   -0.324273
 N   -2.951791    1.343570   -1.486090
 C   -3.921749    2.435402   -1.595494
 C   -5.122994    1.762648   -2.271405
 C   -5.026213    0.311719   -1.794911
 C   -3.552944    0.113384   -1.509345
 O   -3.000991   -0.958043   -1.279406
 H   -0.895133   -0.208412   -2.186013
 H    2.109776    2.111759   -0.169273
 H   -1.997987    3.373844   -0.085468
 H    2.686699    0.130828    0.159802
 H    4.190533   -1.262870   -1.739691
 H    4.269593   -1.787792    1.275234
 H    5.591798   -1.848862    0.115049
 H    4.050577   -3.580561   -0.701842
 H    2.265219   -2.489049   -2.525980
 H    1.771155   -2.327790    0.719930
 H    2.522043   -3.899505    1.009594
 H    1.258383   -4.226633   -1.312254
 H    0.659671   -4.698870    0.229422
 H    0.013625   -2.123325   -0.948024
 H   -1.932613   -1.336326    0.361138
 H   -1.496513   -2.154676    3.180938
 H   -0.871439   -3.921120   -2.428448
 H   -1.602227   -4.736346   -1.015899
 H   -2.177278   -3.134611   -1.529367
 H   -3.540938   -3.296989    2.331166
 H   -3.849183   -2.212064    3.683966
 H   -4.391785   -1.583108    0.734384
 H   -5.605206   -1.913121    1.965445
 H   -5.354462    0.559190    1.577583
 H   -4.949135    0.114112    3.228688
 H   -3.241902    1.680762    2.356335
 H   -2.961188    0.654406    0.965503
 H   -2.370196   -0.033978    3.883806
 H   -1.175423    0.282619    2.625431
 H    3.804115    0.174915    2.486825
 H    4.132124    2.589854    2.893711
 H    5.504904    3.940411    1.321535
 H    6.550237    2.851138   -0.645900
 H    6.210449    0.441611   -1.060918
 H    1.488260    4.149767    0.728556
 H    0.155426    5.751487    1.692833
 H   -1.289413    4.828826    1.365097
 H   -1.074193    5.422549   -1.114100
 H   -1.226234    6.857551   -0.083330
 H    0.357343    6.386083   -0.724522
 H   -3.498611    3.257150   -2.178200
 H   -4.182701    2.812226   -0.597361
 H   -6.064955    2.244498   -2.005403
 H   -5.009129    1.812564   -3.357928
 H   -5.381923   -0.431520   -2.510765
 H   -5.565061    0.146723   -0.853285
