87 
2vj6_ligand_ani.xyz
 C   -0.724004    2.373036   -0.710954
 C   -0.157903    1.170751   -1.134919
 C    1.179492    0.911878   -0.855612
 C    1.949539    1.840140   -0.164425
 C    1.393140    3.056915    0.256318
 C    0.049741    3.317335   -0.030272
 C    1.740055   -0.394986   -1.332602
 N    2.602792   -0.995144   -0.489257
 O    1.361546   -0.909384   -2.391948
 C    3.274035   -2.268050   -0.730932
 C    4.230354   -2.558065    0.435951
 C    2.302072   -3.461513   -0.950738
 O    1.851783   -3.552246   -2.291138
 C    5.110696   -1.390234    0.821994
 C    1.097878   -3.469324    0.039198
 N   -0.171925   -3.696561   -0.697619
 C   -1.153635   -2.568943   -0.744860
 C   -2.287914   -2.985458    0.214555
 N   -3.156541   -2.025219    0.597843
 O   -2.357541   -4.156260    0.573430
 C   -4.167515   -2.263782    1.618373
 C   -1.674665   -2.316861   -2.156967
 C   -5.583786   -2.025202    1.074228
 C   -5.882344   -0.543087    0.815807
 C   -5.616240    0.307140    2.063617
 C   -4.184475    0.100310    2.569840
 C   -3.912611   -1.382552    2.850633
 C    4.985076   -0.779496    2.072853
 C    5.761342    0.327751    2.409392
 C    6.680691    0.836063    1.496901
 C    6.820126    0.231907    0.250524
 C    6.039194   -0.870451   -0.084030
 N    2.188539    3.926611    0.992157
 C    1.831275    5.312178    1.217695
 C    1.858027    6.208976   -0.021351
 N   -2.075704    2.665418   -0.999039
 C   -2.570677    4.029213   -1.167982
 C   -3.888075    3.825248   -1.919316
 C   -4.372322    2.470176   -1.402704
 C   -3.089427    1.737825   -1.046074
 O   -2.982555    0.546898   -0.810516
 H   -0.747187    0.441395   -1.681984
 H    3.003512    1.653650    0.033970
 H   -0.403640    4.257755    0.268953
 H    2.863363   -0.493377    0.348895
 H    3.840235   -2.179062   -1.667472
 H    3.643023   -2.871209    1.310537
 H    4.854708   -3.415946    0.155796
 H    2.895617   -4.373058   -0.792616
 H    1.695249   -2.632125   -2.595688
 H    1.027686   -2.531771    0.590333
 H    1.238030   -4.256414    0.786853
 H    0.149717   -3.947628   -1.651454
 H   -0.725149   -4.463255   -0.259681
 H   -0.668790   -1.657535   -0.372105
 H   -3.081734   -1.096486    0.196591
 H   -4.063749   -3.316202    1.897766
 H   -0.830046   -2.125620   -2.826467
 H   -2.234731   -3.178966   -2.539082
 H   -2.326539   -1.439680   -2.171717
 H   -5.718908   -2.614442    0.160166
 H   -6.300097   -2.411772    1.814402
 H   -5.258645   -0.177982   -0.011687
 H   -6.924137   -0.430621    0.494303
 H   -5.797031    1.368363    1.847743
 H   -6.324230    0.023493    2.856003
 H   -4.011047    0.685705    3.480295
 H   -3.475348    0.474049    1.817846
 H   -4.575036   -1.723007    3.660289
 H   -2.883094   -1.534861    3.193273
 H    4.263806   -1.170501    2.789032
 H    5.644684    0.792643    3.385485
 H    7.289271    1.698434    1.757699
 H    7.538895    0.622836   -0.465907
 H    6.150515   -1.334119   -1.063492
 H    3.177051    3.748389    0.887289
 H    2.523419    5.700494    1.973777
 H    0.837566    5.334777    1.679767
 H    1.187245    5.828904   -0.799393
 H    1.538633    7.224404    0.235764
 H    2.866209    6.267541   -0.446623
 H   -1.848848    4.627847   -1.728189
 H   -2.741912    4.507707   -0.193387
 H   -4.594551    4.637141   -1.738091
 H   -3.690633    3.774456   -2.993569
 H   -4.954499    1.900623   -2.128806
 H   -4.967701    2.574225   -0.487494
