77 
2vj9_ligand_xtb.xyz
 C   -3.006885   -1.757395    0.553280
 C   -1.609152   -1.830257    0.493874
 C   -0.871703   -0.680576    0.253848
 C   -1.496244    0.545602    0.062139
 C   -2.878729    0.644956    0.183004
 C   -3.622964   -0.506083    0.421104
 C    0.597546   -0.653981    0.194976
 N    1.247098   -1.433692    1.076895
 O    1.187711    0.130093   -0.561719
 C    2.674223   -1.730690    1.109969
 C    3.191434   -2.133043   -0.282416
 C    3.535788   -0.625502    1.803764
 O    2.847764   -0.067432    2.904089
 C    2.489519   -3.394413   -0.716883
 C    3.983942    0.574378    0.950587
 C    2.931833   -4.631937   -0.266015
 C    2.257231   -5.788491   -0.613598
 C    1.126203   -5.718755   -1.409990
 C    0.680133   -4.489760   -1.864562
 C    1.359026   -3.333205   -1.520713
 N   -3.715102   -2.897051    0.812748
 C   -5.139070   -3.040629    0.605471
 C   -5.527237   -3.076824   -0.872945
 N   -3.501960    1.886509    0.056263
 C   -2.894580    3.103437    0.211419
 C   -3.960555    4.172724    0.081807
 C   -5.125436    3.456443   -0.590000
 C   -4.937896    2.006980   -0.140410
 O   -1.720883    3.298776    0.436193
 N    2.862419    1.504801    0.777704
 C    3.139252    2.833628    0.173495
 C    1.943550    3.740385    0.458364
 C    2.142524    5.106084   -0.195275
 C    2.344666    4.947634   -1.697686
 C    3.547347    4.053354   -1.976234
 C    3.357696    2.682004   -1.328746
 H   -1.124724   -2.793130    0.583453
 H   -0.901392    1.414582   -0.150176
 H   -4.692732   -0.440418    0.511153
 H    0.659299   -2.016871    1.651980
 H    2.761928   -2.611554    1.757280
 H    4.267304   -2.302342   -0.220049
 H    2.991502   -1.339663   -1.001253
 H    4.455739   -1.129079    2.135619
 H    2.732387   -0.723098    3.598510
 H    4.789088    1.083203    1.487420
 H    4.354524    0.244987   -0.018480
 H    3.816963   -4.691012    0.351793
 H    2.615447   -6.744836   -0.264470
 H    0.599956   -6.620999   -1.681380
 H   -0.195361   -4.428914   -2.493488
 H    1.010831   -2.378932   -1.889047
 H   -3.189371   -3.751460    0.705173
 H   -5.443489   -3.971052    1.089608
 H   -5.655462   -2.222611    1.112789
 H   -5.206868   -2.166399   -1.374518
 H   -5.058156   -3.924058   -1.368016
 H   -6.604400   -3.171507   -0.973941
 H   -4.218494    4.511689    1.087767
 H   -3.584460    5.028986   -0.474143
 H   -6.095127    3.852362   -0.298523
 H   -5.034240    3.527268   -1.674233
 H   -5.279577    1.291830   -0.891211
 H   -5.466859    1.817026    0.801540
 H    2.141608    0.988640    0.145247
 H    2.433855    1.623229    1.703429
 H    4.038045    3.250688    0.642790
 H    1.031908    3.289574    0.062617
 H    1.816827    3.866067    1.535880
 H    1.268491    5.725487    0.002537
 H    3.012719    5.600699    0.241339
 H    2.497587    5.924485   -2.156053
 H    1.450000    4.505279   -2.138945
 H    4.450037    4.522195   -1.579117
 H    3.681690    3.929144   -3.050775
 H    2.484704    2.193727   -1.765839
 H    4.235571    2.064899   -1.527808
