90 
2vkm_ligand_dft.xyz
 C    6.021512   -1.864183    0.611955
 C    7.370222   -1.527716    0.552977
 C    8.114386   -1.826078   -0.585573
 C    7.502631   -2.457206   -1.664287
 C    6.151223   -2.785691   -1.605633
 C    5.398364   -2.496089   -0.468078
 C    3.923844   -2.845443   -0.418704
 C    3.551047   -3.723818    0.777411
 N    3.148794   -1.598916   -0.440663
 C    1.914981   -1.514244   -0.982483
 O    1.269222   -2.496026   -1.338943
 C    1.331028   -0.130391   -1.105038
 C    2.086244    1.034622   -1.031755
 C    1.461563    2.282088   -1.043298
 C    0.083625    2.363227   -1.186947
 C   -0.669986    1.197050   -1.339518
 C   -0.048751   -0.045240   -1.277856
 N    2.272586    3.450128   -0.856246
 C    1.829843    4.664644   -1.554572
 S    2.603591    3.692210    0.803517
 O    3.062760    2.410878    1.320803
 O    1.476146    4.358331    1.443374
 C    3.994406    4.804534    0.754658
 C   -2.142217    1.369146   -1.469197
 O   -2.679142    2.449914   -1.150474
 N   -2.869274    0.325783   -1.897247
 C   -4.311256    0.340361   -2.158373
 C   -4.751549   -1.096862   -2.524077
 C   -4.818455   -2.032025   -1.337403
 C   -6.033488   -2.236273   -0.676261
 C   -6.094334   -2.995260    0.489370
 C   -4.936389   -3.566561    1.008932
 C   -3.725603   -3.401254    0.340875
 C   -3.670497   -2.644691   -0.825625
 C   -5.178037    0.926240   -1.008813
 O   -5.382257    2.314912   -1.116601
 C   -4.686232    0.545201    0.415985
 N   -4.120691    1.745954    1.102069
 C   -3.523429    1.478841    2.459846
 C   -2.221453    0.733629    2.334132
 C   -2.214968   -0.658418    2.319335
 C   -1.013301   -1.357061    2.160366
 C    0.183765   -0.648355    2.036037
 C    0.169683    0.743934    2.069922
 C   -1.022374    1.442876    2.206537
 O   -1.116047   -2.702816    2.150833
 C    0.041756   -3.458887    1.834305
 H    5.456830   -1.638890    1.514314
 H    7.842528   -1.041304    1.400989
 H    9.168818   -1.571841   -0.629889
 H    8.076842   -2.695093   -2.554437
 H    5.677437   -3.274872   -2.452864
 H    3.654611   -3.384571   -1.331988
 H    2.507729   -4.036165    0.692407
 H    3.687259   -3.190014    1.723766
 H    4.180264   -4.618364    0.795198
 H    3.607805   -0.767819   -0.099131
 H    3.166937    1.014703   -0.953850
 H   -0.430759    3.316770   -1.172135
 H   -0.593095   -0.983945   -1.314144
 H    0.959229    5.139972   -1.087974
 H    1.590902    4.386888   -2.582385
 H    2.651398    5.382947   -1.588744
 H    3.677527    5.796551    0.432915
 H    4.367046    4.853360    1.779986
 H    4.755208    4.388557    0.093553
 H   -2.364704   -0.481530   -2.232681
 H   -4.500584    0.984870   -3.025717
 H   -5.735417   -1.023329   -2.997450
 H   -4.072916   -1.486236   -3.293183
 H   -6.945275   -1.804115   -1.082576
 H   -7.048649   -3.147809    0.984098
 H   -4.978762   -4.157233    1.918592
 H   -2.820771   -3.847238    0.736383
 H   -2.718390   -2.550120   -1.343283
 H   -6.169149    0.484135   -1.131507
 H   -4.523768    2.699292   -1.374709
 H   -5.509977    0.184248    1.034583
 H   -3.908996   -0.217693    0.400469
 H   -3.397041    2.154210    0.479853
 H   -4.861856    2.451971    1.142070
 H   -4.269957    0.922309    3.031601
 H   -3.378624    2.455330    2.927567
 H   -3.130141   -1.232983    2.433578
 H    1.128247   -1.165963    1.909785
 H    1.107046    1.284205    1.984809
 H   -1.007289    2.529531    2.226955
 H    0.417895   -3.197747    0.838121
 H   -0.273105   -4.502747    1.843589
 H    0.828055   -3.317652    2.584954
