90 
2vkm_ligand_xtb.xyz
 C    5.727321   -1.045085   -0.160838
 C    6.944025   -0.898135   -0.802836
 C    7.475570   -1.944980   -1.537024
 C    6.782640   -3.139382   -1.630002
 C    5.562945   -3.285445   -0.991925
 C    5.026498   -2.242589   -0.250208
 C    3.703645   -2.413067    0.465919
 C    3.921867   -2.475768    1.978035
 N    2.818182   -1.312971    0.130095
 C    1.707296   -1.428763   -0.615968
 O    1.186652   -2.486904   -0.924231
 C    1.093218   -0.100631   -0.944646
 C    1.880343    1.032868   -1.076693
 C    1.296366    2.296949   -1.100925
 C   -0.085803    2.403118   -1.175094
 C   -0.870901    1.251737   -1.208130
 C   -0.287420    0.000226   -1.040216
 N    2.170861    3.384200   -0.959433
 C    1.683834    4.707508   -1.294012
 S    2.863063    3.368438    0.612788
 O    3.234095    2.019569    0.931692
 O    1.957091    4.020020    1.509814
 C    4.359196    4.345860    0.398203
 C   -2.333465    1.421081   -1.310981
 O   -2.900430    2.440841   -0.881461
 N   -3.003950    0.405062   -1.857716
 C   -4.427013    0.308913   -2.143225
 C   -4.723133   -1.149048   -2.549118
 C   -4.239794   -2.147605   -1.529873
 C   -5.056417   -2.549450   -0.479559
 C   -4.590243   -3.435375    0.476116
 C   -3.299242   -3.930305    0.398374
 C   -2.483239   -3.555148   -0.654571
 C   -2.956002   -2.677206   -1.615167
 C   -5.344244    0.819646   -1.000451
 O   -5.593515    2.193641   -1.114873
 C   -4.828264    0.474945    0.428775
 N   -4.411939    1.709932    1.122056
 C   -3.814928    1.489551    2.464476
 C   -2.482611    0.797586    2.341409
 C   -2.414824   -0.585007    2.370255
 C   -1.187801   -1.243890    2.253725
 C   -0.025809   -0.485679    2.121640
 C   -0.099873    0.896140    2.086555
 C   -1.318583    1.543187    2.182611
 O   -1.248896   -2.589157    2.289622
 C   -0.058322   -3.339239    2.144760
 H    5.328272   -0.220598    0.414766
 H    7.482343    0.035176   -0.725811
 H    8.426842   -1.829677   -2.033867
 H    7.191242   -3.959163   -2.201065
 H    5.023088   -4.217888   -1.069036
 H    3.210917   -3.326870    0.118433
 H    2.986190   -2.672383    2.495375
 H    4.333210   -1.535502    2.338204
 H    4.622342   -3.272124    2.213554
 H    3.123193   -0.392054    0.413245
 H    2.953856    0.963493   -1.124554
 H   -0.578242    3.361632   -1.210157
 H   -0.872704   -0.900523   -0.928306
 H    1.035725    5.111064   -0.511116
 H    1.145464    4.662750   -2.238571
 H    2.543071    5.363419   -1.416985
 H    4.111925    5.396491    0.466225
 H    5.036298    4.066626    1.196499
 H    4.782932    4.090058   -0.563842
 H   -2.458597   -0.378203   -2.190297
 H   -4.662321    0.953789   -3.003591
 H   -5.796286   -1.256432   -2.705949
 H   -4.229224   -1.338982   -3.504186
 H   -6.071088   -2.182371   -0.422897
 H   -5.240862   -3.747692    1.279080
 H   -2.939790   -4.617666    1.146666
 H   -1.480690   -3.944515   -0.739882
 H   -2.323530   -2.440993   -2.461590
 H   -6.320780    0.346570   -1.142033
 H   -4.748836    2.647058   -1.303114
 H   -5.621091    0.002401    1.010048
 H   -3.977268   -0.205376    0.382319
 H   -3.706003    2.180413    0.478564
 H   -5.225819    2.334867    1.162991
 H   -4.506388    0.890842    3.061524
 H   -3.685561    2.463854    2.938913
 H   -3.296585   -1.191212    2.511544
 H    0.937479   -0.962077    2.054495
 H    0.805491    1.475735    1.987474
 H   -1.355247    2.620967    2.159189
 H    0.407380   -3.164357    1.171547
 H   -0.361228   -4.381807    2.217511
 H    0.648810   -3.116491    2.948213
