50 
2vle_ligand_dft.xyz
 O    2.684451    2.977877   -1.363920
 C    4.051324    2.684442   -1.195103
 C    4.239861    1.543353   -0.209851
 O    3.493434    0.446706   -0.737207
 C    5.691203    1.107937   -0.017518
 O    6.405350    2.178696    0.549887
 C    5.734363   -0.119572    0.886134
 O    7.078165   -0.540515    0.960753
 C    4.820322   -1.217704    0.360809
 O    4.828330   -2.255506    1.314323
 C    3.426701   -0.632805    0.154977
 O    2.625585   -1.632468   -0.397423
 C    1.271393   -1.462033   -0.387130
 C    0.520076   -2.617158   -0.665508
 C   -0.854514   -2.552567   -0.661955
 C   -1.520183   -1.349623   -0.378838
 C   -0.747036   -0.221860   -0.115897
 C    0.649239   -0.250968   -0.124340
 O   -1.319452    0.981828    0.150173
 C   -2.664208    1.063511    0.197292
 C   -3.530857    0.046897    0.002505
 C   -2.993698   -1.280697   -0.359413
 O   -3.691159   -2.250535   -0.623097
 C   -4.985010    0.275122    0.155850
 C   -5.474903    1.077133    1.194226
 C   -6.830290    1.335478    1.333580
 C   -7.734138    0.776559    0.431206
 O   -9.052881    1.052197    0.611227
 C   -7.266941   -0.039659   -0.599338
 C   -5.907236   -0.287502   -0.732442
 H    2.273575    2.171641   -1.702774
 H    4.531981    2.419840   -2.149646
 H    4.535656    3.581299   -0.804855
 H    3.815983    1.842501    0.761876
 H    6.107681    0.827966   -0.998954
 H    7.269934    1.826954    0.802556
 H    5.370209    0.179753    1.883148
 H    7.097382   -1.327460    1.521096
 H    5.189110   -1.562330   -0.616311
 H    4.291817   -2.978125    0.964753
 H    3.003441   -0.306426    1.121026
 H    1.045066   -3.542971   -0.872985
 H   -1.460832   -3.427913   -0.869738
 H    1.197506    0.668481    0.039049
 H   -2.973800    2.079792    0.411894
 H   -4.783549    1.488756    1.924997
 H   -7.205509    1.952368    2.143110
 H   -9.567061    0.590255   -0.061656
 H   -7.967733   -0.485455   -1.302223
 H   -5.558253   -0.934873   -1.527563
