50 
2vle_ligand_xtb.xyz
 O    2.671200    3.099909   -1.190138
 C    4.004063    2.674821   -1.187322
 C    4.230442    1.532661   -0.191088
 O    3.386559    0.466793   -0.598172
 C    5.696100    1.086590   -0.156853
 O    6.477058    2.147902    0.314956
 C    5.836993   -0.145572    0.747435
 O    7.168984   -0.586024    0.675111
 C    4.856914   -1.232956    0.300482
 O    4.944141   -2.299863    1.209824
 C    3.438749   -0.640667    0.257152
 O    2.603762   -1.643069   -0.229395
 C    1.250281   -1.442862   -0.246897
 C    0.492993   -2.528343   -0.712696
 C   -0.873443   -2.443090   -0.758956
 C   -1.538392   -1.284350   -0.340994
 C   -0.773420   -0.210196    0.118485
 C    0.620521   -0.284633    0.163880
 O   -1.341150    0.943965    0.536208
 C   -2.679639    1.033654    0.515611
 C   -3.537916    0.075287    0.106344
 C   -3.007330   -1.206678   -0.388411
 O   -3.696411   -2.128585   -0.789080
 C   -4.989278    0.294052    0.164489
 C   -5.565966    0.955352    1.249091
 C   -6.927610    1.157813    1.314415
 C   -7.749869    0.699642    0.288346
 O   -9.087441    0.918238    0.387697
 C   -7.184367    0.036712   -0.794252
 C   -5.819563   -0.166123   -0.853612
 H    2.120780    2.330893   -1.383671
 H    4.309875    2.332556   -2.185099
 H    4.616044    3.527407   -0.891904
 H    3.942076    1.867835    0.817606
 H    6.008255    0.798557   -1.173989
 H    7.361882    1.797055    0.481805
 H    5.590855    0.137176    1.784644
 H    7.216737   -1.440524    1.120858
 H    5.116220   -1.563437   -0.717077
 H    4.266993   -2.947972    0.981776
 H    3.139722   -0.346374    1.285254
 H    1.012946   -3.416907   -1.031496
 H   -1.476421   -3.264488   -1.114587
 H    1.162168    0.580038    0.508685
 H   -3.010826    2.002620    0.863381
 H   -4.941494    1.293769    2.062442
 H   -7.378420    1.662266    2.154149
 H   -9.538634    0.537748   -0.375758
 H   -7.818454   -0.323811   -1.593671
 H   -5.395516   -0.685202   -1.697347
