30 
2vmc_ligand_ani.xyz
 C   -0.116133   -1.154801   -0.448078
 O   -0.574132   -2.249985    0.244001
 C   -0.649592    0.195447    0.101370
 C    0.140243    1.374152   -0.490296
 C    1.628392    1.184942   -0.251608
 C    2.049883   -0.159944   -0.848360
 C    3.500679   -0.506747   -0.534997
 C   -3.147502   -0.268755    0.085858
 C   -4.466873    0.455434   -0.069575
 N   -2.051463    0.475510   -0.212071
 O   -0.317450    2.595030    0.049589
 O    1.819625    1.256088    1.146849
 O    1.284907   -1.224139   -0.308708
 O    3.660598   -0.737857    0.858490
 O   -3.110304   -1.438075    0.466948
 H   -0.379910   -1.219677   -1.528704
 H   -1.552276   -2.170101    0.323000
 H   -0.492432    0.173974    1.189473
 H   -0.045805    1.418469   -1.570632
 H    2.186292    1.993310   -0.754547
 H    1.910511   -0.116956   -1.941935
 H    3.806494   -1.389840   -1.110465
 H    4.159473    0.326798   -0.795096
 H   -5.238812   -0.276095   -0.313507
 H   -4.737472    0.924206    0.883165
 H   -4.441482    1.231926   -0.840387
 H   -2.211338    1.463796   -0.370399
 H    0.063604    2.645522    0.941678
 H    2.612070    0.731339    1.365865
 H    2.980797   -1.392108    1.083740
