27 
2vmd_ligand_ani.xyz
 C    0.360536    1.151123   -0.216147
 C    1.473991    0.171453    0.124305
 C    1.245499   -1.166233   -0.556179
 C   -0.135409   -1.700228   -0.187029
 C   -1.188243   -0.629367   -0.468616
 C   -2.577903   -1.016969    0.009766
 C   -0.217294    3.404695    0.128383
 O    0.623718    2.322281    0.477108
 O    2.739995    0.640780   -0.298824
 O    2.196203   -2.116245   -0.115412
 O   -0.169210   -2.022361    1.183708
 O   -0.878661    0.605871    0.184716
 O   -3.511285   -0.012498   -0.314770
 H    0.335698    1.350769   -1.307104
 H    1.450104    0.010648    1.211247
 H    1.309895   -1.032102   -1.648716
 H   -0.356298   -2.587943   -0.805331
 H   -1.230545   -0.443335   -1.556817
 H   -2.901177   -1.932743   -0.497429
 H   -2.541652   -1.218019    1.089568
 H   -0.206522    3.583280   -0.956632
 H   -1.252523    3.234854    0.446595
 H    0.176567    4.286409    0.638450
 H    2.885263    1.481713    0.154082
 H    3.053575   -1.664757   -0.115273
 H    0.653401   -2.504838    1.357752
 H   -3.148928    0.806602    0.050496
