26 
2vmf_ligand_ani.xyz
 C   -0.667712    1.049884    0.222553
 N    0.614182    0.640280    0.403143
 C   -1.311035   -1.291008   -0.264471
 C   -0.103216   -1.712097    0.568916
 C    1.086513   -0.745919    0.421537
 C    1.973310   -1.053801   -0.784492
 C    0.515930    2.822167    0.252612
 C    1.388076    1.783126    0.434202
 N   -0.770975    2.351182    0.104867
 O   -0.950079   -1.236660   -1.626314
 O   -2.775632    0.513575   -0.763239
 O   -0.584906   -1.752475    1.902822
 C   -1.811928    0.084110    0.182532
 O    3.168277   -0.305966   -0.624366
 H   -2.116985   -2.020363   -0.101273
 H    0.219620   -2.713243    0.242024
 H    1.722089   -0.845624    1.310619
 H    1.445313   -0.785173   -1.706532
 H    2.189768   -2.133603   -0.800997
 H    0.730465    3.882329    0.215978
 H    2.456244    1.718881    0.560963
 H   -1.605474   -0.646627   -2.032138
 H   -2.738130    1.483657   -0.762634
 H    0.146681   -1.970900    2.494948
 H   -2.256519    0.001510    1.184955
 H    3.623578   -0.277639   -1.473545
