26 
2vmf_ligand_xtb.xyz
 C   -0.724014    1.017600    0.198542
 N    0.575679    0.695832    0.394339
 C   -1.224008   -1.372644   -0.216121
 C   -0.004194   -1.659061    0.671289
 C    1.124890   -0.632940    0.450981
 C    1.950855   -0.921375   -0.812266
 C    0.343485    2.857328    0.212000
 C    1.269347    1.875098    0.405193
 N   -0.895862    2.311548    0.085372
 O   -0.851750   -1.418421   -1.567367
 O   -2.758794    0.343201   -0.855559
 O   -0.466347   -1.643140    1.999881
 C   -1.813781    0.003313    0.137797
 O    3.192653   -0.266644   -0.671600
 H   -1.984155   -2.140753   -0.006504
 H    0.381104   -2.655457    0.407769
 H    1.820685   -0.682286    1.301674
 H    1.405132   -0.566711   -1.692856
 H    2.096592   -2.005673   -0.908426
 H    0.481298    3.918190    0.158175
 H    2.330789    1.898877    0.533785
 H   -1.555858   -0.951665   -2.043824
 H   -2.828262    1.307104   -0.852519
 H    0.254810   -1.886838    2.591832
 H   -2.305647   -0.068004    1.121509
 H    3.683207   -0.342318   -1.495926
