81 
2vnm_ligand_xtb.xyz
 C    7.088091    3.361594   -0.406735
 C    5.978079    2.409396   -0.821070
 C   -2.480957    4.375128    1.221577
 C   -2.655385    2.920085    0.839257
 S   -1.039305    2.131299    0.913269
 O   -0.492239    2.181419    2.235231
 O   -1.162538    0.782717    0.372563
 N   -0.137010    3.081038   -0.145344
 C   -0.118097    4.455296    0.337502
 C    1.077197    2.500489   -0.569480
 C    0.982881    1.345326   -1.338332
 C    2.137423    0.645289   -1.663112
 C    3.392265    1.135465   -1.337566
 C    3.500676    2.357683   -0.662827
 C    2.324319    3.000166   -0.238478
 C    1.889926   -0.729507   -2.156344
 O    0.975975   -1.021542   -2.917029
 N    2.634076   -1.665441   -1.522501
 C    2.293727   -3.074178   -1.478656
 C    3.374009   -3.831565   -0.687993
 C    3.536831   -3.318762    0.716756
 C    4.402435   -2.264325    0.990131
 C    4.512722   -1.752008    2.271775
 C    3.770173   -2.298473    3.303658
 C    2.934256   -3.373269    3.051286
 C    2.817952   -3.877273    1.767448
 C    0.856460   -3.287651   -0.930245
 O   -0.095772   -3.174292   -1.958847
 C    0.475813   -2.295520    0.221870
 N   -0.935540   -1.913725    0.032514
 C   -1.903638   -2.641745    0.880674
 C   -3.314370   -2.408364    0.405414
 C   -4.143809   -3.471475    0.070658
 C   -5.440486   -3.244703   -0.359464
 C   -5.924812   -1.952648   -0.472165
 C   -5.092696   -0.892516   -0.143304
 C   -1.515744    5.061786    0.260966
 C   -3.795212   -1.110412    0.298613
 C   -5.557200    0.532595   -0.249936
 F   -5.464661    1.175463    0.932947
 F   -6.812099    0.665167   -0.667375
 N    4.703883    2.890817   -0.334474
 F   -4.783854    1.243948   -1.098578
 H    7.124212    3.457532    0.675891
 H    8.047375    2.985848   -0.750621
 H    6.930614    4.345441   -0.842679
 H    6.172979    1.414747   -0.400237
 H    5.956665    2.319106   -1.915405
 H   -3.450087    4.877257    1.204017
 H   -2.088876    4.426051    2.239725
 H   -3.307685    2.388614    1.527781
 H   -2.997774    2.794798   -0.184074
 H    0.559607    5.020639   -0.305584
 H    0.249149    4.493049    1.371587
 H    0.021196    0.970231   -1.640677
 H    4.278283    0.597498   -1.632231
 H    2.421058    3.892427    0.359704
 H    3.327175   -1.352995   -0.857802
 H    2.280718   -3.466467   -2.505214
 H    3.113547   -4.890001   -0.674593
 H    4.316154   -3.725127   -1.228391
 H    5.032996   -1.865166    0.206417
 H    5.189574   -0.934218    2.466481
 H    3.858850   -1.903800    4.303501
 H    2.378702   -3.825825    3.858724
 H    2.181617   -4.731230    1.582272
 H    0.772599   -4.316297   -0.563851
 H    0.212524   -2.459684   -2.581082
 H    1.086991   -1.394162    0.175960
 H    0.628180   -2.758245    1.195457
 H   -1.060438   -0.882030    0.140826
 H   -1.093759   -2.198940   -0.977410
 H   -1.672139   -3.708017    0.834052
 H   -1.790669   -2.296511    1.912395
 H   -3.778353   -4.483972    0.149500
 H   -6.076554   -4.077582   -0.612518
 H   -6.932282   -1.767998   -0.809768
 H   -1.445210    6.121811    0.507900
 H   -1.886930    4.974831   -0.761927
 H   -3.167769   -0.268061    0.550522
 H    4.703920    3.813819    0.068101
