81 
2vnm_ligand_ani.xyz
 C    7.351126    3.440625    0.800579
 C    6.327320    2.535923    0.130821
 C   -2.285015    4.606847    0.365679
 C   -2.416770    3.111732    0.091389
 S   -0.916079    2.255906    0.512753
 O   -0.624571    2.476887    1.920320
 O   -1.027689    0.889120    0.011540
 N    0.203460    3.137713   -0.424734
 C    0.206029    4.573097   -0.092094
 C    1.484761    2.505619   -0.563562
 C    1.568775    1.332293   -1.311406
 C    2.787768    0.667902   -1.415748
 C    3.938787    1.185491   -0.831376
 C    3.874409    2.402620   -0.139282
 C    2.634786    3.045363    0.004579
 C    2.746602   -0.674338   -2.087791
 O    2.340098   -0.827493   -3.239252
 N    3.038598   -1.726827   -1.279817
 C    2.434498   -3.033317   -1.526655
 C    3.115114   -4.095650   -0.651183
 C    2.960171   -3.922028    0.842407
 C    3.891356   -3.188432    1.582783
 C    3.743626   -3.021576    2.957770
 C    2.659624   -3.591029    3.618254
 C    1.733292   -4.337875    2.896286
 C    1.888383   -4.507797    1.522696
 C    0.880358   -3.015137   -1.434774
 O    0.299006   -2.642711   -2.680344
 C    0.291368   -2.098547   -0.330391
 N   -1.120498   -1.790515   -0.639217
 C   -2.125307   -2.659726    0.023339
 C   -3.530745   -2.191979   -0.285426
 C   -4.298616   -2.826175   -1.263494
 C   -5.581568   -2.378982   -1.564060
 C   -6.116667   -1.291100   -0.883724
 C   -5.357019   -0.655885    0.092127
 C   -1.132101    5.216587   -0.434551
 C   -4.069273   -1.093655    0.388333
 C   -5.903554    0.537386    0.820021
 F   -5.675215    0.454286    2.144343
 F   -7.230073    0.677939    0.649533
 N    4.987569    2.982425    0.453879
 F   -5.330194    1.688661    0.402257
 H    7.219532    3.429028    1.887056
 H    8.369325    3.112704    0.572763
 H    7.245545    4.473945    0.450627
 H    6.446319    1.507647    0.493214
 H    6.496773    2.509888   -0.959186
 H   -3.229647    5.094493    0.102852
 H   -2.122224    4.762317    1.439954
 H   -3.212188    2.653560    0.687475
 H   -2.606118    2.899243   -0.966556
 H    0.991286    5.029739   -0.698220
 H    0.444565    4.731517    0.971231
 H    0.686286    0.917731   -1.784515
 H    4.881196    0.649517   -0.918746
 H    2.585368    3.960695    0.588982
 H    3.286494   -1.520628   -0.319663
 H    2.651504   -3.270623   -2.572676
 H    2.728264   -5.080137   -0.944829
 H    4.179767   -4.095551   -0.912840
 H    4.754991   -2.752667    1.080831
 H    4.477168   -2.440824    3.510806
 H    2.539580   -3.458959    4.690142
 H    0.888600   -4.795159    3.404338
 H    1.149830   -5.087692    0.969017
 H    0.548917   -4.048919   -1.248547
 H    0.920091   -2.047846   -3.142626
 H    0.809653   -1.137376   -0.274693
 H    0.381326   -2.566386    0.653156
 H   -1.321584   -0.803068   -0.410336
 H   -1.187917   -1.916787   -1.669124
 H   -1.989767   -3.697529   -0.306679
 H   -1.952014   -2.637193    1.106452
 H   -3.887317   -3.681526   -1.795781
 H   -6.167203   -2.883435   -2.327300
 H   -7.121807   -0.940221   -1.099760
 H   -1.061872    6.293140   -0.239015
 H   -1.313273    5.094212   -1.509484
 H   -3.495936   -0.578367    1.157669
 H    4.895328    3.983494    0.566589
