81 
2vnm_ligand_dft.xyz
 C    5.273293    5.143117   -1.245529
 C    4.497821    3.857424   -1.493264
 C   -3.869225    3.037749    1.400693
 C   -3.254466    1.657042    1.621252
 S   -1.481870    1.698869    1.449205
 O   -0.899083    2.578079    2.450579
 O   -0.990681    0.316865    1.372794
 N   -1.368127    2.371827   -0.102753
 C   -2.007021    3.705326   -0.194909
 C   -0.058549    2.218754   -0.667978
 C    0.219914    1.002423   -1.287453
 C    1.527220    0.738029   -1.672126
 C    2.525076    1.708141   -1.568527
 C    2.221247    2.973940   -1.038449
 C    0.918412    3.192128   -0.538800
 C    1.822455   -0.695824   -1.949878
 O    0.990270   -1.453565   -2.476668
 N    2.957065   -1.161821   -1.391735
 C    3.247364   -2.579382   -1.210792
 C    4.632256   -2.718462   -0.540803
 C    4.701032   -2.118433    0.845176
 C    5.010746   -0.765988    1.025405
 C    4.961501   -0.181399    2.288492
 C    4.621049   -0.949225    3.397632
 C    4.351212   -2.306381    3.238827
 C    4.392278   -2.884429    1.973915
 C    2.120474   -3.347242   -0.450274
 O    1.183309   -3.908973   -1.340765
 C    1.410378   -2.512558    0.661581
 N    0.073905   -2.017463    0.203228
 C   -1.075918   -2.945530    0.476131
 C   -2.285047   -2.503874   -0.304519
 C   -2.329110   -2.719898   -1.683107
 C   -3.427045   -2.299285   -2.426853
 C   -4.493763   -1.672624   -1.795195
 C   -4.454649   -1.462050   -0.417621
 C   -3.514827    3.592334    0.018842
 C   -3.352215   -1.866910    0.327179
 C   -5.620494   -0.770466    0.240027
 F   -5.500617   -0.734471    1.577242
 F   -6.780169   -1.361345   -0.055377
 N    3.165341    3.953801   -0.929319
 F   -5.713000    0.512548   -0.179144
 H    5.364981    5.344169   -0.173696
 H    6.279016    5.062217   -1.664971
 H    4.781284    5.997687   -1.722217
 H    5.026772    3.015042   -1.026024
 H    4.445096    3.650270   -2.572595
 H   -4.953294    2.933878    1.500989
 H   -3.529268    3.719613    2.187615
 H   -3.446003    1.261357    2.622247
 H   -3.597583    0.942776    0.873778
 H   -1.792213    4.069717   -1.202025
 H   -1.568333    4.408931    0.526355
 H   -0.567841    0.269810   -1.411277
 H    3.528203    1.492564   -1.921539
 H    0.696102    4.122343   -0.024819
 H    3.473107   -0.514220   -0.810499
 H    3.311064   -3.049564   -2.197777
 H    4.878265   -3.784244   -0.507706
 H    5.370325   -2.245186   -1.197581
 H    5.328640   -0.165123    0.173729
 H    5.200999    0.870565    2.407234
 H    4.585409   -0.497068    4.383320
 H    4.116304   -2.918437    4.104243
 H    4.195163   -3.948338    1.863148
 H    2.595582   -4.196394    0.048037
 H    1.085097   -3.276966   -2.077831
 H    1.998915   -1.645376    0.965625
 H    1.235814   -3.121715    1.549954
 H   -0.150158   -1.098318    0.625715
 H    0.117133   -1.861858   -0.815582
 H   -0.743350   -3.939073    0.172994
 H   -1.249806   -2.926335    1.553951
 H   -1.505008   -3.228988   -2.176121
 H   -3.455885   -2.472496   -3.497082
 H   -5.359539   -1.355790   -2.367765
 H   -3.958857    4.584982   -0.103963
 H   -3.936498    2.943639   -0.757287
 H   -3.326039   -1.694988    1.398085
 H    2.844210    4.876095   -0.678344
