80 
2vnn_ligand_xtb.xyz
 C    1.605185    4.623149    2.904682
 C    1.881875    5.141544    1.491435
 C    2.414524    4.057700    0.614729
 C    3.717949    3.811373    0.300533
 N    3.827214    2.706864   -0.506869
 C    5.043882    2.160983   -1.045289
 C    5.362646    0.796593   -0.453984
 S    4.081116   -0.442579   -0.860809
 O    4.712654   -1.587656   -1.436635
 O    3.240834   -0.640575    0.285058
 N    3.158841    0.309743   -2.073736
 C    2.814094   -0.515926   -3.210951
 C    2.169463    1.103310   -1.467258
 C    0.825806    0.815760   -1.471292
 C   -0.108076    1.586729   -0.745202
 C    0.299916    2.711745   -0.038788
 C    1.653351    3.027998   -0.022631
 C    2.582682    2.208537   -0.716278
 C   -1.457266    1.020580   -0.692479
 O   -1.750171    0.014676   -1.372357
 N   -2.329213    1.528836    0.197128
 C   -3.727631    1.163283    0.389122
 C   -4.496233    1.075953   -0.939616
 C   -5.953840    0.755264   -0.732002
 C   -6.765301    1.601418    0.015597
 C   -8.102239    1.306430    0.211910
 C   -8.650796    0.162508   -0.343362
 C   -7.857717   -0.675645   -1.106813
 C   -6.518758   -0.380022   -1.298406
 C   -3.921190   -0.092449    1.300226
 O   -2.978243   -0.089851    2.354605
 C   -3.785747   -1.476164    0.647052
 N   -2.372745   -1.731084    0.344050
 C   -1.996308   -3.112848   -0.006943
 C   -0.497590   -3.198454   -0.155779
 C    0.093551   -3.483670   -1.379195
 C    1.471846   -3.573456   -1.487398
 C    2.282037   -3.366298   -0.383279
 C    1.691551   -3.057519    0.832373
 C    0.311356   -2.980356    0.952371
 C    2.508464   -2.838520    2.076987
 F    2.258426   -3.812792    2.983495
 F    3.822203   -2.838835    1.883330
 F    2.181767   -1.692655    2.697236
 H    1.188705    5.414796    3.522091
 H    0.903844    3.792222    2.879111
 H    2.525909    4.274326    3.364645
 H    2.607596    5.953977    1.541857
 H    0.959704    5.537613    1.060532
 H    4.593327    4.361316    0.588033
 H    4.952742    2.071738   -2.133164
 H    5.857232    2.856710   -0.818651
 H    6.291096    0.398928   -0.852639
 H    5.398202    0.823638    0.632634
 H    2.454720    0.126305   -4.014087
 H    3.724747   -1.022558   -3.520349
 H    2.058694   -1.270146   -2.974625
 H    0.452380   -0.039893   -2.008973
 H   -0.390519    3.348756    0.493602
 H   -2.004114    2.314409    0.737015
 H   -4.155610    1.992472    0.963537
 H   -4.036179    0.339982   -1.597442
 H   -4.407450    2.048839   -1.430398
 H   -6.355432    2.508905    0.435332
 H   -8.719095    1.975177    0.792416
 H   -9.694022   -0.066258   -0.192293
 H   -8.281765   -1.558702   -1.559659
 H   -5.916621   -1.027854   -1.921051
 H   -4.948238   -0.031264    1.685385
 H   -3.193286    0.586971    3.003105
 H   -4.390091   -1.545896   -0.255542
 H   -4.138916   -2.216366    1.370012
 H   -1.837514   -1.429499    1.168159
 H   -2.103332   -1.050585   -0.482215
 H   -2.491584   -3.383487   -0.941088
 H   -2.335557   -3.791993    0.781707
 H   -0.525833   -3.650267   -2.247842
 H    1.922692   -3.817542   -2.436584
 H    3.354947   -3.424850   -0.468014
 H   -0.118977   -2.770567    1.922008
