80 
2vnn_ligand_ani.xyz
 C    0.581263    5.140958    2.725936
 C    1.254109    5.645641    1.445936
 C    1.960476    4.559548    0.696146
 C    3.299575    4.428695    0.476341
 N    3.576839    3.279654   -0.224139
 C    4.888601    2.778044   -0.568073
 C    5.162009    1.418816    0.076431
 S    4.356201    0.009685   -0.715132
 O    5.329206   -0.622231   -1.594748
 O    3.707406   -0.764366    0.328881
 N    3.179563    0.684057   -1.748000
 C    2.805724   -0.231749   -2.832284
 C    2.123979    1.418822   -1.132800
 C    0.796137    1.015616   -1.222411
 C   -0.245893    1.769317   -0.646040
 C    0.019438    2.968169   -0.001988
 C    1.344890    3.409724    0.096633
 C    2.386777    2.627157   -0.459978
 C   -1.622794    1.206055   -0.770683
 O   -1.903536    0.408124   -1.667395
 N   -2.500563    1.564684    0.199388
 C   -3.809382    0.957081    0.424292
 C   -4.741947    1.156179   -0.782518
 C   -6.146794    0.656092   -0.525976
 C   -6.967681    1.304091    0.403135
 C   -8.251875    0.840632    0.671792
 C   -8.739120   -0.288567    0.019686
 C   -7.933175   -0.945730   -0.904402
 C   -6.648268   -0.477444   -1.170626
 C   -3.780845   -0.511192    0.940470
 O   -2.794744   -0.678377    1.959921
 C   -3.487228   -1.617116   -0.080311
 N   -2.037646   -1.847767   -0.216873
 C   -1.642732   -3.233661   -0.548326
 C   -0.139139   -3.387424   -0.541897
 C    0.575851   -3.449901   -1.738730
 C    1.962055   -3.568583   -1.736102
 C    2.655005   -3.623667   -0.531193
 C    1.945952   -3.573018    0.663201
 C    0.559552   -3.450166    0.664762
 C    2.651041   -3.707530    1.979484
 F    2.413281   -4.908951    2.540442
 F    3.982279   -3.578874    1.858183
 F    2.225844   -2.779787    2.860177
 H    0.022366    5.940104    3.222595
 H   -0.114815    4.325119    2.502435
 H    1.327694    4.753650    3.426807
 H    1.965420    6.445431    1.690507
 H    0.495728    6.106837    0.797806
 H    4.113234    5.077587    0.782044
 H    5.002617    2.728737   -1.655307
 H    5.612955    3.498778   -0.180850
 H    6.228878    1.176562    0.047996
 H    4.827608    1.419145    1.117663
 H    2.180244    0.320714   -3.536413
 H    3.717662   -0.551567   -3.335216
 H    2.265900   -1.111279   -2.461907
 H    0.535685    0.099155   -1.742021
 H   -0.787603    3.586610    0.388189
 H   -2.116039    2.089508    0.970013
 H   -4.230727    1.538163    1.254921
 H   -4.302867    0.672574   -1.657729
 H   -4.755337    2.231549   -0.998657
 H   -6.598940    2.189521    0.920222
 H   -8.873275    1.362655    1.395817
 H   -9.741561   -0.652261    0.229545
 H   -8.303613   -1.827104   -1.422319
 H   -6.031586   -0.998920   -1.901795
 H   -4.787752   -0.696594    1.347716
 H   -3.059058   -0.172380    2.738592
 H   -3.922097   -1.393662   -1.056717
 H   -3.960455   -2.539120    0.273770
 H   -1.619478   -1.569599    0.688493
 H   -1.692842   -1.213217   -0.957297
 H   -2.044687   -3.509582   -1.530755
 H   -2.090236   -3.914849    0.186982
 H    0.038542   -3.392347   -2.680905
 H    2.510254   -3.588496   -2.675559
 H    3.736736   -3.688346   -0.516470
 H    0.032209   -3.408453    1.615317
