42 
2vnt_ligand_xtb.xyz
 N   -0.385495    4.403656    0.071996
 C   -1.549592    3.677647    0.003412
 N   -1.283659    2.294331    0.002423
 C   -2.173193    1.269695    0.013410
 N   -3.460371    1.531251    0.110422
 C   -4.339932    0.530503    0.165475
 C   -3.981960   -0.791747    0.146600
Cl   -5.193715   -2.017993    0.265585
 C   -2.615290   -1.146283    0.018201
 C   -2.154627   -2.478705   -0.027820
 C   -0.821088   -2.756206   -0.176259
 C    0.081644   -1.700129   -0.300256
 C   -0.325164   -0.396997   -0.259183
 C   -1.678990   -0.081592   -0.075895
 S    1.827678   -1.973134   -0.554669
 O    2.211515   -3.226901    0.029556
 O    2.142492   -1.740247   -1.936032
 N    2.475818   -0.684169    0.318730
 C    2.875746   -0.974294    1.689993
 C    4.202954   -0.236446    1.904158
 C    4.767390   -0.108154    0.490131
 C    3.493587    0.111552   -0.335251
 C    3.072123    1.569525   -0.410931
 O    1.946149    1.984415   -0.281952
 O    4.094936    2.373070   -0.685678
 N   -2.665755    4.257823   -0.009912
 H   -0.503479    5.384975   -0.115910
 H    0.453667    3.976043   -0.285021
 H   -0.303126    2.047554    0.000930
 H   -5.374713    0.833468    0.240249
 H   -2.876058   -3.276457    0.054933
 H   -0.446869   -3.766979   -0.202534
 H    0.430894    0.361184   -0.370398
 H    2.097018   -0.634852    2.378096
 H    2.991653   -2.056836    1.793694
 H    4.016882    0.753791    2.322670
 H    4.865643   -0.780294    2.572949
 H    5.478756    0.706231    0.379671
 H    5.235281   -1.042722    0.181522
 H    3.591809   -0.229659   -1.373444
 H    3.807621    3.297290   -0.770831
 H   -3.460827    3.630133    0.015704
