18 
2vo4_ligand_ani.xyz
 C    2.681399    0.363123    0.715824
 S    3.590545   -0.308947   -0.726436
 C    0.423172    1.376834    0.230645
 C   -0.942909    1.271480    0.008791
 C   -1.524189    0.012036    0.049511
 N   -2.969838   -0.111383   -0.179999
 O   -3.458263   -1.227277   -0.126805
 O   -3.595715    0.909486   -0.409820
 C   -0.783801   -1.136106    0.300861
 C    1.198622    0.243459    0.486791
 C    0.579276   -1.011295    0.519286
 H    2.958988    1.409955    0.862903
 H    2.971505   -0.201378    1.608079
 H    4.822179   -0.158740   -0.212552
 H    0.891244    2.358306    0.202041
 H   -1.556890    2.142064   -0.190537
 H   -1.277306   -2.100560    0.324383
 H    1.172819   -1.901668    0.711389
