18 
2vo4_ligand_dft.xyz
 C    2.686684   -0.000141    0.806158
 S    3.566440    0.000152   -0.808884
 C    0.507518    1.205120    0.420898
 C   -0.857991    1.215211    0.172667
 C   -1.518677   -0.000049    0.054126
 N   -2.964200    0.000061   -0.203597
 O   -3.522138   -1.081754   -0.302671
 O   -3.521917    1.081975   -0.302776
 C   -0.858060   -1.215322    0.172392
 C    1.202164   -0.000144    0.552933
 C    0.507490   -1.205314    0.420645
 H    2.976160    0.887622    1.373611
 H    2.976195   -0.888094    1.373285
 H    4.810827    0.000056   -0.299782
 H    1.042381    2.146038    0.511354
 H   -1.411868    2.140152    0.071549
 H   -1.411894   -2.140268    0.071110
 H    1.042242   -2.146314    0.510872
