45 
2vqj_ligand_dft.xyz
 C   -6.497112    1.011056   -0.569381
 C   -7.640887    1.190674    0.199484
 C   -7.568980    1.125857    1.588691
 C   -6.342020    0.893464    2.203601
 C   -5.193705    0.730183    1.436382
 C   -5.256530    0.779980    0.038142
 C   -4.062315    0.631459   -0.800871
 C   -3.666424    1.315744   -1.924794
 N   -2.473850    0.842915   -2.402921
 C   -2.143621   -0.124713   -1.580264
 C   -0.917855   -0.988528   -1.699793
 N   -3.061114   -0.302636   -0.589134
 C   -2.992762   -1.367202    0.403222
 C   -2.074703   -2.458744   -0.133320
 N   -0.803298   -1.885446   -0.553788
 C    0.183480   -1.805868    0.403794
 O   -0.010813   -2.158560    1.559808
 C    1.525819   -1.337979   -0.024329
 S    2.558609   -0.656500    1.179314
 C    2.169501   -1.473553   -1.229137
 C    3.501488   -0.991800   -1.192789
 C    3.840412   -0.512411    0.042084
 C    5.143272    0.129130    0.420063
 C    5.158539    1.628982    0.022423
 F    5.055464    1.803773   -1.292326
 F    4.198838    2.324492    0.625472
 F    6.352984    2.156789    0.412030
 O    5.280530    0.043837    1.805358
 O    6.156714   -0.515311   -0.288997
 H   -6.557703    1.035537   -1.653433
 H   -8.594202    1.369946   -0.288792
 H   -8.464152    1.257477    2.188906
 H   -6.274257    0.852128    3.286657
 H   -4.236214    0.588506    1.928710
 H   -4.175347    2.146590   -2.394635
 H   -0.040075   -0.345442   -1.761741
 H   -0.968473   -1.569840   -2.629759
 H   -4.000553   -1.749251    0.586707
 H   -2.585176   -0.986010    1.344650
 H   -2.531312   -2.947698   -1.001499
 H   -1.885131   -3.201188    0.640660
 H    1.715773   -1.927887   -2.102258
 H    4.186922   -1.002188   -2.030410
 H    5.993619    0.630108    2.092723
 H    6.975768   -0.010219   -0.189804
