42 
2vqm_ligand_xtb.xyz
 C    6.008710    0.980023   -0.345833
 C    7.213963    0.394656   -0.679775
 C    7.243249   -0.877275   -1.229039
 C    6.056555   -1.553440   -1.454064
 C    4.846432   -0.970947   -1.124232
 C    4.806910    0.301707   -0.556324
 C    3.559167    0.957159   -0.204859
 C    3.206993    2.283568   -0.304155
 N    1.943673    2.478016    0.144446
 C    1.517438    1.299448    0.522954
 C    0.182196    1.023151    1.135245
 N    2.450678    0.334481    0.326623
 C    2.268763   -1.030117    0.744195
 C    1.252359   -1.032304    1.886416
 N    0.035384   -0.378764    1.452867
 C   -1.057401   -1.141849    1.192941
 O   -1.036948   -2.355228    1.294769
 C   -2.301841   -0.434364    0.818765
 S   -3.308118   -1.146459   -0.384617
 C   -2.891638    0.663361    1.395859
 C   -4.152717    0.947048    0.856395
 C   -4.515269    0.061214   -0.129211
 C   -5.715928   -0.003643   -0.959675
 O   -5.865782   -0.784988   -1.887833
 N   -6.675968    0.913495   -0.687598
 O   -7.870294    0.794650   -1.401541
 H    5.985152    1.966917    0.091290
 H    8.136113    0.930253   -0.508350
 H    8.186170   -1.336245   -1.485897
 H    6.071321   -2.539466   -1.894972
 H    3.928877   -1.497946   -1.338098
 H    3.780411    3.099697   -0.693881
 H   -0.600394    1.336992    0.440108
 H    0.088543    1.637071    2.043149
 H    3.225526   -1.447293    1.069142
 H    1.878164   -1.635410   -0.082839
 H    1.655937   -0.491574    2.748924
 H    1.000032   -2.054594    2.171496
 H   -2.448353    1.229886    2.194718
 H   -4.754407    1.778151    1.177574
 H   -6.795917    1.417331    0.174280
 H   -7.667121    0.079120   -2.043904
