40 
2vr0_ligand_ani.xyz
 C    2.896191    1.427044    0.521062
 O    3.753454    2.260782    1.151152
 C    1.700415    1.956085    0.064738
 C    0.775732    1.168973   -0.596171
 N    1.044178   -0.144005   -0.822006
 O    0.236266   -0.865702   -1.487250
 C    2.223856   -0.733004   -0.355012
 C    2.424348   -2.110604   -0.580122
 C    3.574468   -2.709482   -0.126167
 C    4.544564   -1.949593    0.559429
 C    4.355473   -0.608962    0.783221
 C    3.177211    0.045844    0.329636
 C   -0.576847    1.637695   -1.051896
 C   -3.069039    1.678592   -0.508858
 C   -1.713577    1.027131   -0.218459
 C   -4.215828    1.147667    0.357275
 C   -4.544340   -0.327992    0.131323
 C   -5.778668   -0.792257    0.903449
 C   -6.119644   -2.258094    0.648636
 H    4.562929    1.793091    1.392645
 H    1.486732    3.005700    0.238954
 H    1.653935   -2.653905   -1.111312
 H    3.738647   -3.770766   -0.295236
 H    5.451603   -2.433357    0.913690
 H    5.126228   -0.055858    1.321238
 H   -0.697523    1.354750   -2.100768
 H   -0.594847    2.728194   -0.982009
 H   -3.326870    1.540562   -1.570094
 H   -2.984504    2.763694   -0.353131
 H   -1.475976    1.141538    0.848321
 H   -1.743836   -0.045401   -0.423105
 H   -5.115936    1.745182    0.156066
 H   -3.974549    1.305504    1.419441
 H   -3.686801   -0.953283    0.416914
 H   -4.704815   -0.503408   -0.942963
 H   -6.635159   -0.162718    0.624777
 H   -5.615076   -0.630660    1.977881
 H   -6.306848   -2.437226   -0.416764
 H   -5.296306   -2.914035    0.954498
 H   -7.013912   -2.564469    1.201282
