73 
2vsl_ligand_dft.xyz
 N   -7.193545    0.773033   -0.192574
 C   -8.134156    1.925532   -0.087067
 C   -5.936457    0.868897    0.628346
 C   -6.086995    0.144372    1.959137
 C   -4.832783    0.336490   -0.317398
 O   -5.115138    0.171375   -1.503711
 N   -3.633671    0.109618    0.215117
 C   -2.496800   -0.352196   -0.571037
 C   -1.557903   -1.033387    0.426939
 O   -1.451757   -0.551466    1.556150
 C   -1.758098    0.848269   -1.207857
 C   -0.490837    0.476780   -1.982584
 C    0.310812    1.708293   -2.414825
 C    1.727230    1.373867   -2.872028
 N    2.583160    0.948986   -1.721181
 N   -0.807836   -2.066809    0.003184
 C    0.278357   -2.555111    0.857427
 C    1.388317   -1.490696    0.872852
 O    2.051508   -1.266596   -0.141041
 C    0.726222   -3.853575    0.169404
 C    0.348896   -3.648486   -1.301885
 C   -0.954665   -2.852321   -1.233904
 N    1.563403   -0.875704    2.055315
 C    2.497223    0.186816    2.394544
 C    2.070052    1.528406    1.809773
 O    1.490719    1.696537    0.756075
 C    4.003351   -0.118037    2.126055
 C    4.624918    0.294149    0.806606
 C    4.942197    1.636125    0.561031
 C    4.992236   -0.660390   -0.144995
 C    5.582452    2.018888   -0.616096
 C    5.646088   -0.286957   -1.317575
 C    5.937018    1.056924   -1.562275
 O    2.441940    2.524829    2.607575
 H   -6.833563    0.642106   -1.166032
 H   -7.683972   -0.094861    0.042679
 H   -7.635032    2.815821   -0.469477
 H   -9.019795    1.710694   -0.685298
 H   -8.413358    2.066041    0.957538
 H   -5.757625    1.937059    0.789826
 H   -6.948572    0.525833    2.515110
 H   -6.201075   -0.934923    1.817473
 H   -5.209557    0.311933    2.587984
 H   -3.421731    0.275363    1.193752
 H   -2.870340   -1.031462   -1.339865
 H   -1.490810    1.529744   -0.391451
 H   -2.466231    1.368775   -1.861760
 H   -0.747461   -0.110919   -2.872952
 H    0.137906   -0.159229   -1.351462
 H    0.365889    2.429777   -1.590591
 H   -0.192525    2.217699   -3.243302
 H    1.741796    0.561910   -3.603147
 H    2.210962    2.245602   -3.317268
 H    2.527950    1.622724   -0.949098
 H    3.574361    0.856784   -1.979251
 H    2.306042    0.052319   -1.272584
 H   -0.098940   -2.733448    1.867660
 H    1.790750   -4.049905    0.309127
 H    0.169539   -4.691445    0.599123
 H    1.119892   -3.059103   -1.803180
 H    0.222942   -4.590096   -1.839152
 H   -1.087869   -2.207555   -2.103677
 H   -1.826557   -3.511106   -1.149953
 H    0.824074   -1.025964    2.728501
 H    2.409696    0.291241    3.478436
 H    4.134361   -1.191803    2.286288
 H    4.556956    0.383390    2.926211
 H    4.724995    2.387784    1.315565
 H    4.771749   -1.707725    0.034636
 H    5.836438    3.061816   -0.778369
 H    5.947252   -1.046795   -2.032098
 H    6.468244    1.345999   -2.463861
 H    2.184382    3.368715    2.198978
