73 
2vsl_ligand_xtb.xyz
 N   -6.881170   -1.136899   -1.446987
 C   -7.571784   -2.433686   -1.515244
 C   -5.516404   -1.080795   -2.031073
 C   -5.415429   -0.004526   -3.102254
 C   -4.613767   -0.768025   -0.804465
 O   -5.185769   -0.589052    0.264987
 N   -3.312517   -0.718221   -1.001893
 C   -2.337617   -0.385692    0.022917
 C   -1.269094    0.446784   -0.703731
 O   -0.954204    0.123125   -1.839022
 C   -1.678960   -1.682427    0.534296
 C   -0.540834   -1.425703    1.520843
 C    0.287766   -2.687013    1.776303
 C    1.614263   -2.368987    2.459218
 N    2.581973   -1.794809    1.498778
 N   -0.710321    1.477240   -0.064147
 C    0.398599    2.181014   -0.691325
 C    1.674962    1.337077   -0.534426
 O    1.749037    0.495928    0.348540
 C    0.504125    3.481780    0.110556
 C    0.062351    3.042969    1.505148
 C   -1.076507    2.066168    1.215362
 N    2.632615    1.654239   -1.410846
 C    3.992212    1.149315   -1.558871
 C    4.103695   -0.372657   -1.626705
 O    3.548208   -1.170457   -0.914784
 C    4.968305    1.698323   -0.483917
 C    4.714910    1.184036    0.904547
 C    5.295198   -0.003964    1.332386
 C    3.925682    1.902429    1.795355
 C    5.065131   -0.480686    2.617043
 C    3.698863    1.435886    3.078392
 C    4.264996    0.242018    3.494016
 O    4.960974   -0.706243   -2.571407
 H   -6.654053   -0.876786   -0.420892
 H   -7.475435   -0.405273   -1.846317
 H   -6.975001   -3.196812   -1.020298
 H   -8.533920   -2.366569   -1.011678
 H   -7.738648   -2.723271   -2.551625
 H   -5.253394   -2.059192   -2.441271
 H   -6.099144   -0.215109   -3.921763
 H   -5.646212    0.976052   -2.690588
 H   -4.411638    0.032411   -3.515931
 H   -2.887379   -0.852061   -1.915147
 H   -2.843276    0.151553    0.825739
 H   -1.283001   -2.208649   -0.337807
 H   -2.444971   -2.309026    0.993659
 H   -0.947325   -1.067176    2.467643
 H    0.108467   -0.654976    1.109614
 H    0.489304   -3.194354    0.831001
 H   -0.276490   -3.377502    2.402752
 H    1.461687   -1.647680    3.263046
 H    2.044135   -3.277419    2.884809
 H    2.809848   -2.450553    0.745177
 H    3.466520   -1.492377    1.956824
 H    2.223820   -0.932539    1.010294
 H    0.183957    2.333453   -1.752863
 H    1.507627    3.901109    0.097883
 H   -0.186704    4.221477   -0.293689
 H    0.877807    2.522164    2.007420
 H   -0.259062    3.876112    2.124140
 H   -1.171291    1.310692    1.994253
 H   -2.028593    2.598338    1.114387
 H    2.400084    2.381728   -2.070986
 H    4.349424    1.512950   -2.526594
 H    4.888917    2.786737   -0.496159
 H    5.978075    1.429094   -0.797831
 H    5.952159   -0.549535    0.671310
 H    3.508565    2.851312    1.491580
 H    5.564234   -1.378414    2.954079
 H    3.104149    2.017317    3.765890
 H    4.111595   -0.110243    4.502370
 H    5.105578   -1.665368   -2.641622
