24 
2vth_ligand_ani.xyz
 N    2.395866   -0.959057    1.400358
 S    2.380670   -0.194026   -0.089191
 O    3.377491    0.866177   -0.068567
 O    2.441550   -1.252664   -1.085375
 C    0.779860    0.571295   -0.113491
 C    0.747249    1.944183   -0.109261
 C   -0.479145    2.629866   -0.050275
 C   -1.659514    1.935518    0.008431
 C   -1.654162    0.515669   -0.007028
 C   -2.883692   -0.214992    0.055516
 O   -4.021385    0.525152    0.159806
 C   -2.890435   -1.585971    0.005805
 C   -1.672393   -2.282663   -0.110103
 C   -0.472382   -1.621887   -0.163389
 C   -0.429241   -0.202837   -0.092309
 H    2.948666   -0.427055    2.064819
 H    2.756154   -1.900752    1.284777
 H    1.681791    2.495737   -0.143943
 H   -0.478977    3.716002   -0.043657
 H   -2.612006    2.449232    0.064900
 H   -4.783397   -0.068074    0.198729
 H   -3.829790   -2.137123    0.048655
 H   -1.689347   -3.366846   -0.162238
 H    0.447016   -2.181711   -0.277780
