24 
2vth_ligand_xtb.xyz
 N    2.364571   -0.935688    1.403434
 S    2.356772   -0.190153   -0.113383
 O    3.363834    0.833970   -0.128636
 O    2.436082   -1.236624   -1.089755
 C    0.752902    0.590070   -0.094792
 C    0.728021    1.954448   -0.064255
 C   -0.496076    2.635754   -0.008639
 C   -1.666458    1.927506    0.023330
 C   -1.659430    0.518856   -0.005543
 C   -2.867946   -0.229611    0.028592
 O   -4.033862    0.464587    0.093453
 C   -2.829196   -1.601671   -0.003848
 C   -1.603955   -2.276715   -0.076392
 C   -0.421262   -1.590802   -0.107719
 C   -0.424003   -0.183219   -0.071017
 H    2.845065   -0.366748    2.082177
 H    2.767433   -1.858472    1.360348
 H    1.665821    2.486857   -0.085529
 H   -0.505566    3.714562    0.011591
 H   -2.620441    2.429556    0.070930
 H   -4.778590   -0.149139    0.103675
 H   -3.751520   -2.167131    0.020781
 H   -1.607308   -3.355648   -0.109223
 H    0.520755   -2.104723   -0.183468
