27 
2vtj_ligand_ani.xyz
 N    4.814518    0.970048   -1.253003
 S    4.531533    0.123522    0.161367
 O    5.227034   -1.147771    0.038165
 O    4.777192    1.040927    1.262919
 C    2.792443   -0.205696    0.114292
 C    2.325011   -1.351875   -0.522434
 C    0.960707   -1.597660   -0.557578
 C    0.059262   -0.700133    0.024575
 N   -1.310239   -1.004341   -0.036913
 C   -2.383986   -0.153139   -0.138005
 C   -2.288923    1.195721   -0.523656
 N   -3.365502    1.965360   -0.609689
 C   -4.547441    1.420933   -0.328726
 C   -4.625078    0.076455    0.019967
Cl   -6.176447   -0.625115    0.360860
 N   -3.576040   -0.712289    0.104900
 C    0.545865    0.433068    0.686008
 C    1.912554    0.677668    0.730065
 H    5.464127    0.457275   -1.840204
 H    5.145341    1.905211   -1.039589
 H    3.025826   -2.050612   -0.969462
 H    0.577418   -2.488262   -1.048282
 H   -1.587069   -1.973011    0.046415
 H   -1.333257    1.644411   -0.783593
 H   -5.431336    2.048883   -0.391390
 H   -0.139897    1.107715    1.189715
 H    2.298470    1.550246    1.247123
