15 
2vtm_ligand_ani.xyz
 N    3.544048   -1.139008   -0.003163
 C    2.544079   -0.551655   -0.000831
 C    1.343305    0.211288    0.001400
 C    1.193232    1.616564    0.001258
 N   -0.070418    1.998753    0.000700
 N   -0.769890    0.843717    0.000567
 C   -2.123257    0.756481   -0.002325
 C   -2.673402   -0.486835   -0.002243
 C   -1.796313   -1.607396    0.001064
 N   -0.487608   -1.526500    0.002827
 C    0.034295   -0.282668    0.001703
 H    1.978413    2.363467    0.001167
 H   -2.658605    1.698124   -0.004901
 H   -3.748029   -0.622729   -0.004940
 H   -2.216337   -2.612280    0.002005
