15 
2vtm_ligand_dft.xyz
 N    3.533692   -1.144592   -0.000004
 C    2.541446   -0.544375   -0.000006
 C    1.341754    0.210277    0.000021
 C    1.195568    1.611446    0.000043
 N   -0.072052    2.006317   -0.000033
 N   -0.771123    0.851972   -0.000049
 C   -2.124836    0.755519    0.000006
 C   -2.667805   -0.494052    0.000018
 C   -1.790527   -1.613812   -0.000001
 N   -0.482182   -1.523155   -0.000003
 C    0.032962   -0.279928   -0.000009
 H    1.984450    2.350684    0.000080
 H   -2.668135    1.691998    0.000043
 H   -3.741775   -0.627742    0.000072
 H   -2.204250   -2.619192   -0.000002
