42 
2vtq_ligand_ani.xyz
 C   -6.079044   -0.897512    1.267419
 C   -5.049030    0.208974    1.064101
 C   -3.775728   -0.336472    0.424117
 N   -2.846478    0.751805    0.194496
 C   -1.533490    0.539324    0.004767
 O   -1.010538   -0.577467   -0.018156
 C   -0.755942    1.768768   -0.167266
 N   -1.318924    2.969301   -0.194773
 N   -0.346431    3.886563   -0.362522
 C    0.838044    3.249383   -0.434087
 C    0.644254    1.873809   -0.314578
 N    1.498878    0.781462   -0.326272
 C    2.864410    0.888844   -0.283041
 O    3.439056    1.955300   -0.385712
 C    3.593915   -0.407236   -0.057052
 C    3.263044   -1.606515   -0.687601
 F    2.208966   -1.624615   -1.534793
 C    3.954229   -2.790430   -0.502873
 C    5.037902   -2.792875    0.368471
 C    5.413941   -1.629962    1.029300
 C    4.693862   -0.466377    0.803249
 F    5.064109    0.638793    1.455655
 C   -4.077021   -1.106586   -0.864643
 N   -6.372539   -1.568309   -0.040443
 C   -5.128443   -2.180809   -0.608414
 H   -7.005033   -0.513706    1.690377
 H   -5.671662   -1.641683    1.955724
 H   -4.804961    0.684784    2.019076
 H   -5.467336    0.987627    0.408257
 H   -3.294979   -1.036822    1.118859
 H   -3.157499    1.717474    0.162618
 H    1.766884    3.785359   -0.564538
 H    1.019181   -0.113462   -0.298453
 H    3.630325   -3.681562   -1.029767
 H    5.593355   -3.710383    0.534597
 H    6.252925   -1.602626    1.716185
 H   -3.152970   -1.556244   -1.236570
 H   -4.431510   -0.401229   -1.629230
 H   -6.662138   -0.807067   -0.709594
 H   -7.122752   -2.274515    0.062391
 H   -4.731478   -2.895111    0.117165
 H   -5.377146   -2.722826   -1.518515
