42 
2vu3_ligand_dft.xyz
 C    5.022673   -2.190523    0.641929
 C    4.063797   -1.016672    0.651282
 C    4.015660   -0.297985   -0.714282
 N    3.142684    0.832992   -0.699552
 C    1.783073    0.577727   -0.476681
 O    1.288887   -0.514053   -0.797608
 C    1.116258    1.657255    0.180623
 N    1.816768    2.723263    0.662740
 N    0.969388    3.525737    1.284600
 C   -0.282503    2.989174    1.216066
 C   -0.237907    1.787383    0.525972
 N   -1.207332    0.830893    0.196979
 C   -2.518265    0.890211    0.509150
 O   -3.074466    1.792824    1.110223
 C   -3.306477   -0.318457    0.029524
 C   -3.969503   -0.311520   -1.199386
 C   -4.761430   -1.375280   -1.616719
 C   -4.902941   -2.481425   -0.787953
 C   -4.255744   -2.526775    0.440616
 C   -3.469293   -1.449083    0.831620
 C    5.419860    0.124570   -1.149424
 N    6.392238   -1.700786    0.216397
 C    6.384865   -1.050030   -1.148412
Cl   -2.658357   -1.532864    2.378228
Cl   -3.798817    1.062987   -2.261778
 H    4.734035   -2.949258   -0.090825
 H    5.143128   -2.663378    1.619332
 H    4.338532   -0.303175    1.440287
 H    3.058857   -1.382036    0.879821
 H    3.608742   -1.009621   -1.443971
 H    3.428766    1.667739   -0.183939
 H   -1.134019    3.480859    1.661602
 H   -0.843624    0.015929   -0.285548
 H   -5.258989   -1.330107   -2.578845
 H   -5.522178   -3.315460   -1.102526
 H   -4.357323   -3.384989    1.095214
 H    5.798665    0.914946   -0.485810
 H    5.385687    0.549688   -2.156291
 H    7.065600   -2.470238    0.234985
 H    6.712914   -1.011310    0.903760
 H    7.413927   -0.758120   -1.370172
 H    6.074898   -1.829842   -1.849335
