42 
2vu3_ligand_ani.xyz
 C    5.330015   -2.227135    0.225792
 C    4.279740   -1.188384    0.602232
 C    4.038104   -0.225708   -0.564404
 N    3.111164    0.828788   -0.205690
 C    1.790999    0.604439   -0.094350
 O    1.256674   -0.487791   -0.303548
 C    1.024179    1.789468    0.301682
 N    1.592393    2.960547    0.548807
 N    0.622965    3.832707    0.894543
 C   -0.562220    3.195262    0.862686
 C   -0.374192    1.866145    0.485038
 N   -1.223247    0.787352    0.298735
 C   -2.581344    0.851947    0.442015
 O   -3.157723    1.857752    0.803765
 C   -3.299340   -0.422228    0.072544
 C   -4.251144   -0.432059   -0.953946
 C   -4.936070   -1.588415   -1.311215
 C   -4.680328   -2.770406   -0.631106
 C   -3.750072   -2.799836    0.399011
 C   -3.072866   -1.634758    0.736377
 C    5.340813    0.388853   -1.067606
 N    6.601139   -1.551507   -0.188840
 C    6.367313   -0.691599   -1.393888
Cl   -1.932738   -1.732465    2.050135
Cl   -4.590851    1.012641   -1.853157
 H    4.958152   -2.813925   -0.617847
 H    5.534488   -2.907525    1.049987
 H    4.610782   -0.614661    1.479381
 H    3.336696   -1.674032    0.865437
 H    3.574767   -0.802164   -1.374570
 H    3.432469    1.763815    0.023819
 H   -1.485180    3.701221    1.107166
 H   -0.741876   -0.063924    0.018075
 H   -5.661408   -1.551446   -2.117151
 H   -5.210714   -3.676978   -0.905042
 H   -3.538992   -3.715257    0.940864
 H    5.741207    1.054538   -0.287895
 H    5.138040    1.005546   -1.948605
 H    7.353546   -2.241544   -0.360269
 H    6.861579   -0.899768    0.597638
 H    7.313274   -0.264753   -1.720469
 H    5.980171   -1.320561   -2.198941
