46 
2vvv_ligand_dft.xyz
 F   -3.589790   -2.713578    1.413142
 C   -3.176416   -1.586810    0.828774
 C   -4.094135   -0.566854    0.634800
 C   -3.663811    0.645838    0.106362
 N   -4.608564    1.713893   -0.033286
 C   -5.360651    2.070601    1.057779
 C   -6.314059    3.032180    0.994837
 C   -6.531012    3.684460   -0.252901
 C   -5.791184    3.355013   -1.341839
 C   -4.756074    2.338462   -1.302891
 O   -4.056264    2.013471   -2.248584
 C   -2.327682    0.827347   -0.241395
 C   -1.432942   -0.218832   -0.075701
 C   -1.843062   -1.444633    0.451722
 N   -0.901572   -2.477391    0.639247
 C   -1.070553   -3.748827    0.167294
 O   -2.082466   -4.184339   -0.340855
 C    0.153165   -4.664011    0.371350
 N    1.376550   -4.097664   -0.162994
 C    2.075980   -4.417675   -1.261942
 N    3.632568   -1.519859   -0.346919
 C    3.168509   -0.307638    0.126800
 O    2.039649   -0.132929    0.549793
 C    4.159826    0.788115    0.084235
 C    5.517028    0.765521   -0.107224
 C    6.108728    2.054079   -0.053887
 S    3.574882    2.394960    0.356780
 C    5.172734    3.020261    0.185017
Cl    5.468192    4.710316    0.322038
 N    3.028416   -3.529161   -1.482006
 N    1.874154   -2.959625    0.378863
 C    2.841557   -2.655155   -0.463776
 H   -5.131640   -0.733355    0.903089
 H   -5.123553    1.538554    1.971744
 H   -6.879955    3.292834    1.880006
 H   -7.293501    4.454668   -0.328719
 H   -5.932750    3.833092   -2.303991
 H   -1.999071    1.770267   -0.658287
 H   -0.387148   -0.091416   -0.338643
 H    0.051140   -2.186759    0.852411
 H   -0.052215   -5.598824   -0.149448
 H    0.300252   -4.865028    1.436550
 H    1.863371   -5.289534   -1.864170
 H    4.443550   -1.522660   -0.948453
 H    6.093757   -0.141235   -0.253243
 H    7.164606    2.257255   -0.177894
