46 
2vvv_ligand_xtb.xyz
 F   -0.595078   -0.568786    1.901483
 C   -1.550804   -0.747407    0.971085
 C   -2.530190    0.209606    0.824979
 C   -3.535131    0.001956   -0.112999
 N   -4.560400    0.966259   -0.283781
 C   -4.869208    1.374328   -1.538705
 C   -5.864840    2.261609   -1.785563
 C   -6.604859    2.766279   -0.692688
 C   -6.308633    2.365889    0.566686
 C   -5.255253    1.425825    0.855732
 O   -4.961781    1.021190    1.964633
 C   -3.541918   -1.160827   -0.874032
 C   -2.546285   -2.107425   -0.723300
 C   -1.523998   -1.913750    0.199702
 N   -0.477342   -2.809208    0.412428
 C   -0.366610   -4.074274   -0.038919
 O   -1.180769   -4.686675   -0.691120
 C    0.946793   -4.751009    0.428578
 N    2.105210   -3.990211    0.061434
 C    3.193908   -4.331377   -0.643547
 N    3.775792   -1.006224   -0.134874
 C    2.919676    0.069926   -0.028256
 O    1.720745   -0.047777    0.084237
 C    3.579283    1.377446   -0.064402
 C    4.899443    1.743680   -0.115678
 C    5.085384    3.135336   -0.118827
 S    2.529804    2.756380   -0.013581
 C    3.897848    3.810269   -0.069478
Cl    3.704026    5.503105   -0.060844
 N    3.983063   -3.292115   -0.800734
 N    2.187985   -2.688646    0.382903
 C    3.317499   -2.299331   -0.167413
 H   -2.515548    1.089568    1.445604
 H   -4.256868    0.963658   -2.328615
 H   -6.079869    2.575720   -2.792524
 H   -7.402283    3.472151   -0.872587
 H   -6.852972    2.729058    1.424153
 H   -4.339335   -1.335498   -1.580557
 H   -2.560027   -3.010619   -1.310151
 H    0.348576   -2.397746    0.854177
 H    1.008629   -5.740819   -0.026472
 H    0.902068   -4.852354    1.519102
 H    3.384819   -5.314353   -1.020304
 H    4.728490   -0.879417   -0.438906
 H    5.722666    1.052166   -0.140672
 H    6.043695    3.619326   -0.155311
