49 
2vwv_ligand_xtb.xyz
 C   -5.189491   -3.289622   -0.440674
 O   -3.869375   -2.829227   -0.589725
 C   -3.623143   -1.503276   -0.428245
 C   -4.573582   -0.535272   -0.123025
 C   -4.213281    0.792280    0.023823
 C   -2.889983    1.197199   -0.126218
 N   -2.586986    2.545445    0.016882
 C   -1.385544    3.168879    0.036077
 N   -1.448907    4.511760    0.029919
 C   -0.275768    5.111217   -0.003648
 N    0.902827    4.527037   -0.016929
 C    0.861397    3.184066    0.051182
 N    2.053548    2.562329    0.066303
 C    2.310455    1.190694    0.184161
 C    1.485373    0.365068    0.930030
 C    1.765641   -0.991958    1.053385
 O    1.018044   -1.835192    1.826569
 C   -0.102747   -1.320280    2.502167
 C    2.876084   -1.535872    0.391734
 O    3.265045   -2.844650    0.421567
 C    2.281635   -3.852868    0.517281
 C    3.723681   -0.679374   -0.337518
 O    4.791365   -1.289067   -0.920443
 C    5.686770   -0.504383   -1.665938
 C    3.447683    0.675770   -0.428113
 N   -0.261596    2.467513    0.076860
 C   -1.927764    0.238660   -0.441514
 C   -2.296455   -1.082655   -0.587454
Cl   -1.094759   -2.255134   -0.979954
 H   -5.571371   -3.096638    0.567075
 H   -5.859395   -2.835839   -1.178120
 H   -5.144639   -4.364300   -0.608727
 H   -5.608942   -0.808544    0.000836
 H   -4.974539    1.522173    0.256588
 H   -3.368773    3.185297    0.064852
 H   -0.283587    6.194112   -0.028397
 H    2.840823    3.172004   -0.105652
 H    0.632472    0.796384    1.420902
 H    0.186418   -0.563984    3.239375
 H   -0.836882   -0.895153    1.811720
 H   -0.544789   -2.172807    3.016486
 H    1.933547   -3.982579    1.544475
 H    1.424919   -3.640402   -0.126273
 H    2.772012   -4.766261    0.180067
 H    5.192856   -0.024218   -2.517722
 H    6.168088    0.260304   -1.046691
 H    6.443917   -1.194940   -2.033931
 H    4.090150    1.337954   -0.985501
 H   -0.899977    0.531579   -0.572098
