42 
2vwx_ligand_ani.xyz
 C   -0.457201   -1.314662    0.876510
 N   -0.057807   -2.509789    1.348056
 C    1.260462   -2.669946    1.427311
 C    2.185149   -1.707765    1.061520
 C    1.649936   -0.505399    0.591626
 N    2.410576    0.586386    0.238762
 C    3.779486    0.639211   -0.014735
 C    4.489695   -0.393038   -0.610327
 O    3.996954   -1.538125   -1.187440
 C    5.139177   -2.365344   -1.285827
 O    6.276518   -1.521025   -1.371920
 C    5.866998   -0.357598   -0.776648
 C    6.620880    0.736854   -0.429481
 C    5.925257    1.826374    0.114974
 C    4.548896    1.776884    0.300679
Cl    3.740937    3.176538    0.956371
 N    0.327228   -0.302909    0.517992
 N   -7.208881    0.773900    1.011256
 S   -6.653906   -0.009760   -0.357346
 O   -6.795834   -1.438095   -0.118653
 O   -7.264725    0.651189   -1.499527
 C   -4.916199    0.370569   -0.375113
 C   -4.480096    1.551897   -0.966344
 C   -3.118148    1.828431   -0.952864
 C   -2.201483    0.953553   -0.376017
 C   -2.653748   -0.234484    0.205463
 N   -1.822950   -1.190081    0.806203
 C   -4.026699   -0.520013    0.204213
 H    1.592079   -3.633607    1.810042
 H    3.252253   -1.875219    1.150904
 H    1.900195    1.460648    0.236880
 H    5.075040   -2.981718   -2.182805
 H    5.214950   -2.978676   -0.373562
 H    7.694302    0.760312   -0.580043
 H    6.460499    2.727423    0.396515
 H   -7.561312    0.099349    1.682083
 H   -7.906786    1.465163    0.757252
 H   -5.190332    2.226822   -1.433722
 H   -2.754374    2.746119   -1.406290
 H   -1.143729    1.179631   -0.377926
 H   -2.286966   -2.025242    1.132121
 H   -4.393913   -1.443252    0.642568
