42 
2vwx_ligand_xtb.xyz
 C   -0.462379   -1.442248    0.785418
 N   -0.039730   -2.617507    1.261760
 C    1.263986   -2.746219    1.441508
 C    2.171111   -1.748263    1.143954
 C    1.629977   -0.569116    0.619969
 N    2.366117    0.532091    0.290531
 C    3.722810    0.619651    0.047101
 C    4.489517   -0.388235   -0.516938
 O    4.091408   -1.634548   -0.931404
 C    5.250845   -2.263241   -1.434768
 O    6.344043   -1.377187   -1.326945
 C    5.852221   -0.231569   -0.768665
 C    6.517399    0.940551   -0.497409
 C    5.763782    1.979606    0.040473
 C    4.417754    1.820354    0.300413
Cl    3.521674    3.148190    0.958546
 N    0.313958   -0.414300    0.466131
 N   -7.054693    0.688471    1.081310
 S   -6.591708    0.049478   -0.411365
 O   -6.819875   -1.366265   -0.366117
 O   -7.218221    0.830391   -1.438212
 C   -4.843171    0.378055   -0.379297
 C   -4.375833    1.604969   -0.804233
 C   -3.012233    1.846235   -0.738516
 C   -2.145345    0.880825   -0.259246
 C   -2.627762   -0.359698    0.164230
 N   -1.816268   -1.366900    0.645420
 C   -4.003905   -0.599748    0.100878
 H    1.585427   -3.693987    1.853199
 H    3.222000   -1.862114    1.332541
 H    1.839368    1.392189    0.204343
 H    5.093673   -2.531435   -2.491103
 H    5.457844   -3.177281   -0.855132
 H    7.567310    1.049547   -0.702701
 H    6.235463    2.923415    0.260417
 H   -7.466822   -0.014824    1.672466
 H   -7.668049    1.479607    0.971744
 H   -5.073238    2.331249   -1.186644
 H   -2.618127    2.796339   -1.065805
 H   -1.085061    1.061760   -0.210862
 H   -2.279497   -2.225123    0.915660
 H   -4.428586   -1.543786    0.404578
