45 
2vwz_ligand_dft.xyz
 N   -2.404634    2.842384   -0.210655
 C   -1.050665    2.662815   -0.409968
 N   -0.397078    3.748927   -0.846123
 C    0.907697    3.555779   -1.057869
 C    1.571800    2.359918   -0.847089
 C    0.779941    1.305106   -0.366026
 N    1.228443    0.044686   -0.087284
 C    2.557084   -0.388476   -0.129807
 C    3.572988    0.247987    0.562881
 O    3.467427    1.334899    1.376439
 C    4.807981    1.708630    1.676048
 O    5.651539    0.618236    1.325584
 C    4.889907   -0.191040    0.532922
 C    5.269724   -1.317750   -0.158407
 C    4.261991   -1.999184   -0.854290
 C    2.953196   -1.540895   -0.845152
Cl    1.746450   -2.415901   -1.756636
 N   -0.530310    1.466783   -0.164481
 C   -2.263145   -2.148661   -1.200181
 S   -2.284332   -2.413829    0.566936
 O   -1.109759   -1.736564    1.099951
 O   -2.519143   -3.818854    0.848384
 N   -3.671538   -1.646533    1.117597
 C   -4.053010   -0.352450    0.678593
 C   -5.376770   -0.082013    0.334909
 C   -5.695077    1.194662   -0.121023
 C   -4.714965    2.161549   -0.300353
 C   -3.382366    1.871896    0.024675
 C   -3.073766    0.629050    0.581260
 H   -2.721413    3.755345   -0.503457
 H    1.456397    4.420626   -1.425558
 H    2.629706    2.254462   -1.044992
 H    0.507530   -0.611984    0.206824
 H    4.895828    1.908743    2.744917
 H    5.082042    2.590618    1.081292
 H    6.295356   -1.665927   -0.160824
 H    4.504526   -2.891240   -1.419686
 H   -2.189051   -1.077308   -1.395006
 H   -1.376296   -2.660643   -1.578307
 H   -3.168590   -2.571284   -1.637663
 H   -4.416940   -2.324268    1.226029
 H   -6.142131   -0.848573    0.416370
 H   -6.724057    1.427465   -0.377459
 H   -4.977271    3.134074   -0.707979
 H   -2.065924    0.414479    0.894360
