41 
2vx1_ligand_ani.xyz
 N    2.648305   -2.161914   -0.688848
 C    1.278803   -2.080336   -0.686807
 N    0.680516   -3.265823   -0.905523
 C   -0.649195   -3.232746   -0.914754
 C   -1.399559   -2.086674   -0.720729
 C   -0.667410   -0.914684   -0.513378
 N   -1.240907    0.328498   -0.370303
 C   -2.585929    0.626503   -0.157444
 C   -3.415514   -0.140456    0.647249
 O   -3.064405   -1.175935    1.478568
 C   -4.301779   -1.804446    1.750690
 O   -5.322480   -0.827410    1.614573
 C   -4.774843    0.105807    0.775095
 C   -5.386066    1.176249    0.168981
 C   -4.562219    2.014307   -0.597201
 C   -3.204840    1.750321   -0.739005
Cl   -2.230095    2.848319   -1.679648
 N    0.673784   -0.909585   -0.507813
 N    5.110579    3.204498    0.802919
 C    4.093041    2.287065    0.881948
 O    2.978933    2.593163    1.268907
 C    4.443655    0.881584    0.486382
 C    5.749742    0.398592    0.533086
 C    6.003002   -0.916278    0.157781
 C    4.963012   -1.738950   -0.252910
 C    3.643802   -1.262665   -0.276160
 C    3.390969    0.053693    0.105044
 H    2.958673   -3.104728   -0.867782
 H   -1.138957   -4.188703   -1.091923
 H   -2.483259   -2.099839   -0.747005
 H   -0.610182    1.098178   -0.556029
 H   -4.304159   -2.193349    2.769375
 H   -4.467322   -2.602370    1.009217
 H   -6.446456    1.368910    0.287232
 H   -4.981288    2.885934   -1.089394
 H    4.824791    4.162757    0.944183
 H    5.877034    3.055412    0.164861
 H    6.558303    1.032654    0.887641
 H    7.019120   -1.301276    0.181389
 H    5.169269   -2.763704   -0.552197
 H    2.381685    0.439135    0.117850
