47 
2vxa_ligand_ani.xyz
 N    0.825101   -2.459113   -0.402834
 C    1.512817   -3.596186   -0.088928
 O    1.030420   -4.709820   -0.072453
 N    2.876849   -3.426121    0.217674
 C    3.604623   -2.252545    0.357643
 O    4.780139   -2.269203    0.647315
 C    2.767197   -1.043370    0.118711
 N    3.269642    0.147124    0.306754
 C    2.453528    1.219234    0.110389
 C    2.954375    2.512562    0.375387
 C    2.166863    3.630812    0.257879
 C    2.737316    4.997565    0.551404
 C    0.806699    3.484104   -0.130914
 C   -0.085230    4.690264   -0.242194
 C    0.303199    2.224936   -0.415492
 C    1.120542    1.086215   -0.335502
 N    0.665162   -0.187885   -0.665726
 C    1.415255   -1.274667   -0.310265
 C   -0.621149   -0.408233   -1.331803
 C   -1.774465   -0.709313   -0.347489
 O   -1.896013   -2.088298   -0.080182
 C   -3.116948   -0.235234   -0.890643
 O   -3.090002    1.179269   -0.969979
 C   -4.300913   -0.670812   -0.022624
 O   -5.434909   -0.014378   -0.569284
 C   -4.139467   -0.249011    1.435107
 O   -5.425521   -0.372217    2.034354
 H    3.371230   -4.286651    0.407415
 H    3.992571    2.573151    0.693187
 H    2.185138    5.497770    1.354158
 H    2.691280    5.648781   -0.328269
 H    3.783720    4.924597    0.859202
 H   -0.196561    5.202100    0.720873
 H    0.313505    5.424272   -0.951559
 H   -1.082883    4.401646   -0.585578
 H   -0.751218    2.128577   -0.669526
 H   -0.513418   -1.255512   -2.014517
 H   -0.835622    0.478168   -1.929017
 H   -1.548136   -0.147878    0.575913
 H   -0.987455   -2.466127   -0.078422
 H   -3.263819   -0.671201   -1.892897
 H   -4.014830    1.434004   -1.114817
 H   -4.416245   -1.762616   -0.076928
 H   -6.077639    0.024622    0.157483
 H   -3.791515    0.794150    1.455480
 H   -3.403336   -0.886212    1.945029
 H   -5.450420    0.185583    2.819549
