56 
2w05_ligand_ani.xyz
 C    4.007689   -0.537596   -0.262081
 N    2.788320   -1.113965   -0.325043
 C    2.742805   -2.417320   -0.599368
 N    3.795686   -3.237544   -0.754601
 C    4.986686   -2.670534   -0.602527
 C    5.160000   -1.313301   -0.355251
 N    1.523378   -3.022166   -0.779595
 C    0.251539   -2.575629   -0.396723
 C    0.043327   -1.706790    0.680356
 C   -1.247428   -1.359364    1.055492
 C   -2.332340   -1.843216    0.334146
 C   -2.141900   -2.698042   -0.744235
 C   -0.855451   -3.072340   -1.096565
 S   -3.961121   -1.392353    0.841599
 N   -3.973415    0.263757    0.614330
 C   -4.528721    0.768116   -0.641430
 C   -4.679718    2.275512   -0.527565
 O   -5.141694    2.765016   -1.758127
 C   -5.348825    4.154589   -1.736020
 C    4.130305    0.927064   -0.153372
 N    3.178223    1.810529    0.357911
 C    3.656749    3.069384    0.120641
 N    4.836214    3.044569   -0.455235
 C    5.138342    1.727003   -0.621067
 C    1.947657    1.445702    1.075033
 C    1.730967    2.258393    2.350845
 C    0.731172    1.489678    0.154950
 C    2.958627    4.353867    0.442680
 O   -4.903748   -2.020570   -0.072097
 O   -4.067478   -1.572301    2.280523
 H    5.847009   -3.331093   -0.698419
 H    6.148402   -0.885845   -0.233491
 H    1.599015   -3.970035   -1.118871
 H    0.891190   -1.307880    1.225319
 H   -1.414900   -0.717209    1.916155
 H   -3.004096   -3.074070   -1.286980
 H   -0.693966   -3.749843   -1.931109
 H   -4.387905    0.672879    1.449132
 H   -5.491382    0.292908   -0.865102
 H   -3.842804    0.526850   -1.458432
 H   -3.705106    2.721854   -0.266001
 H   -5.392826    2.523706    0.279391
 H   -6.115789    4.436927   -0.997982
 H   -4.421266    4.697839   -1.496968
 H   -5.688492    4.451883   -2.730746
 H    6.055921    1.425675   -1.112803
 H    2.112377    0.416044    1.385742
 H    2.672083    2.388029    2.893131
 H    1.295766    3.241966    2.152146
 H    1.030487    1.722581    3.000818
 H    0.596048    2.483413   -0.285159
 H    0.831229    0.750380   -0.645117
 H   -0.171718    1.245148    0.726863
 H    1.917610    4.349665    0.106719
 H    2.975260    4.562628    1.517427
 H    3.491396    5.158752   -0.065654
