56 
2w05_ligand_xtb.xyz
 C    3.531644   -0.978982   -0.084275
 N    2.295792   -1.485529   -0.087328
 C    2.138235   -2.730732   -0.516619
 N    3.104641   -3.543910   -0.944569
 C    4.334424   -3.053664   -0.912500
 C    4.618058   -1.769921   -0.491894
 N    0.881172   -3.260973   -0.589406
 C   -0.318135   -2.687077   -0.212704
 C   -0.395689   -1.756390    0.827491
 C   -1.611791   -1.193712    1.159575
 C   -2.745204   -1.545477    0.451252
 C   -2.695039   -2.490741   -0.555118
 C   -1.486185   -3.074496   -0.877366
 S   -4.272298   -0.712273    0.814394
 N   -3.768742    0.896695    0.670295
 C   -3.462645    1.279040   -0.691648
 C   -2.996941    2.732843   -0.756203
 O   -2.240779    2.910738   -1.929891
 C   -1.831947    4.242384   -2.119996
 C    3.749080    0.376844    0.355991
 N    2.824196    1.403680    0.444545
 C    3.498433    2.481163    0.921577
 N    4.763347    2.202023    1.157694
 C    4.937749    0.916710    0.810246
 C    1.444801    1.321105   -0.012272
 C    0.458299    1.814157    1.044269
 C    1.263094    2.052946   -1.342395
 C    2.948664    3.831464    1.201924
 O   -5.241819   -1.027632   -0.198496
 O   -4.645451   -0.882914    2.186183
 H    5.111882   -3.724757   -1.254031
 H    5.621491   -1.383731   -0.498299
 H    0.842753   -4.125849   -1.111596
 H    0.499413   -1.490085    1.363015
 H   -1.703528   -0.482600    1.964094
 H   -3.604832   -2.743565   -1.075616
 H   -1.432744   -3.818433   -1.658365
 H   -4.468731    1.489893    1.095662
 H   -4.313913    1.117089   -1.364111
 H   -2.642593    0.638469   -1.027344
 H   -2.381270    2.955634    0.129459
 H   -3.860484    3.415435   -0.750746
 H   -2.693739    4.913355   -2.217138
 H   -1.209784    4.589671   -1.285833
 H   -1.252158    4.261018   -3.040049
 H    5.890716    0.441994    0.931569
 H    1.259967    0.256157   -0.177810
 H    0.721461    1.418525    2.022503
 H    0.434980    2.898699    1.098166
 H   -0.536873    1.461174    0.787317
 H    1.483181    3.113779   -1.250623
 H    1.923013    1.631798   -2.097797
 H    0.234841    1.943467   -1.677911
 H    2.370858    4.220568    0.367348
 H    2.320085    3.816479    2.091208
 H    3.790893    4.491961    1.389632
