20 
2w1d_ligand_ani.xyz
 C   -4.055626    0.643892    0.005976
 C   -2.749448    1.119725    0.020830
 C   -2.005585   -0.073697    0.003308
 N   -2.796065   -1.136960   -0.019303
 N   -4.073993   -0.696443   -0.017831
 C   -0.551414   -0.109471    0.003941
 N    0.096700    1.071314   -0.002772
 C    1.405466    0.693060   -0.002926
 C    2.592659    1.451191   -0.011505
 C    3.797140    0.772407   -0.008929
 C    3.849930   -0.642439    0.002049
 C    2.696160   -1.404194    0.009493
 C    1.462485   -0.730956    0.006347
 N    0.184491   -1.220185    0.010178
 H   -4.991517    1.191002    0.010411
 H   -2.359976    2.121384    0.040564
 H    2.555943    2.536774   -0.020478
 H    4.724146    1.336991   -0.015624
 H    4.815932   -1.137696    0.004497
 H    2.726943   -2.489660    0.017223
