34 
2w1h_ligand_dft.xyz
 O    3.161537    2.001834   -0.017932
 C    2.528789    0.961081    0.004762
 N    1.150652    0.945733   -0.001279
 C    0.369146    2.074252    0.017462
 C    0.641438    3.397519    0.049437
 N   -0.583436    4.127110    0.067943
 N   -1.590657    3.357553    0.050437
 C   -1.099772    2.020762    0.020249
 C   -1.899207    0.926721    0.001079
 N   -1.354502   -0.372626   -0.031035
 C   -2.413810   -1.133830   -0.049327
 C   -2.530188   -2.563786   -0.086793
 C   -3.783925   -3.078310   -0.097160
 C   -4.981689   -2.248041   -0.072053
 C   -4.929768   -0.895753   -0.037431
 C   -3.626132   -0.288244   -0.025216
 N   -3.297513    0.972202    0.005629
 C    3.186380   -0.384329    0.027622
 C    4.529443   -0.439812   -0.350282
 C    5.206835   -1.652300   -0.353290
 C    4.550169   -2.818258    0.033598
 C    3.215796   -2.766774    0.427044
 C    2.533162   -1.555080    0.424091
 H    0.634971    0.072830   -0.072520
 H    1.585671    3.914471    0.059421
 H   -1.643156   -3.186884   -0.107575
 H   -3.921132   -4.155048   -0.125987
 H   -5.942813   -2.752410   -0.082768
 H   -5.817149   -0.273487   -0.019458
 H    5.024548    0.481807   -0.637195
 H    6.248993   -1.688385   -0.655109
 H    5.080036   -3.766100    0.035001
 H    2.706103   -3.671281    0.744489
 H    1.499836   -1.534917    0.760551
