34 
2w1h_ligand_ani.xyz
 O    3.136633    1.933530    0.067545
 C    2.451795    0.920096    0.052723
 N    1.085412    0.963902    0.031122
 C    0.337406    2.134175    0.022285
 C    0.695651    3.466915    0.031868
 N   -0.435481    4.232021    0.011357
 N   -1.502846    3.454413   -0.009865
 C   -1.083744    2.173593   -0.004104
 C   -1.909100    0.979620   -0.017519
 N   -1.324768   -0.245876   -0.020823
 C   -2.377818   -1.111664   -0.027494
 C   -2.437029   -2.516118   -0.028903
 C   -3.684011   -3.113732   -0.035370
 C   -4.872139   -2.346142   -0.039561
 C   -4.832226   -0.964251   -0.036801
 C   -3.571292   -0.343680   -0.030147
 N   -3.237627    0.985551   -0.023636
 C    3.080168   -0.440192    0.037749
 C    4.450718   -0.485918   -0.229355
 C    5.122391   -1.700480   -0.268548
 C    4.428773   -2.883700   -0.029279
 C    3.065540   -2.844041    0.252881
 C    2.390449   -1.628153    0.288633
 H    0.480314    0.143274   -0.034738
 H    1.686925    3.895297    0.051351
 H   -1.523583   -3.101476   -0.024361
 H   -3.752500   -4.197338   -0.037134
 H   -5.833006   -2.852639   -0.044552
 H   -5.737232   -0.363372   -0.038949
 H    4.969054    0.453102   -0.401630
 H    6.187763   -1.724263   -0.482615
 H    4.950833   -3.836346   -0.058218
 H    2.522580   -3.766297    0.444145
 H    1.329756   -1.626235    0.534910
