17 
2w2i_ligand_dft.xyz
 O    3.574108    0.053390    0.479417
 C    2.517641   -0.602503   -0.038751
 O    2.632771   -1.711341   -0.482411
 C    1.203275    0.134750   -0.036412
 C    1.113620    1.523974   -0.123040
 C   -0.146476    2.115765   -0.146448
 C    0.027031   -0.608400    0.009690
 C   -1.178277    0.080075    0.000240
 N   -1.273080    1.411367   -0.076607
 C   -2.489185   -0.669825    0.074770
 O   -2.545414   -1.869098    0.159519
 O   -3.562741    0.118129    0.039901
 H    3.291396    0.855969    0.937485
 H    1.995930    2.151306   -0.211777
 H   -0.252093    3.193933   -0.226273
 H    0.042113   -1.691345    0.053449
 H   -3.241365    1.038899   -0.028339
