82 
2w68_ligand_dft.xyz
 C    3.032282    2.386414    1.157434
 C    2.632839    1.572957   -0.097606
 C    3.783984    1.487120   -1.095447
 C    4.865699    0.504171   -0.648033
 C    4.210569   -0.855676   -0.375102
 C    3.102777   -0.712902    0.675607
 C    2.238297   -1.978038    0.814372
 C    1.505821   -2.090617    2.167341
 C    0.633836   -0.901300    2.571829
 C    5.937113   -2.554636   -0.798952
 C    6.810426   -3.635276   -0.203173
 N    5.170506   -1.849718    0.073346
 O    3.378789    1.904043    2.208822
 O    2.985409    3.707989    0.936815
 O    5.882229    0.445336   -1.614856
 O    2.195252    0.311069    0.309450
 O    1.353309   -2.119066   -0.269866
 O    0.743086   -3.278030    2.168631
 O   -0.416912   -0.651396    1.659783
 O    5.908061   -2.342422   -2.007485
 C   -1.913691    0.998495   -0.527501
 C   -0.577236    1.211899   -1.229644
 C    0.270369    1.974063   -0.222705
 C   -0.391171    3.318001    0.087829
 C   -1.876597    3.144709    0.445258
 C   -2.627808    4.479304    0.364959
 O    0.042934   -0.005165   -1.573511
 O    1.569379    2.203594   -0.756094
 O   -0.272718    4.199388   -1.014983
 O   -2.565674    2.253652   -0.431833
 O   -1.888213    5.537570    0.923832
 C   -5.962348   -1.133274    0.029069
 C   -5.007897   -0.149838   -0.625472
 C   -3.585439   -0.680010   -0.492001
 C   -3.469064   -2.129975   -0.977700
 C   -2.118687   -2.754795   -0.652442
 C   -5.757607   -2.527629   -0.555654
 O   -6.568023   -3.465124    0.063096
 O   -7.314199   -0.788667   -0.174150
 O   -5.184649    1.091033    0.014685
 O   -2.693654    0.120478   -1.258731
 O   -4.430186   -2.939061   -0.323654
 O   -1.913577   -2.854714    0.746933
 H    4.215980    2.475866   -1.270868
 H    3.345745    1.136014   -2.035270
 H    5.318858    0.854847    0.293254
 H    3.759087   -1.229410   -1.301762
 H    3.557593   -0.465442    1.646435
 H    2.905725   -2.846236    0.765707
 H    2.269009   -2.208963    2.949416
 H    0.234482   -1.108734    3.575285
 H    1.231341    0.013686    2.624710
 H    6.470069   -4.602340   -0.583849
 H    6.794746   -3.660781    0.889713
 H    7.836525   -3.487271   -0.547589
 H    5.304705   -1.982407    1.064534
 H    3.291217    4.136472    1.753453
 H    5.852519   -0.426478   -2.047909
 H    0.910017   -1.260562   -0.414795
 H    0.276640   -3.304769    1.317584
 H   -0.942014   -1.465653    1.553931
 H   -1.736200    0.597981    0.479280
 H   -0.737111    1.830036   -2.122408
 H    0.330794    1.373443    0.687497
 H    0.100779    3.756221    0.967240
 H   -1.914059    2.739097    1.467840
 H   -2.868296    4.657681   -0.690515
 H   -3.565825    4.405596    0.921571
 H   -0.524609   -0.427313   -2.230583
 H    0.657257    4.163461   -1.283110
 H   -1.182582    5.721167    0.286662
 H   -5.728691   -1.190957    1.103740
 H   -5.252404   -0.077703   -1.698393
 H   -3.298694   -0.646498    0.566707
 H   -3.620097   -2.152297   -2.069820
 H   -1.305141   -2.137200   -1.031939
 H   -2.059439   -3.746290   -1.116991
 H   -5.938174   -2.501538   -1.647310
 H   -7.410565   -3.021162    0.236516
 H   -7.411906    0.132133    0.103559
 H   -4.472437    1.689810   -0.271776
 H   -2.680811   -3.312847    1.119276
