40 
2w6n_ligand_dft.xyz
 O    0.605741   -2.096526    1.488844
 C    0.766187   -1.160020    0.715962
 C    2.078340   -0.964292    0.065417
 O    2.883040   -2.088397    0.022075
 C    4.047747   -1.648496   -0.460859
 N    5.017623   -2.579241   -0.679183
 N    4.102215   -0.371680   -0.722348
 C    2.839065    0.067791   -0.388082
 N   -0.213799   -0.233932    0.465194
 C   -1.437060   -0.296112    1.263784
 C   -2.581025   -0.962959    0.532394
 C   -3.674897   -0.221302    0.088286
 C   -4.714677   -0.836940   -0.606353
 C   -4.663666   -2.202529   -0.863605
 C   -3.571107   -2.950031   -0.424981
 C   -2.535310   -2.335247    0.268117
 C   -0.252118    0.661820   -0.674949
 C   -0.106400    2.128928   -0.315225
 C    0.560988    2.533958    0.840454
 C    0.711487    3.887154    1.133028
 C    0.195952    4.850521    0.271690
 C   -0.475792    4.453524   -0.882202
 C   -0.628957    3.101465   -1.169483
 H    4.973544   -3.409648   -0.107462
 H    5.940294   -2.192988   -0.809935
 H    2.570853    1.111915   -0.473223
 H   -1.709028    0.730805    1.534490
 H   -1.194490   -0.841961    2.176582
 H   -3.713658    0.847522    0.288284
 H   -5.561914   -0.248246   -0.945996
 H   -5.472394   -2.685733   -1.404074
 H   -3.529195   -4.017319   -0.622189
 H   -1.679941   -2.909181    0.614158
 H   -1.208073    0.509959   -1.192947
 H    0.526763    0.365611   -1.381890
 H    0.957522    1.781471    1.517078
 H    1.232009    4.187186    2.037682
 H    0.312276    5.905725    0.499704
 H   -0.887476    5.198742   -1.556487
 H   -1.162141    2.796092   -2.067127
