40 
2w6n_ligand_ani.xyz
 O    0.695638   -2.235805    1.376514
 C    0.866548   -1.229694    0.703055
 C    2.181766   -0.909080    0.110640
 O    3.106833   -1.929957    0.010635
 C    4.224319   -1.323421   -0.413923
 N    5.327928   -2.112446   -0.570767
 N    4.140071   -0.037524   -0.581501
 C    2.825994    0.229207   -0.245889
 N   -0.140378   -0.312588    0.499050
 C   -1.357920   -0.455123    1.296623
 C   -2.502866   -1.103787    0.540669
 C   -3.686407   -0.404542    0.298858
 C   -4.725551   -0.988622   -0.421618
 C   -4.588011   -2.284981   -0.907197
 C   -3.413602   -2.991951   -0.664160
 C   -2.375888   -2.407379    0.056878
 C   -0.253698    0.570307   -0.649729
 C   -0.245241    2.050389   -0.306086
 C    0.222786    2.544901    0.912563
 C    0.233454    3.914926    1.164108
 C   -0.221742    4.810326    0.201133
 C   -0.687766    4.326746   -1.017018
 C   -0.698176    2.958133   -1.265560
 H    5.152033   -3.082742   -0.786810
 H    6.058163   -1.686927   -1.121717
 H    2.434531    1.238864   -0.261072
 H   -1.665356    0.542702    1.630844
 H   -1.087079   -1.052645    2.173115
 H   -3.790568    0.613307    0.671184
 H   -5.639592   -0.428472   -0.604405
 H   -5.395367   -2.744659   -1.472109
 H   -3.303001   -4.006891   -1.037528
 H   -1.466616   -2.969586    0.258857
 H   -1.194300    0.337707   -1.166762
 H    0.542403    0.340158   -1.365689
 H    0.575311    1.858806    1.678181
 H    0.599510    4.281059    2.119983
 H   -0.213049    5.878874    0.399082
 H   -1.045993    5.017239   -1.777122
 H   -1.062123    2.589066   -2.222787
