31 
2w6q_ligand_ani.xyz
 N   -5.293492    0.022278    0.071564
 C   -3.955356   -0.125995   -0.006786
 N   -3.479610   -1.377858    0.063042
 C   -2.151374   -1.444880   -0.030526
 N   -1.592631   -2.675950    0.041658
 N   -1.308478   -0.409385   -0.169397
 N   -3.235915    0.991500   -0.159414
 C   -1.927706    0.768486   -0.234576
 O   -1.191362    1.866245   -0.394279
 C    0.228783    1.730484   -0.531813
 C    0.894480    1.733952    0.839819
 O    2.306594    1.823104    0.720019
 C    2.930832    0.656139    0.341450
 C    3.080623   -0.393964    1.244073
 C    3.769193   -1.538234    0.854038
 C    4.290525   -1.643106   -0.432810
 C    4.127130   -0.590911   -1.330376
 C    3.449063    0.559788   -0.946506
 H   -5.860480   -0.775389    0.307050
 H   -5.670157    0.952699    0.144118
 H   -2.204478   -3.471561   -0.055653
 H   -0.630796   -2.763306   -0.243571
 H    0.541658    2.607853   -1.101844
 H    0.460838    0.820656   -1.092240
 H    0.594743    0.838670    1.402388
 H    0.583967    2.619717    1.401208
 H    2.670760   -0.296305    2.247232
 H    3.888255   -2.356281    1.560135
 H    4.821873   -2.541847   -0.734423
 H    4.530016   -0.666260   -2.337068
 H    3.305670    1.391910   -1.631341
