20 
2w70_ligand_ani.xyz
 N   -3.402146    1.837714    0.153166
 C   -2.544630    0.770179    0.046402
 S   -3.138962   -0.870392   -0.059576
 C   -1.492976   -1.412167   -0.081138
 N   -1.254862    0.893970    0.070579
 C   -0.653908   -0.345704   -0.003412
 C    0.825219   -0.408739    0.007676
 C    1.523066   -1.618917    0.074565
 C    2.907911   -1.528589    0.080958
 N    3.572269   -0.377568    0.025446
 C    2.798477    0.715317   -0.042138
 N    1.462285    0.756879   -0.047512
 N    3.432976    1.919142   -0.134701
 H   -4.282914    1.771258   -0.336028
 H   -2.929245    2.723243    0.027655
 H   -1.254360   -2.463617   -0.160132
 H    1.034467   -2.585283    0.128603
 H    3.517906   -2.430611    0.134246
 H    4.406643    1.936464    0.122888
 H    2.878299    2.735590    0.069664
