45 
2wap_ligand_ani.xyz
 O   -6.186899   -3.284380   -0.877860
 C   -6.474042   -2.425200   -0.067577
 N   -6.055687   -1.134289   -0.114265
 C   -6.279373   -0.201962    0.974481
 C   -4.960889    0.138020    1.670489
 C   -5.080584   -0.718136   -1.111174
 C   -3.741795   -0.400458   -0.450385
 C   -3.911860    0.636462    0.666878
 C   -2.589168    0.955508    1.391532
 C   -1.516024    1.580052    0.526325
 C   -1.433874    2.967690    0.373013
 C   -0.466257    3.542310   -0.445754
 C    0.452643    2.743607   -1.116412
 C   -0.591920    0.783000   -0.157700
 C    0.385895    1.367320   -0.948601
 O    1.287591    0.563893   -1.626940
 C    2.445000    0.224934   -1.007219
 C    2.746045    0.609331    0.309747
 C    3.950083    0.194513    0.841322
 N    3.253665   -0.505553   -1.759144
 C    4.407726   -0.896124   -1.234675
 C    4.804303   -0.579392    0.057860
 C    6.108326   -1.059513    0.602084
 F    6.809782   -1.749318   -0.315346
 F    6.877566   -0.034906    1.014214
 F    5.934470   -1.865917    1.665965
 H   -7.135328   -2.621490    0.800440
 H   -6.999197   -0.643674    1.670417
 H   -6.728891    0.713422    0.566844
 H   -4.575763   -0.761983    2.170199
 H   -5.131420    0.890141    2.451394
 H   -5.465833    0.172091   -1.626058
 H   -4.997815   -1.531142   -1.833833
 H   -3.026341   -0.051141   -1.205738
 H   -3.336184   -1.328474   -0.022541
 H   -4.288400    1.566833    0.210987
 H   -2.206605    0.024139    1.833018
 H   -2.811174    1.627441    2.230721
 H   -2.130885    3.614056    0.903186
 H   -0.423772    4.623003   -0.556758
 H    1.223955    3.161188   -1.757152
 H   -0.625724   -0.302366   -0.085442
 H    2.053965    1.204438    0.892709
 H    4.237732    0.459785    1.853306
 H    5.054524   -1.493980   -1.872344
