45 
2wap_ligand_dft.xyz
 O   -6.622859   -2.994880   -1.123327
 C   -6.740587   -2.234777   -0.181918
 N   -6.116256   -1.034019   -0.051849
 C   -6.249567   -0.205824    1.129945
 C   -4.888592    0.015504    1.793288
 C   -5.171420   -0.571253   -1.054551
 C   -3.790547   -0.353213   -0.435693
 C   -3.864662    0.564749    0.791236
 C   -2.493377    0.757262    1.461988
 C   -1.477709    1.416946    0.560765
 C   -1.530442    2.794107    0.323926
 C   -0.629613    3.405309   -0.541150
 C    0.348687    2.653097   -1.185976
 C   -0.497522    0.665389   -0.086775
 C    0.400567    1.287044   -0.946869
 O    1.333232    0.519789   -1.621638
 C    2.501183    0.211637   -1.007668
 C    2.850298    0.698223    0.260126
 C    4.073208    0.313500    0.778153
 N    3.275841   -0.582623   -1.732435
 C    4.449251   -0.940550   -1.216861
 C    4.898887   -0.525811    0.031777
 C    6.206709   -1.004948    0.585477
 F    7.059440   -1.366837   -0.386051
 F    6.807598   -0.052979    1.321903
 F    6.047416   -2.072779    1.388799
 H   -7.393548   -2.458814    0.683935
 H   -6.949030   -0.686352    1.821454
 H   -6.683249    0.764140    0.844586
 H   -4.528025   -0.941588    2.193978
 H   -5.001617    0.703901    2.639733
 H   -5.541697    0.371354   -1.483246
 H   -5.145440   -1.320417   -1.847043
 H   -3.117766    0.069161   -1.189735
 H   -3.376272   -1.326006   -0.136797
 H   -4.217673    1.552160    0.453369
 H   -2.119728   -0.220798    1.791059
 H   -2.626722    1.364178    2.366665
 H   -2.288219    3.391959    0.824292
 H   -0.685472    4.475486   -0.715032
 H    1.061466    3.105181   -1.867260
 H   -0.427600   -0.408140    0.064467
 H    2.189476    1.354918    0.811663
 H    4.388968    0.669548    1.753459
 H    5.063469   -1.587619   -1.837031
