45 
2wcx_ligand_dft.xyz
 C    0.636416    2.370118    1.334634
 C    1.369068    3.712056    1.410122
 C    1.167283    4.529783    0.131482
 C    1.595798    3.734704   -1.104895
 C    0.867144    2.390991   -1.182957
 C    1.066456    1.560828    0.098179
 C    0.355409    0.240412    0.018435
 C   -1.046508    0.010757    0.009286
 S   -2.540304    0.880851    0.014746
 C   -3.438489   -0.619855   -0.035751
 C   -4.911507   -0.531737   -0.074729
 O   -5.586616   -1.682383    0.157202
 O   -5.509744    0.489505   -0.300722
 C   -2.632980   -1.733075   -0.073070
 C   -1.269062   -1.361117   -0.042458
 N   -0.056400   -1.997545   -0.066607
 C    0.118162   -3.426725   -0.209074
 C    0.929867   -1.022236   -0.031128
 C    2.362527   -1.368720   -0.030461
 C    2.895816   -2.239287    0.927784
 C    4.251796   -2.546583    0.929008
 C    5.097791   -1.979232   -0.020638
 C    4.579731   -1.107184   -0.974125
 C    3.221287   -0.809287   -0.983292
 H   -0.446676    2.553816    1.292049
 H    0.818309    1.778780    2.239246
 H    2.443248    3.528959    1.556391
 H    1.024063    4.278250    2.282891
 H    1.725439    5.471349    0.189902
 H    0.104919    4.795828    0.037969
 H    2.679616    3.554428   -1.059906
 H    1.409990    4.315749   -2.015544
 H    1.211405    1.816185   -2.051456
 H   -0.207777    2.566090   -1.333864
 H    2.141758    1.360138    0.199094
 H   -4.985031   -2.360295    0.490207
 H   -2.992748   -2.753933   -0.152207
 H    0.012089   -3.943038    0.751525
 H   -0.629843   -3.815115   -0.906110
 H    1.109265   -3.636179   -0.613069
 H    2.242773   -2.662036    1.686458
 H    4.650831   -3.221604    1.680217
 H    6.157599   -2.215236   -0.016257
 H    5.233275   -0.663545   -1.719179
 H    2.812021   -0.144034   -1.738002
