34 
2wd1_ligand_dft.xyz
 O    5.053249    1.516897   -1.016279
 C    4.226290    1.266293   -0.158149
 N    4.091212    2.033003    0.975682
 C    3.265502    0.125358   -0.285426
 C    2.028558    0.116412    0.352978
 C    1.241206   -1.001750    0.135172
 C    3.638196   -0.963807   -1.096020
 N    2.900868   -2.050428   -1.282275
 C    1.711580   -2.064140   -0.667621
 C    0.698981   -3.087044   -0.673472
 C   -0.333853   -2.636443    0.076122
 N   -0.031164   -1.366203    0.582258
 S   -1.080185   -0.398419    1.466443
 O   -2.203086   -1.223326    1.844274
 O   -0.258796    0.286850    2.444017
 C   -1.637056    0.880431    0.324187
 C   -2.705459    0.752659   -0.569104
 N   -3.406540   -0.516696   -0.807462
 O   -2.719342   -1.511079   -0.960419
 O   -4.619390   -0.469223   -0.893632
 C   -1.026878    2.125313    0.452798
 C   -1.441561    3.203977   -0.322738
 C   -2.502822    3.058829   -1.205865
 C   -3.149496    1.832610   -1.315834
 H    4.825395    2.713917    1.111855
 H    3.722443    1.613247    1.816180
 H    1.702941    0.939587    0.977365
 H    4.599408   -0.927168   -1.600993
 H    0.755734   -4.038616   -1.179976
 H   -1.283383   -3.085233    0.320485
 H   -0.243810    2.251557    1.190184
 H   -0.941535    4.160566   -0.217093
 H   -2.840196    3.898217   -1.804191
 H   -3.994873    1.697759   -1.980199
