38 
2wd3_ligand_ani.xyz
 S    5.086742   -1.474909    0.153550
 O    4.349776   -1.838067    1.338149
 O    6.486831   -1.141287    0.179953
 O    4.408811   -0.196749   -0.582067
 N    4.784190   -2.659694   -0.974507
 N   -7.710030   -1.141767    0.329265
 N   -5.863170   -1.510571   -0.929855
 N   -5.531841   -1.375422    0.371243
 N   -0.483352    4.166010   -1.011903
 C   -7.172803   -1.360314   -0.904016
 C   -6.644043   -1.162842    1.098494
 C   -3.335477   -0.180305    0.419322
 C   -3.908727    1.085330    0.293978
 C   -3.120977    2.169212   -0.053529
 C   -1.750885    2.023032   -0.265824
 C   -1.148122    0.756034   -0.118277
 C   -1.973124   -0.323548    0.207637
 C   -1.027187    3.197222   -0.684451
Cl    3.741293    2.231013    0.914528
 C    1.238003    1.416675    0.291003
 C    2.597629    1.151803    0.197640
 C    3.043836    0.017510   -0.475567
 C    2.135586   -0.853883   -1.066602
 C    0.777962   -0.594997   -0.950902
 C   -4.145741   -1.403287    0.809640
 C    0.312963    0.536925   -0.277591
 H    4.684675   -3.561535   -0.518031
 H    5.514906   -2.668285   -1.680685
 H   -7.765274   -1.412791   -1.811151
 H   -6.617437   -1.023878    2.172580
 H   -4.973746    1.221513    0.454504
 H   -3.559431    3.155375   -0.164352
 H   -1.509422   -1.300314    0.335193
 H    0.904451    2.294888    0.831719
 H    2.503251   -1.726066   -1.593922
 H    0.068471   -1.276497   -1.411799
 H   -3.681743   -2.296608    0.381006
 H   -4.165852   -1.522939    1.897462
