17 
2weg_ligand_ani.xyz
 C    3.047316   -0.195860    0.049335
 C    2.386113   -1.422190    0.041214
 C    0.996372   -1.461606    0.000602
 C    0.276571   -0.271891   -0.032515
 C    0.948171    0.942664   -0.019851
 C    2.330884    0.999116    0.020416
 S   -1.487743   -0.266733   -0.121326
 N   -1.888390    0.641099    1.218364
 O   -1.886782    0.449169   -1.318579
 O   -1.948262   -1.618802    0.144628
 F    0.240588    2.080513   -0.045003
 H    4.133028   -0.165173    0.079279
 H    2.951895   -2.348372    0.066982
 H    0.452421   -2.401659   -0.002410
 H    2.820383    1.967655    0.030861
 H   -2.066329    1.609367    0.973733
 H   -2.666280    0.209263    1.705646
