43 
2wei_ligand_ani.xyz
 C   -3.940251   -0.914710    1.616862
 C   -3.607974   -1.151971    0.139027
 C   -4.652965   -0.458175   -0.743829
 C   -3.594140   -2.649696   -0.156247
 N   -2.278303   -0.581994   -0.149771
 N   -1.249815   -1.338725   -0.618001
 C   -1.902303    0.722100   -0.023066
 N   -2.628381    1.767355    0.413533
 C   -1.951564    2.904093    0.405182
 N   -0.684124    3.131878    0.026771
 C    0.028597    2.082733   -0.395703
 N    1.299345    2.300355   -0.821337
 C   -0.566193    0.798512   -0.439585
 C   -0.221199   -0.536898   -0.791277
 C    1.097591   -1.073518   -1.265402
 C    2.255654   -0.816686   -0.307672
 C    3.562867   -0.776789   -0.791682
 C    2.040863   -0.664998    1.064533
 C    3.113938   -0.447766    1.919463
 C    4.410892   -0.390476    1.418043
 C    4.653656   -0.557659    0.055026
 C    6.058196   -0.498609   -0.497126
 H   -3.195540   -1.396861    2.257592
 H   -3.952987    0.155559    1.835479
 H   -4.923055   -1.339664    1.849999
 H   -4.674656    0.614269   -0.536667
 H   -4.419220   -0.608217   -1.802330
 H   -5.645035   -0.879457   -0.546324
 H   -3.343870   -2.831589   -1.204562
 H   -2.851828   -3.156917    0.465361
 H   -4.580401   -3.077862    0.051345
 H   -2.491873    3.782359    0.749171
 H    1.669448    3.215267   -0.607098
 H    1.949714    1.529278   -0.788705
 H    1.345599   -0.634756   -2.241772
 H    0.955998   -2.149755   -1.415225
 H    3.743306   -0.905327   -1.860586
 H    1.023461   -0.700789    1.451385
 H    2.939564   -0.319916    2.985162
 H    5.246505   -0.215151    2.093232
 H    6.338715   -1.445626   -0.973474
 H    6.154319    0.290812   -1.252060
 H    6.786801   -0.294671    0.292428
