35 
2wev_ligand_ani.xyz
 N   14.763121   -4.447518   10.806442
 C   14.637106   -5.516998   11.660806
 N   15.510238   -5.789136   12.586911
 C   15.126056   -6.882459   13.332012
 C   16.037716   -7.348513   14.422181
 S   13.257780   -6.566181   11.615296
 C   13.923708   -7.434212   12.974136
 C   13.165056   -8.565976   13.504585
 N   12.134000   -8.978755   12.741738
 C   13.439014   -9.189318   14.721463
 C   12.599258  -10.236973   15.089400
 N   11.574482  -10.652081   14.352131
 C   11.399411   -9.986110   13.195510
 N   10.330698  -10.412708   12.448302
 C    9.888424   -9.945552   11.199700
 C    8.525800  -10.076879   10.890555
 C   10.754010   -9.406596   10.250499
 C   10.223359   -8.978784    9.044090
 N   11.147137   -8.366795    8.079005
 O   10.713872   -8.088225    6.974990
 O   12.293383   -8.168777    8.448596
 C    8.879897   -9.081190    8.719449
 C    8.030166   -9.641609    9.666345
 H   15.692868   -4.050692   10.831492
 H   14.395951   -4.567588    9.873066
 H   15.605045   -7.150058   15.409866
 H   16.224184   -8.425449   14.351205
 H   16.985040   -6.812085   14.347187
 H   14.245097   -8.876530   15.367976
 H   12.758209  -10.765484   16.027783
 H    9.758054  -11.098064   12.916523
 H    7.853531  -10.512556   11.625476
 H   11.818857   -9.341014   10.418951
 H    8.527935   -8.731956    7.756367
 H    6.971536   -9.742157    9.445969
