35 
2wi6_ligand_dft.xyz
Cl    2.933111    1.130524    2.083811
 C    2.900563    0.029381    0.732634
 C    3.856303   -0.980402    0.705378
 C    3.834573   -1.901512   -0.334242
Cl    5.036303   -3.164366   -0.371673
 C    2.872591   -1.836700   -1.334386
 C    1.925800   -0.822967   -1.282699
 C    1.922721    0.131446   -0.261686
 C    0.892060    1.204232   -0.285866
 N    1.309402    2.458949   -0.320526
 C    0.370814    3.430410   -0.373392
 N    0.837743    4.702538   -0.432203
 N   -0.957759    3.264675   -0.401017
 C   -1.340066    1.997603   -0.367822
 S   -3.013259    1.497823   -0.399292
 C   -0.478011    0.886289   -0.308003
 C   -1.187331   -0.357532   -0.260366
 C   -2.532398   -0.195181   -0.294622
 C   -3.491008   -1.334335   -0.243835
 O   -3.105576   -2.480246   -0.425634
 N   -4.794406   -1.018895   -0.001121
 C   -5.795518   -2.062068    0.156615
 C   -5.803205   -2.678220    1.553557
 H    4.601270   -1.048133    1.489036
 H    2.864953   -2.563985   -2.137827
 H    1.172773   -0.756968   -2.062089
 H    1.811197    4.855138   -0.225611
 H    0.183127    5.455317   -0.296912
 H   -0.731780   -1.337950   -0.194388
 H   -5.014326   -0.101571    0.358474
 H   -5.578877   -2.828842   -0.590398
 H   -6.769567   -1.625125   -0.084409
 H   -4.832633   -3.135228    1.764458
 H   -6.007899   -1.921261    2.318451
 H   -6.573717   -3.452823    1.625098
