35 
2wu7_ligand_xtb.xyz
 C   -5.363076   -0.844019    0.170507
 C   -4.442029   -1.082333   -1.017151
 O   -3.140539   -0.543664   -0.790398
 C   -2.242595   -1.336995   -0.198642
 O   -2.475133   -2.476237    0.143604
 C   -0.953005   -0.647151   -0.049332
 N    0.257952   -1.310124   -0.036105
 C    0.435711   -2.736979   -0.115464
 C    1.255068   -0.384469    0.001334
 C    2.649102   -0.514392    0.008879
Cl    3.450524   -2.046489   -0.050254
 C    3.407986    0.641751    0.061839
Cl    5.129706    0.530985    0.072194
 C    2.824356    1.914958    0.106516
 C    1.461479    2.058609    0.099048
 C    0.668584    0.910093    0.041476
 C   -0.739915    0.721287    0.018430
 C   -1.727827    1.794004    0.130147
 C   -1.554409    2.904688   -0.715192
 N   -1.410101    3.815660   -1.399961
 C   -2.735662    1.819561    1.034686
 N   -3.023850    0.834480    1.922538
 H   -4.987889   -1.369246    1.045231
 H   -5.421234    0.218379    0.391470
 H   -6.356741   -1.214881   -0.063813
 H   -4.809324   -0.566554   -1.906540
 H   -4.352277   -2.155390   -1.216541
 H   -0.537531   -3.219332   -0.076416
 H    0.939087   -3.008569   -1.044647
 H    1.035441   -3.086212    0.725111
 H    3.471491    2.775949    0.143553
 H    1.003911    3.034507    0.120787
 H   -3.403049    2.670547    1.054880
 H   -2.342360    0.102830    2.049861
 H   -3.608659    1.048952    2.710642
