35 
2wu7_ligand_dft.xyz
 C   -5.303272   -0.800269    0.267782
 C   -4.484022   -1.194336   -0.946603
 O   -3.150237   -0.658432   -0.875443
 C   -2.259905   -1.353760   -0.171099
 O   -2.484631   -2.423190    0.358217
 C   -0.957380   -0.641997   -0.113762
 N    0.253141   -1.319556   -0.100302
 C    0.413117   -2.757717   -0.288652
 C    1.262183   -0.383609   -0.034984
 C    2.667957   -0.511239   -0.006591
Cl    3.462613   -2.059148   -0.050542
 C    3.419867    0.653125    0.072569
Cl    5.158655    0.585964    0.113753
 C    2.821816    1.927419    0.126606
 C    1.453996    2.056098    0.105733
 C    0.668850    0.898575    0.019869
 C   -0.748031    0.716335   -0.027576
 C   -1.746024    1.795677    0.096361
 C   -1.707550    2.869155   -0.844159
 N   -1.649127    3.749296   -1.600501
 C   -2.660050    1.858049    1.096651
 N   -2.840840    0.923753    2.070577
 H   -4.874229   -1.228134    1.176947
 H   -5.337139    0.287414    0.372887
 H   -6.326367   -1.173292    0.155082
 H   -4.892515   -0.763867   -1.862210
 H   -4.423343   -2.279959   -1.050575
 H    0.936169   -3.194558    0.562898
 H   -0.572803   -3.208918   -0.354263
 H    0.976603   -2.958407   -1.201630
 H    3.463751    2.798613    0.183007
 H    0.987507    3.035068    0.137322
 H   -3.351021    2.694849    1.132610
 H   -2.116787    0.231790    2.209455
 H   -3.343964    1.193024    2.900430
