28 
2wvz_ligand_ani.xyz
 C   -1.669155   -0.632947    1.000093
 O   -1.419522   -0.434324    2.383582
 C   -1.915916    0.787539    0.462523
 O   -2.593186    0.823739   -0.782697
 C   -0.625910    1.615869    0.356477
 O   -0.905798    2.868170   -0.223728
 C    0.400600    0.871319   -0.495444
 N    1.739432    1.412471   -0.388904
 C    2.693198    0.480276   -0.104664
 O    3.890297    0.624292   -0.069146
 C    1.897278   -0.812035    0.180212
 O    2.325376   -1.895549    0.507950
 N    0.592742   -0.474283   -0.004329
 C   -0.496677   -1.383703    0.325895
 C   -0.887087   -2.240107   -0.872155
 O   -1.435380   -1.419782   -1.899231
 H   -2.594291   -1.215443    0.848625
 H   -1.292837   -1.293192    2.807420
 H   -2.570316    1.284132    1.185058
 H   -2.240535    0.100665   -1.332863
 H   -0.193081    1.775106    1.350350
 H   -1.574693    2.674376   -0.902417
 H    0.084039    0.860768   -1.546442
 H    1.984236    2.342139   -0.698775
 H   -0.065327   -2.061895    1.069580
 H   -1.625032   -2.987938   -0.549765
 H    0.013651   -2.760516   -1.219691
 H   -1.523314   -1.935157   -2.709920
