28 
2wvz_ligand_xtb.xyz
 C   38.455009   40.347490   25.673306
 O   38.682054   40.589645   27.039471
 C   37.278654   39.358993   25.619866
 O   37.113220   38.865404   24.318218
 C   35.986701   40.026812   26.128629
 O   34.949496   39.083604   25.989197
 C   35.704971   41.308208   25.299434
 N   34.701810   42.143461   25.895924
 C   35.185240   43.324691   26.370277
 O   34.543410   44.179702   26.920586
 C   36.680831   43.288960   26.054498
 O   37.536620   44.079717   26.364852
 N   36.865246   42.151918   25.335245
 C   38.148611   41.653453   24.917268
 C   38.221717   41.490286   23.393016
 O   37.889863   42.729478   22.812986
 H   39.327449   39.861393   25.210163
 H   39.297098   41.326606   27.138306
 H   37.515403   38.535863   26.311706
 H   36.317160   38.317085   24.330032
 H   36.139577   40.314952   27.176011
 H   34.196685   39.349510   26.526193
 H   35.438774   41.017022   24.271876
 H   33.721274   41.915802   25.884780
 H   38.865085   42.433041   25.208261
 H   39.245137   41.190137   23.130838
 H   37.536766   40.700549   23.064930
 H   38.005140   42.674218   21.859131
