37 
2wxn_ligand_dft.xyz
 C   -3.818843    2.918929   -1.084685
 C   -3.928937    1.978622    0.113254
 C   -3.881659    2.717474    1.448661
 N   -2.873289    0.970215    0.059361
 N   -1.572674    1.327712    0.119247
 C   -3.024528   -0.374630   -0.048411
 N   -4.176680   -1.061667   -0.133516
 C   -3.960607   -2.364157   -0.237535
 N   -2.794034   -3.032978   -0.269357
 C   -1.665299   -2.323774   -0.179366
 N   -0.487519   -2.983442   -0.193749
 C   -1.739098   -0.918539   -0.058209
 C    1.757331    0.072708    0.110258
 C    3.184487   -0.030674    0.142292
 C    3.967684    1.043302   -0.288738
 C    3.795590   -1.207154    0.602623
 C    5.180069   -1.293200    0.623718
 C    5.966484   -0.227350    0.195724
 C    5.356742    0.942557   -0.259351
 O    6.063615    2.019339   -0.689860
 C   -0.869322    0.204882    0.050522
 C    0.551622    0.180026    0.085101
 H   -2.868960    3.460931   -1.056402
 H   -3.873251    2.359496   -2.023187
 H   -4.637169    3.645358   -1.065251
 H   -4.854550    1.399631    0.044250
 H   -3.980366    2.016974    2.283079
 H   -2.933427    3.252944    1.553420
 H   -4.700625    3.441348    1.503927
 H   -4.847759   -2.989149   -0.311260
 H   -0.501463   -3.970970   -0.393552
 H    0.379788   -2.474162   -0.262505
 H    3.506912    1.957042   -0.646429
 H    3.183057   -2.033816    0.946427
 H    5.659669   -2.199642    0.979966
 H    7.051196   -0.305050    0.217543
 H    7.007113    1.831345   -0.620193
