37 
2wxn_ligand_ani.xyz
 C    5.662756   -2.578009  -23.061966
 C    5.522924   -2.039381  -24.482797
 C    6.072604   -3.027450  -25.507450
 N    6.192967   -0.742896  -24.606500
 N    7.530761   -0.630212  -24.438449
 C    5.604599    0.458750  -24.867937
 N    4.304148    0.716315  -25.094018
 C    4.082241    2.002726  -25.318683
 N    4.953348    3.023664  -25.341858
 C    6.239018    2.738433  -25.111641
 N    7.148899    3.728942  -25.118822
 C    6.634800    1.399455  -24.863065
 C   10.263275    1.644736  -24.455970
 C   11.580823    2.217358  -24.404129
 C   12.294753    2.214205  -23.204827
 C   12.147215    2.781137  -25.555592
 C   13.416838    3.338420  -25.491288
 C   14.134541    3.339932  -24.299801
 C   13.569744    2.774258  -23.156653
 O   14.218749    2.740452  -21.960360
 C    7.823904    0.653128  -24.592751
 C    9.156268    1.157823  -24.505073
 H    6.718810   -2.749738  -22.825398
 H    5.251687   -1.872326  -22.335527
 H    5.123264   -3.526397  -22.965799
 H    4.471376   -1.834032  -24.695254
 H    5.547215   -3.984658  -25.423044
 H    5.941218   -2.651132  -26.525239
 H    7.140744   -3.197217  -25.332526
 H    3.047188    2.276811  -25.512588
 H    6.851687    4.676210  -25.288281
 H    8.116959    3.518068  -24.933385
 H   11.871925    1.779407  -22.303996
 H   11.593844    2.779080  -26.489013
 H   13.858005    3.779896  -26.380429
 H   15.130079    3.778708  -24.258479
 H   15.083842    3.155549  -22.060419
