32 
2x0y_ligand_xtb.xyz
 C   -0.257720   -1.636322   15.075879
 N    0.910608   -0.785177   15.129001
 C    2.073467   -1.236874   15.715032
 O    2.160909   -2.345335   16.196147
 N    3.155039   -0.362457   15.736343
 C    4.351492   -0.891580   16.370529
 C    3.213742    0.936992   15.230892
 O    4.217421    1.624356   15.321466
 C    1.970500    1.311146   14.633180
 C    0.869880    0.466408   14.600776
 N   -0.173184    1.068179   13.988516
 C    0.278349    2.258339   13.655045
 N    1.560363    2.463737   14.002016
 C    2.358646    3.644633   13.837310
 C    2.469567    4.415241   15.159173
 O    1.215941    4.979487   15.460703
 C    3.537468    5.516525   15.071459
 O    3.534005    6.289630   16.247464
 H   -1.089349   -1.147309   15.582102
 H   -0.534265   -1.816069   14.037266
 H   -0.009589   -2.573690   15.569334
 H    4.673753   -1.795002   15.853887
 H    5.120284   -0.124762   16.312920
 H    4.139757   -1.142578   17.409508
 H   -0.313265    2.996062   13.151716
 H    3.359897    3.349066   13.515053
 H    1.888630    4.282814   13.086690
 H    2.760267    3.707068   15.953762
 H    1.379060    5.770429   15.994463
 H    4.519960    5.071757   14.880695
 H    3.288706    6.208349   14.262666
 H    3.876662    5.755937   16.974005
