92 
2x6x_ligand_xtb.xyz
 C    1.897786    1.511995    1.437045
 C    0.914830    2.281240    2.349822
 C    0.553149    1.403240    3.558285
 C    1.822085    0.670120    4.033141
 C    2.281228   -0.296851    2.929430
 C    3.791426   -0.518246    2.945998
 O    1.500892    3.465899    2.844085
 O    0.003385    2.153795    4.605561
 O    1.558938   -0.054837    5.205657
 O    1.820193    0.126167    1.648121
 C    0.633251   -1.340656   -2.575158
 C    1.744787   -1.975393   -3.444135
 C    3.038155   -2.043576   -2.623342
 C    3.400663   -0.645253   -2.117842
 C    2.217920   -0.101174   -1.306024
 C    2.494129    1.333442   -0.848769
 O    1.388165   -3.235385   -3.927334
 O    4.106778   -2.538399   -3.396496
 O    4.541527   -0.677102   -1.302071
 O    1.035286   -0.087225   -2.099529
 O    1.578891    1.813197    0.117623
 C   -0.881154   -2.979882    1.504303
 C   -0.886678   -1.527265    0.976688
 C   -1.679788   -1.512766   -0.343968
 C   -1.030729   -2.534443   -1.297311
 C   -1.104863   -3.924715   -0.645693
 C   -0.488839   -5.046052   -1.490257
 O   -2.196699   -3.265567    1.892337
 O   -1.390879   -0.696690    1.981097
 O   -1.700130   -0.284245   -1.053139
 O    0.329792   -2.249188   -1.549927
 O   -0.398548   -3.920038    0.586773
 O    0.891432   -4.882847   -1.679927
 C   -2.030780    0.846357   -0.312036
 C   -2.156226    2.038977   -1.269196
 C   -2.517803    3.278523   -0.435620
 C   -3.746713    2.980954    0.452247
 C   -3.553057    1.687710    1.246044
 C   -4.820918    1.268162    1.998603
 C   -0.835020    2.867328   -3.154396
 C    0.464707    2.704724   -3.902315
 N   -0.911233    2.183836   -1.997397
 O   -2.835644    4.409928   -1.203699
 O   -3.973780    4.041013    1.339310
 O   -3.242941    0.627252    0.355940
 O   -4.682652   -0.017104    2.543950
 O   -1.734596    3.595947   -3.546745
 H    2.928862    1.858104    1.661587
 H    0.011485    2.512984    1.771220
 H   -0.196812    0.661257    3.266311
 H    2.603984    1.422850    4.234361
 H    1.770837   -1.251177    3.096607
 H    4.070422   -0.955079    3.899947
 H    4.076959   -1.187702    2.138926
 H    4.324634    0.421280    2.822055
 H    1.619132    4.082597    2.114832
 H    0.487694    2.991038    4.642040
 H    0.870324    0.432362    5.682640
 H   -0.256700   -1.140393   -3.185580
 H    1.908412   -1.340991   -4.323402
 H    2.868694   -2.703141   -1.755888
 H    3.576755    0.006566   -2.990709
 H    2.072722   -0.737044   -0.425904
 H    2.398145    2.004790   -1.704939
 H    3.517533    1.368777   -0.459116
 H    1.200800   -3.819581   -3.163879
 H    3.746984   -3.227055   -3.971752
 H    5.186181   -1.243053   -1.747604
 H   -0.194717   -3.046627    2.361076
 H    0.137535   -1.192406    0.791890
 H   -2.714922   -1.821164   -0.132530
 H   -1.592370   -2.535582   -2.241411
 H   -2.164748   -4.157702   -0.466226
 H   -0.951652   -5.069993   -2.478847
 H   -0.683043   -5.999064   -0.979168
 H   -2.220778   -4.110244    2.356469
 H   -2.254515   -1.028670    2.269630
 H    1.253957   -4.583709   -0.835297
 H   -1.237267    1.072111    0.425380
 H   -2.971644    1.845062   -1.981140
 H   -1.661990    3.518693    0.220563
 H   -4.613226    2.854632   -0.219525
 H   -2.727308    1.814329    1.961920
 H   -4.997414    1.957471    2.823637
 H   -5.674424    1.303317    1.307895
 H    0.864834    1.704351   -3.768273
 H    0.297438    2.911995   -4.955813
 H    1.179370    3.433134   -3.523089
 H   -0.178045    1.528527   -1.757568
 H   -2.561741    4.255062   -2.132557
 H   -3.896155    4.853277    0.819791
 H   -4.433546   -0.598293    1.814705
