92 
2x6x_ligand_ani.xyz
 C    0.066334    2.251171   -1.829469
 C   -1.384178    2.549575   -1.443751
 C   -1.457731    3.674978   -0.407948
 C   -0.259390    4.607931   -0.596135
 C    1.045780    3.846020   -0.349173
 C    2.241823    4.470198   -1.056279
 O   -2.118917    2.956042   -2.592160
 O   -2.656195    4.416650   -0.491309
 O   -0.327574    5.679895    0.313345
 O    0.913869    2.459610   -0.716600
 C    2.153707   -1.980425   -0.141848
 C    3.618802   -2.357128   -0.418011
 C    4.392710   -1.137074   -0.906427
 C    3.678234   -0.466164   -2.066686
 C    2.255120   -0.143772   -1.629221
 C    1.438445    0.544520   -2.715140
 O    4.249431   -2.943397    0.696407
 O    5.681153   -1.517660   -1.341097
 O    4.324917    0.731580   -2.437615
 O    1.588334   -1.367431   -1.275708
 O    0.147273    0.920416   -2.244675
 C    0.768144    1.124437    3.063996
 C   -0.050466    0.555870    1.893844
 C   -0.080611   -0.987067    1.983129
 C    1.354376   -1.503790    2.097239
 C    2.012602   -0.889598    3.325583
 C    3.446887   -1.344789    3.578196
 O   -0.007668    0.923598    4.227160
 O   -1.345272    1.141114    1.901195
 O   -0.615825   -1.622809    0.838368
 O    2.093054   -1.109072    0.955870
 O    2.038515    0.535503    3.184958
 O    4.365978   -0.885923    2.603132
 C   -1.898091   -1.248727    0.449554
 C   -2.340141   -2.123728   -0.725188
 C   -3.793345   -1.765104   -1.106434
 C   -4.696976   -1.695794    0.128061
 C   -4.070273   -0.849705    1.219924
 C   -4.850181   -0.834689    2.528793
 C   -1.336573   -2.700869   -2.906651
 C   -0.203153   -2.408832   -3.862034
 N   -1.392099   -1.905121   -1.813363
 O   -4.416051   -2.699295   -1.949310
 O   -5.946633   -1.153622   -0.221466
 O   -2.788269   -1.397044    1.524670
 O   -4.111442   -0.160279    3.525059
 O   -2.160959   -3.589965   -3.123915
 H    0.371765    2.914241   -2.661506
 H   -1.824705    1.646582   -1.002492
 H   -1.408208    3.235916    0.595152
 H   -0.275236    4.994008   -1.633780
 H    1.219635    3.839038    0.735061
 H    2.359484    5.513483   -0.746562
 H    3.154285    3.922788   -0.806776
 H    2.109723    4.443207   -2.144115
 H   -2.236923    2.177980   -3.151232
 H   -2.938980    4.366965   -1.417563
 H   -1.254911    5.963536    0.301715
 H    1.571028   -2.884564    0.068933
 H    3.632296   -3.112355   -1.213904
 H    4.464645   -0.410057   -0.079443
 H    3.638848   -1.175117   -2.911876
 H    2.288157    0.519856   -0.756923
 H    1.295868   -0.144881   -3.555998
 H    1.980712    1.424090   -3.087440
 H    4.365456   -2.250119    1.374753
 H    6.049327   -2.072346   -0.637315
 H    5.247490    0.499880   -2.613426
 H    0.940180    2.199633    2.906854
 H    0.427042    0.847812    0.955297
 H   -0.640658   -1.286780    2.880583
 H    1.350690   -2.601708    2.187133
 H    1.418440   -1.163512    4.209719
 H    3.485590   -2.439800    3.566102
 H    3.760022   -1.003890    4.572904
 H    0.497843    1.256114    4.981028
 H   -1.701331    1.047119    2.798159
 H    4.087337    0.018452    2.390551
 H   -1.892117   -0.195743    0.119442
 H   -2.319762   -3.176527   -0.408860
 H   -3.783643   -0.767493   -1.585787
 H   -4.796402   -2.724937    0.514707
 H   -3.954074    0.188222    0.866983
 H   -5.794951   -0.302206    2.392391
 H   -5.083767   -1.868274    2.833089
 H    0.758533   -2.442931   -3.343663
 H   -0.229480   -3.144970   -4.666267
 H   -0.317836   -1.405479   -4.290844
 H   -0.583496   -1.322310   -1.614001
 H   -3.728471   -3.138164   -2.492578
 H   -6.277249   -1.696594   -0.951251
 H   -3.260414   -0.620277    3.558548
