32 
2xd9_ligand_ani.xyz
 C    5.800308    0.111319    0.125259
 C    4.305601    0.200547    0.126237
 C    3.485846   -0.835874   -0.082101
 C    2.039256   -0.709579   -0.075189
 C    1.297649    0.435071    0.075006
 S    1.002875   -2.096536   -0.262087
 C   -0.412861   -1.111192   -0.150374
 C   -0.102694    0.210799    0.022109
 C   -1.191168    1.235039    0.313539
 C   -0.781291    2.591790   -0.268070
 O   -1.052487    2.732885   -1.569777
 O   -0.221435    3.448737    0.379089
 O   -1.333842    1.410520    1.711892
 C   -2.547990    0.743213   -0.210686
 C   -2.809854   -0.666862    0.287605
 O   -4.112355   -1.056155   -0.090342
 C   -1.801117   -1.637441   -0.327954
 O   -2.042717   -2.894094    0.265678
 H    6.141196   -0.904698   -0.093571
 H    6.227936    0.789309   -0.621191
 H    6.206395    0.410786    1.097671
 H    3.885125    1.187492    0.319080
 H    3.906496   -1.824749   -0.264773
 H    1.726348    1.423059    0.212563
 H   -0.722360    3.611313   -1.822287
 H   -0.652954    2.050059    1.971953
 H   -3.331028    1.411066    0.158683
 H   -2.563429    0.772174   -1.307076
 H   -2.692081   -0.694071    1.381934
 H   -4.207263   -1.976543    0.193475
 H   -2.030000   -1.686418   -1.411038
 H   -1.527801   -3.560323   -0.206627
