38 
2xda_ligand_dft.xyz
 C    3.971206    0.458881   -0.269425
 C    3.968541   -0.918690    0.353641
 C    2.954209   -1.063108    1.504863
 C    1.532848   -0.867281    1.068670
 C    0.775157    0.259105    1.150404
 S    0.665639   -2.129063    0.237815
 C   -0.708534   -1.106746   -0.009221
 C   -0.502486    0.129604    0.524307
 C   -1.558682    1.211816    0.498642
 C   -0.965067    2.520780   -0.029554
 O   -1.027550    3.563493    0.582461
 O   -0.397030    2.410967   -1.234154
 O   -1.993694    1.441134    1.819131
 C   -2.743147    0.809571   -0.411279
 C   -3.114565   -0.653334   -0.222794
 O   -4.282041   -0.916461   -0.964863
 C   -1.968403   -1.543557   -0.701892
 O   -2.343522   -2.884381   -0.423119
 C    2.983990    0.811318   -1.349099
 C    4.442774    0.655161   -1.686108
 H    4.217912    1.259817    0.426652
 H    3.749331   -1.668233   -0.418556
 H    4.969005   -1.150334    0.740510
 H    3.176080   -0.315882    2.276346
 H    3.078148   -2.045090    1.976585
 H    1.119945    1.166680    1.635006
 H   -0.082073    3.296071   -1.478872
 H   -2.004711    2.404333    1.940966
 H   -3.599655    1.439807   -0.156825
 H   -2.498251    0.976276   -1.466494
 H   -3.271311   -0.856692    0.847209
 H   -4.426264   -1.870201   -0.895031
 H   -1.874283   -1.402314   -1.789944
 H   -1.869030   -3.470100   -1.023461
 H    2.294275    0.036433   -1.671639
 H    2.552276    1.807130   -1.346457
 H    4.743691   -0.227678   -2.244277
 H    5.018348    1.545853   -1.919318
