38 
2xda_ligand_ani.xyz
 C    3.951700    0.551953   -0.545731
 C    4.057439   -0.531573    0.505926
 C    3.033512   -0.361399    1.643616
 C    1.614147   -0.408524    1.170954
 C    0.731459    0.621749    1.053559
 S    0.915380   -1.889708    0.582585
 C   -0.552463   -1.080706    0.145486
 C   -0.506391    0.250628    0.453287
 C   -1.750168    1.118276    0.343774
 C   -1.346566    2.550180   -0.023409
 O   -1.161887    3.418598    0.800126
 O   -1.177318    2.755775   -1.334537
 O   -2.405711    1.186759    1.598915
 C   -2.755673    0.509030   -0.646066
 C   -2.978559   -0.958725   -0.323296
 O   -3.993699   -1.465183   -1.161415
 C   -1.689737   -1.749630   -0.556028
 O   -1.951067   -3.071571   -0.143817
 C    2.935071    0.423498   -1.646790
 C    4.400496    0.287536   -1.951858
 H    4.121280    1.562928   -0.171816
 H    3.917125   -1.514669    0.037946
 H    5.065799   -0.529661    0.936674
 H    3.200740    0.606560    2.133463
 H    3.199518   -1.131342    2.407478
 H    0.959996    1.633552    1.373067
 H   -0.913058    3.686165   -1.428813
 H   -1.933685    1.864458    2.107113
 H   -3.702816    1.048403   -0.559846
 H   -2.390432    0.621889   -1.674055
 H   -3.256338   -1.062022    0.737554
 H   -4.065190   -2.408412   -0.957155
 H   -1.500383   -1.729382   -1.649404
 H   -1.113688   -3.555406   -0.134018
 H    2.338035   -0.487274   -1.636145
 H    2.406454    1.312851   -1.978288
 H    4.780910   -0.703247   -2.186169
 H    4.891502    1.091156   -2.493642
