89 
2xe4_ligand_dft.xyz
 C    5.278456   -1.961034   -1.182270
 C    6.600180   -1.555822   -1.022420
 C    7.257738   -1.782758    0.182470
 C    6.587597   -2.416704    1.225747
 C    5.266998   -2.819935    1.062126
 C    4.598445   -2.596598   -0.142804
 C    3.149743   -2.991328   -0.297275
 C    2.181570   -1.960215    0.307372
 C    2.374910   -0.594589   -0.359261
 O    3.112679    0.234889    0.334135
 O    1.878828   -0.331058   -1.445043
 N    0.811473   -2.405519    0.111468
 C   -0.178278   -1.749369    0.824046
 O    0.004719   -1.381541    1.986454
 N   -1.349297   -1.584843    0.142999
 C   -2.479533   -0.841039    0.690218
 C   -2.143230    0.657507    0.777040
 O   -2.573347    1.441595   -0.080996
 C   -3.047607   -1.419772    1.994744
 C   -3.186529   -2.944083    2.003846
 C   -3.988925   -3.548960    0.847298
 N   -5.327120   -2.998652    0.724347
 C   -5.702440   -2.101375   -0.264070
 N   -6.879660   -1.424532    0.070710
 N   -5.129599   -1.827976   -1.377657
 N   -1.342063    1.043748    1.784875
 C   -0.955401    2.429561    2.026798
 C    0.255394    2.826021    1.142753
 O    1.335566    3.165059    1.634739
 C   -0.770987    2.663841    3.536911
 C    0.338918    1.818652    4.174599
 C   -0.586640    4.152377    3.846178
 N   -0.039078    2.771959   -0.168764
 C    0.785840    2.895998   -1.376313
 C    2.163316    3.524413   -1.151019
 O    3.030340    2.797794   -0.303156
 C    0.031656    3.756291   -2.411521
 C   -1.439428    3.424206   -2.710138
 C   -1.693759    2.162049   -3.532753
 N   -1.280935    0.961503   -2.832899
 C   -1.180885   -0.233294   -3.527391
 N   -0.617462   -1.257482   -2.731300
 N   -1.473562   -0.484770   -4.744732
 H    4.765540   -1.775409   -2.123127
 H    7.115244   -1.062041   -1.841083
 H    8.289096   -1.467613    0.309464
 H    7.094174   -2.596833    2.169279
 H    4.746632   -3.312931    1.880324
 H    2.950662   -3.949830    0.193066
 H    2.908852   -3.112355   -1.361097
 H    2.356940   -1.857086    1.378660
 H    3.142721    1.126424   -0.120894
 H    0.584014   -2.581263   -0.859207
 H   -1.287901   -1.589281   -0.881157
 H   -3.255725   -0.887171   -0.076976
 H   -2.422854   -1.136676    2.844683
 H   -4.026342   -0.948381    2.146433
 H   -2.192381   -3.403941    2.007125
 H   -3.657171   -3.233498    2.953139
 H   -4.054183   -4.634616    0.985749
 H   -3.456854   -3.392631   -0.094444
 H   -5.777232   -2.823277    1.612742
 H   -7.209016   -0.895821   -0.727328
 H   -7.608530   -2.026240    0.435591
 H   -4.255388   -2.332974   -1.500938
 H   -0.837500    0.297412    2.263002
 H   -1.801290    3.040515    1.689943
 H   -1.726724    2.347614    3.977156
 H    0.198207    0.744147    4.012417
 H    1.315910    2.098147    3.776439
 H    0.343788    1.981025    5.257724
 H    0.365735    4.517090    3.453672
 H   -0.596742    4.314411    4.928959
 H   -1.395000    4.752627    3.411903
 H   -0.985742    2.446138   -0.352416
 H    0.935670    1.886156   -1.771709
 H    2.047406    4.546545   -0.765424
 H    2.652658    3.588178   -2.126723
 H    2.658378    2.953055    0.596231
 H    0.596121    3.714728   -3.352059
 H    0.071352    4.798024   -2.065416
 H   -2.032299    3.385569   -1.788659
 H   -1.852457    4.263597   -3.281857
 H   -1.114600    2.217049   -4.462904
 H   -2.758800    2.127972   -3.812841
 H   -1.672110    0.875170   -1.898235
 H   -0.500979   -2.071451   -3.328159
 H    0.290540   -0.952979   -2.367637
 H   -1.973678    0.290518   -5.175260
