80 
2xei_ligand_ani.xyz
 O   -0.556292   -1.181967   -2.412425
 C   -1.590370   -2.020103   -2.273234
 O   -1.463751   -3.166118   -1.893313
 C   -2.903731   -1.356583   -2.629022
 C   -4.143175   -2.094597   -2.126256
 C   -4.324916   -2.078442   -0.590594
 C   -5.741103   -2.524197   -0.265261
 O   -6.617512   -1.528610   -0.509597
 O   -6.070319   -3.617553    0.116290
 N   -3.369072   -2.878197    0.124055
 C   -2.385719   -2.250714    0.855621
 O   -2.504523   -1.104554    1.269118
 N   -1.273424   -3.029548    1.135092
 C   -0.174892   -2.387170    1.836544
 C    0.404464   -1.269311    0.973625
 O    0.865354   -1.476876   -0.144205
 O    0.392810   -0.095424    1.557059
 C    0.878845   -3.441348    2.187070
 C    2.060716   -2.959960    3.040853
 C    3.138670   -2.122065    2.338785
 C    3.725718   -2.808982    1.103498
 N    4.793025   -2.039328    0.480710
 C    4.765295   -1.404984   -0.717132
 N    5.969933   -1.863992    1.076494
 N    6.705539   -1.122778    0.296822
 C    5.999947   -0.814025   -0.821625
 C    6.535781    0.066340   -1.909391
 O    5.692816    1.167617   -2.201537
 C    5.734263    2.220692   -1.255085
 C    4.657785    2.141968   -0.173409
 O    3.360149    2.386753   -0.665252
 C    2.685994    1.238988   -1.146997
 C    1.245486    1.646862   -1.365790
 N    0.707687    2.073107   -0.061947
 C   -0.649818    2.448727   -0.005208
 C   -1.593785    1.519255   -0.462373
 C   -2.953880    1.751658   -0.355697
 C   -3.385758    2.941262    0.213410
 N   -4.826719    3.178271    0.338126
 O   -5.576872    2.300808   -0.058035
 O   -5.190459    4.233021    0.829557
 C   -2.495118    3.894446    0.667648
 C   -1.127415    3.646123    0.568224
 N   -0.246061    4.686658    1.089687
 O    0.967904    4.485785    1.129206
 O   -0.752552    5.724274    1.473730
 H    0.192013   -1.561306   -1.905642
 H   -2.879939   -0.322973   -2.257395
 H   -2.932687   -1.283263   -3.724172
 H   -5.028058   -1.624269   -2.568262
 H   -4.112860   -3.134149   -2.472022
 H   -4.214671   -1.052164   -0.221749
 H   -7.499310   -1.883604   -0.308389
 H   -3.155818   -3.784999   -0.264643
 H   -1.004323   -3.665906    0.390472
 H   -0.570940   -1.928620    2.745250
 H    0.657488    0.641624    0.910556
 H    0.350622   -4.231123    2.732437
 H    1.237989   -3.900487    1.255264
 H    2.543650   -3.849743    3.465840
 H    1.669852   -2.392836    3.896625
 H    3.956402   -1.932094    3.043993
 H    2.744266   -1.139394    2.055141
 H    4.118823   -3.799483    1.358321
 H    2.961007   -2.925171    0.334785
 H    3.885676   -1.405426   -1.348292
 H    7.542741    0.395808   -1.620331
 H    6.619366   -0.484877   -2.853988
 H    6.722049    2.258888   -0.768878
 H    5.593490    3.150913   -1.817810
 H    4.705174    1.179384    0.356242
 H    4.864824    2.930669    0.562616
 H    2.706014    0.443518   -0.387475
 H    3.153378    0.869822   -2.070382
 H    1.188143    2.462155   -2.096431
 H    0.668931    0.799692   -1.746995
 H    1.296183    2.797255    0.345797
 H   -1.226385    0.576307   -0.862873
 H   -3.694273    1.025760   -0.668201
 H   -2.838895    4.820443    1.103312
