86 
2xfi_ligand_ani.xyz
 C    0.201994    0.738367    2.792491
 C    1.142517    1.120758    1.651137
 N    2.577577    0.925174    2.006700
 C    3.410969    0.104049    1.091711
 C    3.915709   -1.173485    1.828356
 O    3.299741   -1.286746    3.102723
 C    3.768752   -2.493469    1.017486
 C    4.956276   -2.778901    0.082296
 C    5.218588   -1.752563   -0.999294
 C    6.089878   -0.683147   -0.766489
 C    6.329728    0.276311   -1.745756
 C    5.712626    0.175051   -2.988886
 C    4.863191   -0.896288   -3.244499
 C    4.621819   -1.850912   -2.259569
 N    2.524772   -2.598915    0.264883
 C    1.294040   -2.601232    0.823153
 O    1.114659   -2.493205    2.041014
 C    0.151364   -2.679197   -0.139734
 C    0.177747   -3.514232   -1.257446
 C   -0.924449   -3.583406   -2.101328
 C   -2.049159   -2.804617   -1.849200
 C   -2.056873   -1.939019   -0.757956
 C   -0.973547   -1.899146    0.115095
 N   -3.220234   -1.117208   -0.563596
 C   -4.463190   -1.824577   -0.397281
 C   -4.652809   -2.682947    0.685194
 C   -5.863547   -3.357339    0.824743
 C   -6.871341   -3.195482   -0.122189
 C   -6.671005   -2.353840   -1.211236
 C   -5.468094   -1.669270   -1.350487
 S   -3.028653    0.365564    0.242974
 C   -4.389010    1.321324   -0.380252
 O   -3.205476    0.193515    1.678033
 O   -1.802200    0.969505   -0.262582
 C    1.013542    2.619623    1.307640
 O    1.915911    3.387781    1.628756
 N   -0.123326    3.001073    0.698084
 C   -0.365181    4.378921    0.310327
 C    0.440809    4.772874   -0.935167
 C    0.103193    6.192966   -1.392532
 C   -1.398231    6.353057   -1.647624
 C   -2.207295    5.978363   -0.403116
 C   -1.866499    4.562310    0.066683
 H    0.374070    1.358434    3.680231
 H    0.357540   -0.311184    3.063567
 H   -0.841597    0.858860    2.489480
 H    0.901444    0.510026    0.768753
 H    2.928848    1.903694    2.080605
 H    2.669827    0.425253    2.912163
 H    2.834364   -0.147253    0.201712
 H    4.265292    0.688555    0.743209
 H    4.986711   -1.050879    2.049696
 H    2.476269   -1.804077    2.970438
 H    3.746059   -3.277908    1.783109
 H    5.855252   -2.883240    0.702992
 H    4.788231   -3.765056   -0.368885
 H    6.579673   -0.589271    0.202791
 H    7.006496    1.101316   -1.538642
 H    5.899425    0.922560   -3.755169
 H    4.379762   -0.992115   -4.213598
 H    3.971854   -2.694774   -2.488027
 H    2.587260   -2.554082   -0.742466
 H    1.046943   -4.139977   -1.451906
 H   -0.905728   -4.244866   -2.963721
 H   -2.921648   -2.852174   -2.496449
 H   -0.995670   -1.273275    1.005640
 H   -3.861566   -2.812276    1.421938
 H   -6.014750   -4.018059    1.673976
 H   -7.812762   -3.727985   -0.011984
 H   -7.450986   -2.226128   -1.956060
 H   -5.297473   -0.998479   -2.189359
 H   -4.313638    1.381106   -1.468897
 H   -5.331568    0.859079   -0.074866
 H   -4.312783    2.319772    0.057792
 H   -0.775077    2.293163    0.376969
 H   -0.046416    5.026702    1.138098
 H    0.210064    4.060340   -1.740940
 H    1.508463    4.676442   -0.711080
 H    0.416705    6.904683   -0.614517
 H    0.676623    6.443099   -2.292965
 H   -1.628510    7.377702   -1.964091
 H   -1.691705    5.693675   -2.477558
 H   -1.981535    6.689966    0.404323
 H   -3.282320    6.061303   -0.600986
 H   -2.415630    4.319893    0.986775
 H   -2.175041    3.835315   -0.703355
