64 
2xg3_ligand_xtb.xyz
 O    4.970222    1.196511    1.391447
 C    4.963033    0.393534    0.478271
 N    3.808746   -0.067642   -0.082018
 C    6.212490   -0.125789   -0.145058
 C    6.276417   -0.557774   -1.467023
 C    7.363799   -0.146773    0.637261
 C    8.554670   -0.617196    0.116945
 C    8.609592   -1.057193   -1.195369
 C    7.472766   -1.018317   -1.986506
 C    0.078851   -0.274667    0.339946
 C    1.450241   -0.554668   -0.289780
 C    2.514026    0.190425    0.516283
 C    2.172794    1.697649    0.505565
 C    0.746197    1.889028    1.038199
 C    0.271847    3.343481    0.909385
 O    1.745359   -1.926615   -0.304517
 O    2.245058    2.222142   -0.797859
 O   -0.189468    1.103689    0.313685
 O   -0.983923    3.540587    1.492652
 C   -4.933798   -1.639131   -0.512441
 C   -4.542354   -0.150677   -0.393165
 C   -3.079588    0.018901   -0.802333
 C   -2.208561   -0.893583    0.079344
 C   -2.757354   -2.334234    0.086947
 C   -2.047549   -3.175824    1.159083
 C   -6.569548    1.164057   -0.650572
 C   -7.245301    2.228004   -1.477392
 N   -5.401176    0.713718   -1.168943
 O   -6.251912   -1.885835   -0.250766
 O   -2.734686    1.373521   -0.687647
 O   -0.875083   -0.935429   -0.425175
 O   -4.126213   -2.362143    0.407221
 O   -2.242376   -2.638957    2.435908
 O   -7.024112    0.716395    0.384738
 H    3.844772   -0.915471   -0.627963
 H    5.403613   -0.512507   -2.102409
 H    7.300844    0.209908    1.654172
 H    9.441336   -0.637983    0.732564
 H    9.538813   -1.423782   -1.605483
 H    7.519331   -1.346984   -3.014280
 H    0.064005   -0.637465    1.388216
 H    1.426775   -0.148669   -1.313781
 H    2.503534   -0.165509    1.556774
 H    2.869117    2.221267    1.173021
 H    0.721838    1.583329    2.095636
 H    0.271080    3.609072   -0.154157
 H    0.967928    3.993260    1.442217
 H    0.979791   -2.386062   -0.669906
 H    3.158122    2.140025   -1.097761
 H   -1.630753    2.987510    1.035703
 H   -4.723018   -2.011988   -1.531848
 H   -4.657836    0.125965    0.665909
 H   -2.953855   -0.311012   -1.849794
 H   -2.209722   -0.507508    1.105803
 H   -2.584736   -2.772777   -0.909462
 H   -0.971063   -3.180683    0.977218
 H   -2.429328   -4.203094    1.101124
 H   -8.201309    2.478867   -1.027852
 H   -7.405154    1.867236   -2.490597
 H   -6.621057    3.118142   -1.515623
 H   -4.991355    1.176477   -1.963903
 H   -6.600288   -1.220785    0.372100
 H   -1.766998    1.430599   -0.612356
 H   -3.196372   -2.588355    2.580394
