56 
2xg5_ligand_dft.xyz
 O    4.944730   -1.043642   -1.726857
 C    3.778307   -1.316670   -1.580267
 O    3.266520   -2.533622   -1.775868
 C    2.739891   -0.278068   -1.157431
 C    3.194615    0.464660    0.110103
 C    2.670281    1.880261    0.209639
 C    1.302540    2.178941    0.177527
 C    0.870289    3.498475    0.225616
 C    1.792465    4.538698    0.319433
 C    3.151771    4.250692    0.361419
 C    3.585527    2.928638    0.303860
 S    2.601267   -0.642006    1.467388
 N    1.444962   -0.845267   -0.847465
 C    0.498684   -1.040123   -1.871197
 O    0.798802   -0.789328   -3.030391
 C    1.229756   -1.138038    0.470500
 C    0.046655   -1.649315    0.917869
 C   -0.141700   -1.956400    2.367125
 C    0.824820   -2.870180    3.085205
 C   -0.573292   -3.334993    2.805453
 C   -1.010013   -1.750562   -0.055257
 C   -0.780526   -1.477831   -1.371976
 C   -2.428580   -2.063695    0.399124
 C   -3.452160   -1.117786   -0.191739
 C   -4.404095   -1.583282   -1.064993
 C   -5.358238   -0.718863   -1.651878
 C   -5.345264    0.616796   -1.360778
 C   -4.380950    1.148002   -0.463070
 C   -3.426255    0.277749    0.134807
 C   -4.349010    2.532818   -0.154152
 C   -3.416586    3.043421    0.711187
 C   -2.472062    2.182637    1.313214
 C   -2.478840    0.839805    1.031946
 H    3.999197   -3.097245   -2.072583
 H    2.624220    0.409761   -1.999692
 H    4.285214    0.467945    0.143484
 H    0.560584    1.388649    0.111138
 H   -0.194464    3.708678    0.183559
 H    1.450845    5.568742    0.358370
 H    3.879952    5.052785    0.434494
 H    4.650603    2.711737    0.328010
 H   -0.530027   -1.136520    2.972457
 H    1.093829   -2.618359    4.105846
 H    1.627313   -3.314766    2.503884
 H   -0.707141   -4.084473    2.030759
 H   -1.273320   -3.409975    3.631779
 H   -1.581212   -1.519140   -2.101673
 H   -2.479784   -2.032158    1.491120
 H   -2.679404   -3.091701    0.113270
 H   -4.424926   -2.640840   -1.316148
 H   -6.094222   -1.124083   -2.339616
 H   -6.069072    1.290565   -1.811670
 H   -5.082280    3.186023   -0.620300
 H   -3.403481    4.105371    0.938090
 H   -1.735389    2.584144    2.003263
 H   -1.740635    0.201834    1.503393
