24 
2xib_ligand_ani.xyz
 C   -0.365481    1.714760    0.140069
 C   -1.348941    0.556418    0.249351
 C   -0.859834   -0.672472   -0.530143
 C    0.604722   -0.986862   -0.240452
 C    1.462623    0.236346   -0.553047
 C    2.959959   -0.004803   -0.442700
 O    0.765998   -1.205376    1.163534
 O   -1.587695   -1.832977   -0.130965
 O   -2.591883    1.024368   -0.249436
 N    0.995869    1.241528    0.454437
 H   -0.413044    2.091281   -0.888458
 H   -0.673146    2.521999    0.807109
 H   -1.445777    0.254596    1.303278
 H   -0.980983   -0.478726   -1.607059
 H    0.917008   -1.872346   -0.811435
 H    1.224040    0.606332   -1.554435
 H    3.229337   -0.422704    0.532759
 H    3.291779   -0.706184   -1.215006
 H    3.501476    0.937990   -0.585236
 H    0.084309   -1.850344    1.408220
 H   -2.467230   -1.788292   -0.525534
 H   -3.270717    0.403668    0.042508
 H    0.945797    0.663041    1.330553
 H    1.676416    2.000557    0.578139
