51 
2xii_ligand_dft.xyz
 C    2.320938    0.838721    0.090704
 C    1.854468   -0.559500   -0.154112
 O    0.698962   -0.970706   -0.194715
 C    3.079682   -1.372782   -0.315026
 C    3.202311   -2.727406   -0.571418
 C    4.489682   -3.259549   -0.673746
 C    5.604387   -2.438275   -0.517432
 C    5.473607   -1.068108   -0.254538
 C    4.199872   -0.542189   -0.154488
 C    3.725145    0.838179    0.115774
 C    4.418269    2.005302    0.379178
 C    3.687366    3.172164    0.631278
 C    2.295762    3.175392    0.612466
 C    1.596065    1.999359    0.326958
 C    0.095821    1.973562    0.315301
 O   -0.574423    2.001721    1.339493
 N   -0.469418    1.862359   -0.918327
 C   -1.907059    1.816259   -1.069198
 C   -2.490823    0.405241   -0.904722
 N   -1.931605   -0.246949    0.321109
 C   -2.472485   -1.618985    0.605272
 C   -1.769346   -2.192536    1.825908
 C   -3.984709   -1.503787    0.761591
 O   -4.218353   -0.664556    1.867514
 C   -4.623251   -0.905103   -0.496548
 O   -5.999375   -0.650646   -0.273369
 C   -4.014790    0.457742   -0.818172
 O   -4.454533    0.943609   -2.057965
 H    2.321507   -3.350846   -0.688448
 H    4.625490   -4.316942   -0.873905
 H    6.597057   -2.869299   -0.600472
 H    6.356004   -0.447728   -0.133702
 H    5.503119    2.024322    0.402960
 H    4.215045    4.095096    0.848845
 H    1.750569    4.090442    0.819096
 H    0.124253    1.854952   -1.734057
 H   -2.189559    2.184154   -2.055984
 H   -2.349906    2.480991   -0.321133
 H   -2.190594   -0.230392   -1.745000
 H   -2.072002    0.365606    1.135589
 H   -0.900717   -0.337858    0.197807
 H   -2.240313   -2.215916   -0.283204
 H   -1.979356   -1.593378    2.715555
 H   -2.134545   -3.206746    2.007046
 H   -0.689668   -2.242517    1.662054
 H   -4.387774   -2.513997    0.933621
 H   -5.159121   -0.432620    1.856209
 H   -4.472420   -1.572172   -1.356842
 H   -6.510937   -1.451498   -0.442273
 H   -4.293508    1.142110   -0.001999
 H   -5.419170    0.998765   -2.019074
