48 
2xj2_ligand_ani.xyz
 C    1.177138    1.859729   -0.323927
 N    1.541358    0.602895   -0.612795
 C    2.815148    0.368495   -0.907472
 C    3.741740    1.423462   -0.941559
 N    3.381225    2.678470   -0.703050
 C    2.101415    2.900968   -0.388586
 N    3.198329   -0.944655   -1.150679
 C    2.135782   -1.895285   -1.445126
 C    1.180109   -2.305085   -0.294162
 N    1.513576   -1.732473    1.047777
 C    2.806215   -2.272342    1.584190
 C    4.035996   -1.472091    1.155694
 C    4.303876   -1.464773   -0.354928
 C    0.390501   -1.929180    1.980279
 C   -2.939715    2.233343    0.809672
 C   -2.043005    3.253535    1.107956
 C   -0.705437    3.156013    0.743913
 C   -0.246899    2.019421    0.076230
 C   -1.147175    0.994044   -0.202759
 C   -2.499775    1.088594    0.140541
 C   -3.385561   -0.024157   -0.233419
 C   -4.703275   -0.139353   -0.039556
 C   -5.398791   -1.348018   -0.528482
 O   -4.882847   -2.282911   -1.100185
 O   -6.721583   -1.307742   -0.267572
 H    4.783186    1.237858   -1.194157
 H    1.819307    3.933642   -0.199302
 H    2.627491   -2.789289   -1.842183
 H    1.540480   -1.476365   -2.261613
 H    0.169103   -1.969426   -0.538022
 H    1.132731   -3.397657   -0.207615
 H    1.600801   -0.713199    0.887972
 H    2.897513   -3.317930    1.266098
 H    2.739018   -2.265569    2.675720
 H    4.913343   -1.883491    1.668767
 H    3.923319   -0.437517    1.505420
 H    4.498009   -2.484966   -0.705902
 H    5.202748   -0.874136   -0.565912
 H    0.167150   -2.997120    2.091483
 H    0.638573   -1.516739    2.961395
 H   -0.496498   -1.417962    1.595536
 H   -3.981249    2.336719    1.102528
 H   -2.394224    4.139955    1.629372
 H   -0.025996    3.964127    1.001108
 H   -0.787693    0.108938   -0.716475
 H   -2.889995   -0.849969   -0.744448
 H   -5.305479    0.615753    0.457134
 H   -7.087352   -2.134001   -0.624607
