35 
2xj7_ligand_xtb.xyz
 O   -1.868265   -1.278774   -0.993860
 C   -2.720181   -0.800203   -0.244386
 C   -4.173578   -1.103250   -0.421734
 N   -2.402092    0.009812    0.783599
 C   -1.070687    0.541838    1.066912
 C   -0.624835    1.539649   -0.040079
 O   -0.902911    2.866590    0.320688
 C    0.902020    1.475817   -0.256860
 O    1.279376    2.307615   -1.314316
 C   -0.031005   -0.569239    1.267802
 N    0.501869   -1.002279   -0.038401
 C    1.333917    0.062766   -0.655345
 C    1.345581   -2.229555    0.032542
 C    2.745071   -1.827197   -0.443486
 C    2.766312   -0.305528   -0.243916
 O    2.952879    0.049704    1.105829
 H   -4.805118   -0.574164    0.284380
 H   -4.326135   -2.175988   -0.313618
 H   -4.465404   -0.846978   -1.438905
 H   -3.156682    0.355736    1.355372
 H   -1.149477    1.105352    2.000669
 H   -1.114633    1.282859   -0.990443
 H   -1.831706    3.081179    0.184566
 H    1.395201    1.785251    0.675170
 H    1.005863    3.210946   -1.108021
 H    0.798723   -0.214580    1.881777
 H   -0.507210   -1.422277    1.756375
 H   -0.400290   -1.168283   -0.617494
 H    1.251095   -0.006358   -1.743779
 H    0.908848   -3.008587   -0.590681
 H    1.378167   -2.577868    1.064314
 H    2.889729   -2.062029   -1.496108
 H    3.522446   -2.322079    0.133912
 H    3.492698    0.194716   -0.890294
 H    3.891117    0.038749    1.320995
