44 
2xjg_ligand_ani.xyz
 C   -2.008058    3.140686    0.796053
 C   -3.067447    2.105923    0.421272
 C   -4.168044    2.060565    1.490095
 C   -2.474586    0.727533    0.180338
 C   -1.246949    0.321854    0.684682
 C   -0.723140   -0.960599    0.501872
 C    0.616646   -1.332764    1.077757
 O    0.789040   -2.328454    1.758767
 N    1.652987   -0.471630    0.803302
 C    2.988163   -0.810784    1.308975
 C    3.911689   -0.101967    0.350876
 C    5.298732   -0.103710    0.307199
 C    5.938027    0.632937   -0.689767
 C    5.196826    1.356835   -1.622296
 C    3.803322    1.359647   -1.571291
 C    3.175236    0.626962   -0.577014
 C    1.697940    0.489873   -0.301233
 C   -1.475545   -1.884944   -0.228454
 O   -0.979160   -3.127268   -0.432532
 C   -2.712203   -1.511377   -0.764036
 C   -3.203196   -0.223623   -0.558816
 O   -4.397095    0.200376   -1.057316
 C   -5.149684   -0.704815   -1.831147
 H   -1.584380    2.935328    1.786491
 H   -1.189105    3.150856    0.068121
 H   -2.447670    4.143459    0.827992
 H   -3.535745    2.418276   -0.520247
 H   -4.968095    1.376300    1.197616
 H   -3.757174    1.720879    2.448032
 H   -4.598963    3.057473    1.633429
 H   -0.644778    1.024533    1.254555
 H    3.114347   -1.898297    1.318871
 H    3.104217   -0.465576    2.343776
 H    5.880129   -0.667156    1.034823
 H    7.024269    0.641945   -0.739277
 H    5.708839    1.925739   -2.394692
 H    3.225767    1.927664   -2.298581
 H    1.253216    1.451722   -0.015943
 H    1.135017    0.120336   -1.164351
 H   -1.618111   -3.627121   -0.957770
 H   -3.277830   -2.240135   -1.338375
 H   -4.597346   -1.026451   -2.723705
 H   -5.438451   -1.588463   -1.247187
 H   -6.047717   -0.166524   -2.138441
