46 
2xk3_ligand_xtb.xyz
 C   -1.988232   -3.196842   -1.867560
 C   -1.882798   -2.402475   -0.571839
 C   -2.841570   -1.206935   -0.533377
 C   -4.283108   -1.582892   -0.353653
 C   -4.964961   -0.863813    0.524293
 S   -4.042204    0.362501    1.361866
 C   -2.470744   -0.260331    0.628175
 C   -1.573431    0.847496    0.183401
 C   -2.001105    1.918044   -0.585463
 N   -1.158926    2.849707   -1.002472
 C    0.126552    2.726660   -0.678677
 N    0.967240    3.668952   -1.201553
 C    0.575717    1.638120    0.110250
 C    2.029136    1.481559    0.477954
 C    2.263792    0.533691    1.658033
 C    2.025936   -0.934784    1.314818
 C    2.800089   -1.368164    0.071318
 C    4.291118   -1.433135    0.322875
 O    4.859657   -1.168668    1.347622
 O    4.955641   -1.865811   -0.761658
 C    2.493221   -0.429461   -1.101700
 C    2.837305    1.011480   -0.742371
 N   -0.288739    0.735622    0.523036
 H   -1.269841   -4.013252   -1.866349
 H   -1.780262   -2.558822   -2.724205
 H   -2.982343   -3.619573   -1.987932
 H   -0.862574   -2.024564   -0.466958
 H   -2.088712   -3.054204    0.280299
 H   -2.743082   -0.660415   -1.483538
 H   -4.720826   -2.363200   -0.951324
 H   -6.006807   -0.945124    0.771046
 H   -1.966711   -0.817342    1.423399
 H   -3.037394    2.050321   -0.864309
 H    0.496792    4.467707   -1.597894
 H    1.831253    3.856269   -0.721512
 H    2.400491    2.472967    0.773080
 H    3.295584    0.652742    1.992234
 H    1.603404    0.814667    2.479543
 H    2.330799   -1.547708    2.164569
 H    0.962695   -1.086132    1.134968
 H    2.503298   -2.385063   -0.211977
 H    5.906071   -1.914759   -0.573399
 H    3.058921   -0.740516   -1.981251
 H    1.429091   -0.500258   -1.334360
 H    3.901681    1.083618   -0.506168
 H    2.632829    1.659194   -1.597446
