58 
2xk7_ligand_ani.xyz
 C    7.177957   -0.050122   -0.722107
 C    5.749374    0.260991   -1.163068
 C    4.736754    0.316872   -0.012676
 C    3.377402    0.805205   -0.521660
 N    2.406767    0.920851    0.582966
 C    1.208054    1.579493    0.276794
 N    0.081373    0.897426    0.272787
 C   -1.055587    1.563679   -0.008261
 C   -2.298867    0.762498   -0.026839
 C   -2.209147   -0.611576   -0.265634
 C   -3.360251   -1.391089   -0.327270
 O   -3.377264   -2.730993   -0.527857
 C   -2.140505   -3.368681   -0.754547
 C   -4.620530   -0.790789   -0.155784
 O   -5.752661   -1.547264   -0.280201
 C   -6.315437   -1.918412    0.970683
 C   -4.695231    0.570204    0.144152
 O   -5.903812    1.147845    0.433266
 C   -6.784488    1.250795   -0.680829
 C   -3.545104    1.347123    0.197299
 C   -1.024729    2.920045   -0.296322
 N    0.112061    3.631170   -0.276889
 C    1.221588    2.985146    0.023881
 N    2.416124    3.686716    0.063593
 C    2.210910   -0.364335    1.258811
 C    3.520346   -0.850242    1.855895
 C    4.601101   -0.998775    0.772372
 C    4.266963   -2.207131   -0.085434
 O    3.701697   -2.208313   -1.154849
 O    4.633732   -3.355946    0.520333
 H    7.864274   -0.012994   -1.574047
 H    7.527654    0.676234    0.021444
 H    7.262184   -1.048482   -0.279222
 H    5.737592    1.234603   -1.670404
 H    5.414644   -0.478415   -1.899948
 H    5.093640    1.059412    0.717268
 H    3.001214    0.116653   -1.293742
 H    3.490490    1.789146   -0.983998
 H   -1.225775   -1.048421   -0.393649
 H   -1.641588   -2.965261   -1.645423
 H   -1.473192   -3.262300    0.110827
 H   -2.366647   -4.423995   -0.911077
 H   -6.553317   -1.029276    1.566591
 H   -7.229359   -2.474421    0.751139
 H   -5.621044   -2.562291    1.524342
 H   -6.356951    1.905277   -1.451233
 H   -7.706925    1.695129   -0.300976
 H   -6.993630    0.265821   -1.108979
 H   -3.656579    2.397758    0.445418
 H   -1.926472    3.460263   -0.571920
 H    3.047245    3.350482    0.781927
 H    2.264302    4.687684    0.099931
 H    1.808569   -1.108581    0.554164
 H    1.460091   -0.234143    2.041989
 H    3.861453   -0.126578    2.605104
 H    3.372854   -1.808093    2.365610
 H    5.546827   -1.241986    1.267483
 H    4.347192   -4.074396   -0.068084
