29 
2xm1_ligand_ani.xyz
 O    3.291551    1.086699   -0.388772
 C    3.196654   -0.052879    0.069630
 C    4.424536   -0.796196    0.544912
 N    2.024053   -0.715966    0.180079
 C    0.763474   -0.289862   -0.412269
 C    0.201194    1.010313    0.195893
 O    0.836719    2.159281   -0.300961
 C   -1.267088    1.186277   -0.176619
 O   -1.771175    2.372403    0.388795
 C   -2.089663    0.015697    0.320802
 C   -3.539428    0.080416   -0.143566
 O   -4.169972   -1.089732    0.353539
 N   -1.523498   -1.225372   -0.178482
 C   -0.189170   -1.491439   -0.264124
 O    0.246320   -2.631022   -0.265157
 H    4.984340   -0.143861    1.220081
 H    5.067270   -1.000260   -0.317095
 H    4.197652   -1.737652    1.053506
 H    2.048139   -1.709626    0.382697
 H    0.901878   -0.101489   -1.488663
 H    0.294768    0.957022    1.295295
 H    1.798083    1.973071   -0.357209
 H   -1.323045    1.227981   -1.279822
 H   -1.135337    3.064494    0.156052
 H   -2.084383    0.036301    1.423305
 H   -4.019524    0.993918    0.232674
 H   -3.556048    0.099846   -1.244352
 H   -5.016564   -1.192654   -0.094063
 H   -2.131718   -2.032720   -0.101090
