30 
2xm2_ligand_ani.xyz
 C   -0.800743    0.098439   -0.403365
 C   -0.353995   -1.209302    0.286753
 C    1.088135   -1.552485   -0.074415
 C    1.988173   -0.370045    0.199043
 C    3.444190   -0.542432   -0.207949
 C   -3.250445    0.093166   -0.065892
 C   -4.445490    0.894866    0.396021
 N   -2.034892    0.638298    0.148872
 O    1.143020    3.115648    0.213237
 O   -1.104336   -2.330159   -0.097270
 O    1.529655   -2.647941    0.688842
 O    1.515226    0.752660   -0.580616
 O    4.135295    0.661901    0.015203
 C    0.270107    1.149461   -0.255259
 O   -3.403936   -1.001925   -0.611404
 N   -0.000665    2.324032    0.159430
 H   -0.930895   -0.133361   -1.470845
 H   -0.415674   -1.049872    1.377353
 H    1.120201   -1.776175   -1.154962
 H    1.934933   -0.095768    1.263251
 H    3.912477   -1.323265    0.397341
 H    3.495210   -0.855924   -1.265432
 H   -5.025767    0.280953    1.090351
 H   -5.082990    1.095993   -0.469647
 H   -4.183216    1.839831    0.879747
 H   -1.950983    1.581111    0.513213
 H    0.786863    3.960526    0.513583
 H   -2.018582   -2.042487   -0.303358
 H    0.876971   -3.349569    0.552111
 H    3.571354    1.360204   -0.354372
