46 
2xnn_ligand_ani.xyz
 C   -3.826456    0.207708   -1.427440
 C   -2.464933    0.102138   -0.765112
 O   -2.102896    1.445595   -0.403436
 C   -0.783881    1.733206   -0.233875
 C    0.246583    0.777832   -0.025822
 C    1.463900    1.375960    0.162524
 N    2.666893    0.729652    0.452539
 C    3.626557    1.124199    1.374764
 N    4.646083    0.330541    1.455947
 C    4.381905   -0.680762    0.535545
 C    5.145289   -1.804366    0.208259
 C    4.651414   -2.669950   -0.753842
 C    3.420665   -2.428481   -1.389146
 C    2.651737   -1.315723   -1.077764
 C    3.153290   -0.456890   -0.100925
 S    1.394740    3.097901    0.040942
 C   -0.319497    3.034633   -0.223526
 C   -1.022072    4.322707   -0.409948
 N   -2.355934    4.245300   -0.664266
 O   -0.419190    5.383958   -0.342916
 C   -2.517630   -0.782139    0.476274
 C   -2.951630   -0.225373    1.680647
 C   -3.070071   -0.999691    2.830862
 C   -2.760583   -2.353647    2.789573
 C   -2.331582   -2.923567    1.595846
 C   -2.213627   -2.149324    0.444435
 C   -1.716754   -2.818464   -0.815645
 F   -1.548423   -4.142002   -0.667812
 F   -0.521073   -2.317539   -1.207840
 F   -2.559745   -2.646042   -1.856478
 H   -4.569549    0.568410   -0.706079
 H   -3.777616    0.912822   -2.263468
 H   -4.143729   -0.767902   -1.803360
 H   -1.716838   -0.259921   -1.471628
 H    0.109706   -0.299552   -0.017287
 H    3.492975    2.016649    1.976549
 H    6.096188   -1.981774    0.702229
 H    5.227197   -3.551534   -1.022555
 H    3.060686   -3.127766   -2.138228
 H    1.704512   -1.137377   -1.580311
 H   -2.836522    3.360331   -0.669878
 H   -2.858749    5.112723   -0.758079
 H   -3.192620    0.832531    1.709712
 H   -3.407629   -0.543174    3.758315
 H   -2.852611   -2.966048    3.682201
 H   -2.086427   -3.979508    1.543162
