69 
2xno_ligand_ani.xyz
 C    5.480950    1.584961    1.601218
 N    4.843824    0.464551    0.899381
 C    3.426699    0.236218    1.346373
 C    2.896371   -1.047223    0.722676
 C    2.969523   -0.990649   -0.802959
 O    2.651798   -2.253581   -1.384438
 C    1.378823   -2.729541   -1.312845
 C    1.246427   -4.096432   -1.642235
 C    0.024391   -4.735751   -1.612309
 C   -1.106716   -3.995049   -1.248831
 N   -2.433463   -4.378391   -1.096371
 C   -3.046298   -3.293127   -0.714457
 N   -2.228855   -2.193960   -0.611502
 C   -2.579704   -0.887298   -0.074501
 C   -3.456056   -0.085814   -1.022491
 C   -1.992205    1.143452    2.668903
 O   -1.736303    1.596258    1.361985
 C   -2.020064    2.964498    1.146250
 C   -1.814157    3.279412   -0.321873
 C   -2.892545    3.760261   -1.064156
 C   -2.780074    4.027618   -2.426660
 C   -1.567024    3.817413   -3.068556
 C   -0.476614    3.353434   -2.339592
 C   -0.588341    3.094307   -0.976031
 C    0.640487    2.582856   -0.261858
 F    0.830633    3.130992    0.953779
 F    1.755306    2.838546   -0.973007
 F    0.609496    1.237420   -0.076199
 C   -2.061941   -0.385164    2.681433
 C   -0.673828   -1.024768    2.507280
 N   -0.665539   -2.366826    2.316674
 O    0.339735   -0.347548    2.609222
 S   -3.359576   -1.056709    1.585945
 C   -0.958219   -2.633864   -0.951629
 C    0.265600   -1.964834   -0.972989
 C    4.391393   -0.662286   -1.249199
 C    4.888976    0.620196   -0.595975
 H    4.941282    2.513454    1.379304
 H    5.456337    1.416876    2.680928
 H    6.516863    1.697490    1.271088
 H    5.370741   -0.399030    1.125635
 H    2.829082    1.102536    1.049732
 H    3.403462    0.173672    2.438691
 H    1.877695   -1.213354    1.077285
 H    3.514140   -1.886010    1.068457
 H    2.284386   -0.224050   -1.188831
 H    2.148042   -4.636064   -1.917644
 H   -0.069085   -5.789948   -1.856612
 H   -4.103765   -3.229357   -0.484800
 H   -1.638587   -0.357671    0.067608
 H   -4.435559   -0.552749   -1.162046
 H   -2.957294    0.002874   -1.991548
 H   -3.600076    0.916445   -0.609524
 H   -2.946488    1.544812    3.039654
 H   -1.188270    1.448548    3.352718
 H   -3.068551    3.168903    1.408126
 H   -1.383024    3.600095    1.775000
 H   -3.848443    3.912617   -0.566195
 H   -3.639940    4.394847   -2.981377
 H   -1.464816    4.021026   -4.130527
 H    0.481365    3.200802   -2.823467
 H   -2.408974   -0.675821    3.682056
 H    0.220916   -2.821013    2.153201
 H   -1.507399   -2.860790    2.054626
 H    0.333739   -0.906211   -0.730541
 H    4.436843   -0.588598   -2.340032
 H    5.043809   -1.490457   -0.943167
 H    4.251273    1.471841   -0.865797
 H    5.915877    0.853437   -0.889624
