66 
2xog_ligand_ani.xyz
 N    5.427983    2.062340    0.996919
 C    2.858996   -2.124366   -0.612222
 C   -3.352601    1.991590   -0.341466
 N   -2.072639    2.708150   -0.517124
 C   -3.603314   -1.699670    0.524519
 O   -3.094159   -4.103582   -0.413675
 C    5.617734    0.764004    1.246027
 C    2.804799   -2.596528    0.844515
 O    4.062430   -2.985891    1.321662
 C   -3.401059    0.536760   -0.811839
 O   -4.702122    0.305394   -1.304011
 C   -0.830788    2.106118   -0.730773
 O   -0.637768    0.897556   -0.805940
 O   -3.506191   -2.200596   -2.042215
 N    4.923309   -0.281049    0.780834
 C    1.851735   -3.782571    0.757094
 O    2.530435   -4.917342    0.273075
 C   -3.162445   -0.241713    0.493904
 N    0.214587    2.976205   -0.877359
 N   -1.306316   -2.384433   -0.880205
 C    3.958909    0.095945   -0.060829
 C    0.866891   -3.337714   -0.327226
 O    1.600208   -2.453283   -1.179740
 C   -3.923202    0.628874    1.491206
 O   -3.698783    1.974815    1.030019
 C    0.229917    4.345429   -0.664898
 O    1.278703    4.974330   -0.716430
 C    3.667781    1.401660   -0.436295
 C   -0.370593   -2.615586    0.220911
 O   -0.027023   -1.415886    0.870320
 C   -3.434519    0.588665    2.927090
 O   -4.078932    1.579252    3.691163
 C   -1.086908    4.899192   -0.389182
 C    4.432579    2.413287    0.171471
 N    4.199237    3.726659   -0.078738
 C   -2.147683    4.078307   -0.325815
 N    2.604330    1.420593   -1.322863
 C    2.289559    0.162376   -1.489394
 N    3.048268   -0.692905   -0.733817
 S   -2.936924   -2.715070   -0.798277
 H    3.655665   -2.643609   -1.158405
 H   -4.096724    2.583443   -0.884843
 H   -4.689915   -1.794595    0.412152
 H   -3.313046   -2.183094    1.464726
 H    6.429769    0.530476    1.925567
 H    2.354613   -1.804817    1.457974
 H    4.625570   -2.185618    1.303253
 H   -2.647107    0.330497   -1.574080
 H   -4.659820   -0.528453   -1.801712
 H    1.358973   -3.994134    1.719506
 H    3.416889   -4.892503    0.664549
 H   -2.093014   -0.179295    0.727249
 H    1.118448    2.535840   -1.110815
 H   -1.091352   -1.582617   -1.468844
 H    0.558814   -4.210366   -0.913674
 H   -5.004809    0.430057    1.450576
 H   -0.836830   -3.271708    0.958857
 H    0.061098   -0.707873    0.201813
 H   -3.665152   -0.377507    3.390567
 H   -2.338319    0.723003    2.941346
 H   -4.012963    2.390516    3.165970
 H   -1.175957    5.964783   -0.231266
 H    3.297263    4.024252   -0.440503
 H    4.699640    4.383547    0.502783
 H   -3.144314    4.445656   -0.097304
 H    1.502941   -0.216169   -2.121169
