65 
2xoi_ligand_xtb.xyz
 N    4.981272    2.445438   -0.238462
 C   -0.027443    2.098946    0.493494
 C   -0.179481   -3.183373    1.546717
 N    1.123140   -2.922011    0.876838
 C   -3.185386   -1.082627    1.196665
 O   -5.329325    0.210005    0.355330
 C    4.104778    3.300445    0.244429
 C   -0.316091    3.534710    0.007940
 O    0.432223    4.509291    0.658911
 C   -0.930179   -1.914581    1.959416
 C    2.039802   -2.058788    1.454565
 O    1.824449   -1.423858    2.462264
 O   -4.513781   -1.672709   -1.005929
 N    2.794511    3.148895    0.368038
 C   -1.807365    3.671344    0.379009
 O   -1.955074    4.172717    1.675042
 C   -1.835467   -1.612498    0.755372
 N    3.241462   -1.975130    0.801016
 N   -3.371412    0.517984   -1.138445
 C    2.371520    1.973384   -0.107728
 C   -2.322854    2.220535    0.332478
 O   -1.190127    1.361284    0.236183
 C   -1.884043   -2.951763   -0.007358
 O   -1.046014   -3.868104    0.703491
 C    3.624753   -2.594414   -0.382532
 O    4.692527   -2.334560   -0.896742
 C    3.184650    0.991236   -0.690149
 C   -3.278582    1.926009   -0.840419
 O   -2.821414    2.602900   -1.968565
 C   -1.408278   -2.812083   -1.468142
 O   -2.082382   -1.800331   -2.163706
 C    2.655082   -3.562463   -0.835380
 C    4.571187    1.256997   -0.708549
 N    5.484013    0.401805   -1.173239
 C    1.484281   -3.694451   -0.189524
 N    2.400056   -0.055496   -1.108613
 C    1.189934    0.274605   -0.782643
 N    1.095471    1.488154   -0.158832
 S   -4.228144   -0.519925   -0.188994
 H    0.179671    2.132346    1.581297
 H    0.036105   -3.834338    2.404556
 H   -3.786288   -1.839824    1.695730
 H   -3.073801   -0.219942    1.845709
 H    4.504390    4.241754    0.596370
 H   -0.196461    3.574323   -1.084663
 H    1.382406    4.246295    0.623969
 H   -1.534247   -2.153545    2.834899
 H   -0.265148   -1.095717    2.208785
 H   -2.341214    4.301265   -0.341803
 H   -1.207960    4.774626    1.824082
 H   -1.368470   -0.853700    0.126952
 H    3.894590   -1.309219    1.200302
 H   -2.536891    0.110919   -1.543105
 H   -2.850328    2.018092    1.273438
 H   -2.892864   -3.378556   -0.004926
 H   -4.291638    2.245750   -0.553005
 H   -3.367610    2.348108   -2.722773
 H   -0.348361   -2.540532   -1.493457
 H   -1.528228   -3.782161   -1.969559
 H   -3.043011   -1.944042   -2.069497
 H    2.897269   -4.165185   -1.692367
 H    6.452014    0.661540   -1.088672
 H    5.234519   -0.566940   -1.339294
 H    0.743406   -4.423558   -0.483168
 H    0.325322   -0.316491   -1.000211
