110 
2xqq_ligand_ani.xyz
 C    0.041266   -2.653255    1.561245
 C   -0.309305   -4.091509    1.248907
 O   -0.810086   -1.815828    1.909878
 N    1.341875   -2.332733    1.448681
 C    1.862211   -1.027561    1.820810
 C    3.160882   -0.761556    1.046848
 O    4.219599   -0.464288    1.625932
 C    2.089693   -0.892149    3.333384
 O    3.096173   -1.756013    3.815384
 N    3.085405   -0.887555   -0.287216
 C    4.245821   -0.686469   -1.157315
 C    4.445071    0.829806   -1.332597
 O    4.008430    1.440455   -2.306626
 C    4.045677   -1.368558   -2.509892
 C    3.678513   -2.857365   -2.466896
 C    4.771477   -3.808788   -1.965925
 N    5.168226   -3.585885   -0.582745
 C    4.351870   -3.931697    0.483614
 N    4.927123   -3.650358    1.707733
 N    3.177903   -4.454813    0.440268
 N    5.097091    1.441301   -0.317354
 C    5.205876    2.887970   -0.277634
 C    3.935641    3.547776    0.265631
 O    3.914944    4.151351    1.326489
 N    2.836986    3.399123   -0.526298
 C    1.535542    3.801956   -0.060265
 C    0.646913    2.560259    0.122216
 O    0.824953    1.529271   -0.532123
 C    0.927144    4.851516   -1.026125
 O   -0.071036    5.661781   -0.424466
 C    0.326136    4.240854   -2.285379
 N   -0.348801    2.691636    1.023085
 C   -1.391387    1.694255    1.213344
 C   -1.928230    1.231155   -0.156224
 O   -2.300211    2.004032   -1.030231
 C   -2.521551    2.223055    2.109668
 C   -3.421427    3.302037    1.487394
 C   -2.617437    4.501173    1.010834
 O   -1.819138    5.060685    1.767995
 N   -2.827572    4.896378   -0.267265
 N   -1.958480   -0.118103   -0.308365
 C   -2.042400   -0.757591   -1.603018
 C   -3.323016   -1.601095   -1.744128
 O   -3.339068   -2.651644   -2.375757
 C   -0.788935   -1.630788   -1.896327
 O    0.369994   -1.105121   -1.280626
 C   -0.541913   -1.774640   -3.392213
 N   -4.436747   -1.100754   -1.158769
 C   -5.682284   -1.823991   -1.191494
 C   -6.798962   -0.844732   -0.894202
 O   -6.649263    0.261046   -0.433211
 C   -5.736700   -3.012538   -0.210985
 C   -5.673714   -2.632341    1.275293
 C   -4.367660   -1.976431    1.667250
 O   -4.234724   -0.789571    1.877883
 O   -3.364636   -2.855187    1.754592
 O   -8.004458   -1.370522   -1.160654
 H    0.278575   -4.460552    0.401296
 H   -0.083680   -4.725915    2.113813
 H   -1.377818   -4.166249    1.029720
 H    2.006613   -3.075282    1.214881
 H    1.125302   -0.277970    1.505977
 H    2.320496    0.158697    3.557819
 H    1.158255   -1.153462    3.842680
 H    3.923703   -1.392189    3.462616
 H    2.171677   -1.048497   -0.710060
 H    5.119775   -1.086591   -0.636802
 H    3.259149   -0.824707   -3.048742
 H    4.961462   -1.229081   -3.096857
 H    2.768766   -2.998808   -1.868960
 H    3.415384   -3.168770   -3.485823
 H    5.672034   -3.671817   -2.573582
 H    4.448035   -4.849963   -2.125798
 H    6.154220   -3.690436   -0.384949
 H    4.248694   -3.691756    2.459606
 H    5.472305   -2.798416    1.738809
 H    2.915532   -4.722072   -0.503974
 H    5.156460    0.928096    0.557456
 H    6.039968    3.176126    0.363984
 H    5.395154    3.233700   -1.298110
 H    2.896746    2.788046   -1.336916
 H    1.703655    4.291684    0.907023
 H    1.765845    5.507213   -1.297307
 H   -0.176967    5.473915    0.521651
 H   -0.549204    3.631968   -2.030805
 H    1.045183    3.611019   -2.822037
 H    0.003672    5.044180   -2.954057
 H   -0.430425    3.554938    1.543461
 H   -0.947464    0.821340    1.716363
 H   -3.148036    1.371014    2.398924
 H   -2.064243    2.626069    3.020134
 H   -4.013899    2.887481    0.665161
 H   -4.117144    3.656910    2.256866
 H   -2.101708    5.502918   -0.640936
 H   -3.134568    4.171098   -0.905849
 H   -1.672000   -0.697195    0.470481
 H   -2.102118    0.063200   -2.331570
 H   -0.982771   -2.628714   -1.472939
 H    0.250487   -0.141885   -1.141448
 H    0.351865   -2.384123   -3.558017
 H   -1.396407   -2.256222   -3.871502
 H   -0.373460   -0.793091   -3.851848
 H   -4.394950   -0.279015   -0.569698
 H   -5.824949   -2.223747   -2.200810
 H   -6.671160   -3.553022   -0.390884
 H   -4.909365   -3.681302   -0.465474
 H   -6.487280   -1.950300    1.539711
 H   -5.788375   -3.541518    1.873839
 H   -2.542703   -2.366348    2.001086
 H   -8.660045   -0.694384   -0.920465
