28 
2xsb_ligand_xtb.xyz
 C   -0.211741   -1.463359   -0.290368
 C    0.738680   -0.274373   -0.501099
 C    0.224880    1.033406    0.122104
 C   -1.265597    1.174433   -0.228130
 C   -2.052391    0.001712    0.340049
 C   -3.506066   -0.010097   -0.153537
 C    3.169247   -0.032586    0.133720
 C    4.343363   -0.889125    0.540746
 N    2.025566   -0.733501   -0.006595
 O    0.205750   -2.588359   -0.391787
 O    0.841687    2.171317   -0.400717
 O   -1.788873    2.355562    0.304224
 O   -1.488067   -1.264727   -0.015931
 O   -4.263424   -1.002558    0.472663
 O    3.255594    1.172053   -0.026038
 H    0.798189   -0.109728   -1.592081
 H    0.345305    0.988964    1.218461
 H   -1.354319    1.181435   -1.328921
 H   -2.055837    0.067381    1.436176
 H   -3.506616   -0.139488   -1.245565
 H   -3.962657    0.948710    0.096526
 H    5.213110   -0.255321    0.686684
 H    4.121100   -1.417479    1.464765
 H    4.557084   -1.620041   -0.235965
 H    2.065292   -1.744268    0.072671
 H    1.817316    2.052364   -0.314369
 H   -1.132944    3.047897    0.135676
 H   -3.827579   -1.852297    0.331892
