60 
2xu4_ligand_ani.xyz
 C   -0.055701    1.097099   -1.284398
 C   -0.676143    2.390265   -0.727918
Cl   -3.692899   -0.768290    2.134377
 N    0.019142    3.525103   -0.995220
 C   -0.377614    4.777343   -0.414038
 C   -0.085648    4.935283    1.048438
 O   -1.719307    2.399353   -0.085508
 C   -0.244797    5.995946   -1.277367
 C   -1.606053    5.452482   -0.975875
 N   -0.434314    4.151914    1.980339
 N    1.004221    0.616488   -0.381549
 C    0.632120   -0.605144    0.330113
 C   -0.877551   -0.683777    0.090831
 C   -1.067817   -0.053338   -1.290282
 S   -1.483851   -2.382541    0.241819
 C   -3.219168   -2.230197   -0.155584
 C   -4.136592   -1.547615    0.646718
 C   -5.470639   -1.465998    0.257384
 C   -5.888556   -2.058404   -0.927015
 C   -4.977424   -2.735233   -1.730269
 C   -3.647495   -2.818736   -1.343173
 O   -1.336018   -2.788281    1.632675
 O   -0.874886   -3.172774   -0.827876
 C    2.218094    1.210805   -0.354407
 O    2.471557    2.184721   -1.070155
 C    4.172158    1.671718    1.219601
 C    3.240060    0.642224    0.624554
 C    3.080961    1.091320    2.060308
 C    4.482497   -2.970369    0.849012
 C    4.821792   -3.181296   -0.478659
 C    4.649331   -2.199944   -1.441524
 C    4.120528   -0.975376   -1.051822
 C    3.775330   -0.718166    0.278026
 C    3.959168   -1.737438    1.219951
 F    5.332050   -4.370650   -0.841966
 H    0.374707    1.295344   -2.272239
 H    0.996086    3.411290   -1.253748
 H    0.476676    5.831669    1.332006
 H    0.141310    5.853473   -2.281470
 H    0.061327    6.920211   -0.795075
 H   -2.113510    4.913459   -1.768874
 H   -2.249467    5.985513   -0.281389
 H   -0.981828    3.365557    1.613868
 H    0.876346   -0.533488    1.393825
 H    1.144354   -1.480952   -0.088332
 H   -1.412116   -0.109289    0.849866
 H   -0.805152   -0.777304   -2.069097
 H   -2.085188    0.309789   -1.450898
 H   -6.172864   -0.932835    0.890995
 H   -6.931853   -1.988164   -1.222071
 H   -5.299385   -3.198720   -2.657723
 H   -2.914780   -3.339557   -1.951767
 H    5.197492    1.372971    1.415978
 H    4.041621    2.685502    0.851429
 H    3.353866    0.402633    2.856348
 H    2.231609    1.732600    2.287789
 H    4.631906   -3.764267    1.573906
 H    4.925305   -2.402439   -2.471261
 H    3.983575   -0.188484   -1.791653
 H    3.683253   -1.586488    2.260071
