60 
2xu4_ligand_dft.xyz
 C    0.146450    1.107152   -1.422137
 C   -0.413478    2.472989   -0.963093
Cl   -3.787718   -0.182795    2.135961
 N    0.508565    3.476567   -0.998136
 C    0.322810    4.695219   -0.276649
 C    0.610883    4.621709    1.187301
 O   -1.562670    2.606093   -0.578707
 C    0.668008    5.984320   -0.997346
 C   -0.761304    5.641060   -0.738392
 N    0.934110    3.590463    1.852225
 N    1.086710    0.588653   -0.414849
 C    0.481377   -0.442292    0.433291
 C   -0.990117   -0.409097    0.003735
 C   -0.949676    0.046567   -1.455325
 S   -1.733012   -2.033142    0.244924
 C   -3.471065   -1.741123   -0.121244
 C   -4.322407   -0.971424    0.678999
 C   -5.654795   -0.808274    0.312600
 C   -6.138914   -1.412404   -0.842006
 C   -5.298162   -2.181241   -1.639295
 C   -3.966470   -2.341144   -1.278246
 O   -1.571839   -2.402656    1.644857
 O   -1.228010   -2.918672   -0.802642
 C    2.394052    0.959268   -0.405532
 O    2.811736    1.833816   -1.167696
 C    4.442339    1.084577    1.108248
 C    3.299440    0.255663    0.583021
 C    3.286786    0.767796    2.009797
 C    3.510107   -3.553284    0.839017
 C    4.050112   -3.840173   -0.403607
 C    4.342945   -2.843225   -1.323441
 C    4.090420   -1.522515   -0.976757
 C    3.548342   -1.194339    0.270863
 C    3.258976   -2.224104    1.166685
 F    4.295299   -5.117340   -0.729998
 H    0.670575    1.219414   -2.375618
 H    1.462694    3.197970   -1.227877
 H    0.533250    5.572944    1.724784
 H    1.049001    5.878233   -2.007697
 H    1.131995    6.773840   -0.413675
 H   -1.372838    5.291684   -1.561750
 H   -1.300595    6.186401    0.029776
 H    0.957222    2.778813    1.225148
 H    0.608624   -0.217522    1.494018
 H    0.929456   -1.418992    0.225164
 H   -1.561423    0.298397    0.608832
 H   -0.650892   -0.784763   -2.100178
 H   -1.902821    0.457426   -1.788970
 H   -6.304125   -0.206235    0.938277
 H   -7.180841   -1.277345   -1.114295
 H   -5.674947   -2.654865   -2.539498
 H   -3.289331   -2.937232   -1.880024
 H    5.380210    0.566158    1.278733
 H    4.533444    2.092883    0.719058
 H    3.440297    0.045218    2.805255
 H    2.603096    1.572731    2.265790
 H    3.280821   -4.358810    1.527385
 H    4.764943   -3.107706   -2.286646
 H    4.320693   -0.727152   -1.680713
 H    2.813835   -1.996157    2.130481
