60 
2xu4_ligand_xtb.xyz
 C    1.391001    1.185930   -0.308377
 C    2.783900    1.762384    0.044453
Cl   -3.767169    1.398678    2.183010
 N    3.775509    1.177201   -0.650874
 C    5.154264    1.364725   -0.311106
 C    5.633408    0.525742    0.811190
 O    2.932393    2.647156    0.860121
 C    6.104080    1.678580   -1.444582
 C    5.737901    2.750130   -0.477335
 N    4.972750   -0.305000    1.481569
 N    1.251699   -0.155452    0.260145
 C    0.352552   -0.137890    1.390931
 C   -0.581253    1.014396    1.070025
 C    0.278537    2.019539    0.333017
 S   -1.824760    0.351382   -0.112820
 C   -2.990857    1.708506   -0.374737
 C   -3.831617    2.143623    0.637096
 C   -4.729942    3.175059    0.397693
 C   -4.774012    3.763757   -0.854494
 C   -3.933607    3.330066   -1.868496
 C   -3.043398    2.298660   -1.624671
 O   -2.505576   -0.752266    0.502565
 O   -1.177294    0.111521   -1.372007
 C    1.734531   -1.235739   -0.383886
 O    2.468841   -1.117633   -1.356861
 C    2.432552   -3.641071    0.095714
 C    1.365821   -2.579061    0.192456
 C    2.114689   -3.022461    1.420110
 C   -2.207509   -3.801702    0.595823
 C   -2.661223   -3.610626   -0.694141
 C   -1.842102   -3.110857   -1.688463
 C   -0.538461   -2.785355   -1.372548
 C   -0.054493   -2.954862   -0.077852
 C   -0.900708   -3.467616    0.898565
 F   -3.938209   -3.932513   -0.994602
 H    1.292556    1.106259   -1.395730
 H    3.528185    0.367308   -1.224439
 H    6.678408    0.652894    1.077330
 H    5.677564    1.712096   -2.435065
 H    7.094480    1.251890   -1.402389
 H    5.054879    3.522771   -0.791460
 H    6.466851    3.074501    0.248711
 H    3.995532   -0.387238    1.197128
 H    0.913352    0.056191    2.315054
 H   -0.199306   -1.073493    1.484194
 H   -1.121853    1.401787    1.927495
 H   -0.297325    2.569433   -0.410068
 H    0.739314    2.730098    1.026489
 H   -5.383472    3.505152    1.189123
 H   -5.473776    4.564480   -1.038466
 H   -3.974703    3.789454   -2.843533
 H   -2.382500    1.919714   -2.388564
 H    2.110603   -4.654571   -0.087672
 H    3.356727   -3.373182   -0.392979
 H    1.600968   -3.624255    2.153464
 H    2.834834   -2.341834    1.850768
 H   -2.874647   -4.188655    1.349353
 H   -2.228026   -2.968893   -2.685070
 H    0.113367   -2.387560   -2.134638
 H   -0.551041   -3.601978    1.911616
