75 
2xuz_ligand_ani.xyz
 O  -10.040721   -0.029400   -1.101383
 O    4.178930    0.624574   -2.991633
 O    6.066149    3.691107   -1.715930
 N    1.362154   -2.622602   -0.199934
 C    5.668106    2.724891   -0.852722
 C    4.440291   -0.634881   -2.513642
 C    3.427180   -1.185303   -1.713120
 C    4.541031    2.941471   -0.041487
 C   -8.857249    0.630744   -1.114969
 C    6.379624    1.540179   -0.753167
 N    2.135465    1.007500    1.871693
 C   -8.805531    1.966960   -1.469881
 C    5.795654   -2.581786   -2.142406
 O   -7.837793   -1.362956   -0.463286
 N   -4.084426    0.556902   -0.183243
 C    3.611076   -2.426297   -1.099190
 C    5.612772   -1.334950   -2.741289
 C   -7.676974   -0.058156   -0.770218
 C    5.958591    0.549259    0.133483
 O    2.280482   -0.459076   -1.555240
 O    3.958648    4.161202   -0.135674
 C   -7.576555    2.629294   -1.488631
 C   -6.414316    1.962674   -1.141441
 C    4.799283    0.723489    0.869397
 C    4.812887   -3.109145   -1.320949
 O    2.956112   -4.071922    0.498669
 C    2.621652   -3.109445   -0.185843
 C    0.363548   -3.068726    0.731605
 C   -0.995976   -2.506246    0.347009
 O   -2.038056   -3.004830    0.697793
 O   -0.905815   -1.383193   -0.394082
 C   -2.152505   -0.810959   -0.822591
 C   -2.873578   -0.056967    0.306364
 C   -5.224671   -0.142190   -0.363145
 C   -6.446136    0.611896   -0.760099
 O   -5.247893   -1.372554   -0.200856
 C   -2.037832    1.065603    0.912266
 O   -2.371197    2.229951    0.857757
 C    0.676597   -2.665462    2.185240
 O    1.094461   -1.292429    2.158425
 C    0.695016   -0.471478    3.152873
 O    0.107866   -0.823388    4.141777
 C    1.044141    0.970641    2.821800
 C   -0.242014    1.622385    2.311086
 O   -0.937808    0.636281    1.525817
 C    2.812612    2.132286    1.553816
 O    2.408737    3.261154    1.862043
 C    4.070013    1.918758    0.782746
 H   -9.854936   -0.943951   -0.839270
 H    4.994157    1.019004   -3.327385
 H    5.465151    4.442862   -1.599766
 H    1.160738   -1.773768   -0.711388
 H    7.258043    1.407413   -1.379693
 H    2.382683    0.134295    1.426981
 H   -9.727156    2.475631   -1.735216
 H    6.718099   -3.131376   -2.308998
 H   -6.931738   -1.723035   -0.302150
 H   -4.092002    1.564984   -0.103316
 H    6.393902   -0.911077   -3.369721
 H    6.507203   -0.387786    0.202652
 H    2.393361    0.376077   -2.034544
 H    3.285085    4.203667    0.580769
 H   -7.533772    3.676616   -1.774310
 H   -5.470050    2.499248   -1.191773
 H    4.471241   -0.057995    1.551064
 H    4.941688   -4.067830   -0.827811
 H    0.277114   -4.158831    0.706783
 H   -1.905598   -0.123065   -1.634021
 H   -2.808088   -1.598556   -1.190051
 H   -3.106900   -0.785760    1.090989
 H    1.499989   -3.267326    2.571244
 H   -0.198648   -2.773180    2.829544
 H    1.339025    1.486191    3.738191
 H   -0.876369    1.917845    3.151316
 H   -0.011801    2.499705    1.709331
