75 
2xuz_ligand_dft.xyz
 O  -10.076971    0.098505   -0.983452
 O    4.178646    0.481842   -2.840438
 O    6.402264    4.007955   -1.371436
 N    1.264706   -2.642823   -0.044620
 C    5.904543    2.911598   -0.761455
 C    4.331677   -0.841084   -2.483797
 C    3.369970   -1.335126   -1.595182
 C    4.732551    3.021172    0.012251
 C   -8.881160    0.713699   -1.125744
 C    6.549740    1.687655   -0.868720
 N    2.200639    0.966506    1.672092
 C   -8.796307    1.974955   -1.683943
 C    5.414446   -2.981197   -2.511785
 O   -7.909170   -1.178742   -0.186564
 N   -4.090072    0.596645   -0.292656
 C    3.422375   -2.661027   -1.158645
 C    5.344036   -1.658568   -2.953207
 C   -7.712561    0.049534   -0.702691
 C    6.040886    0.565594   -0.200510
 O    2.427530   -0.457911   -1.146444
 O    4.207244    4.259230    0.096548
 C   -7.548988    2.591486   -1.832754
 C   -6.398797    1.953159   -1.412292
 C    4.871321    0.661256    0.531888
 C    4.467468   -3.467732   -1.623415
 O    2.725519   -4.304809    0.424345
 C    2.456920   -3.277610   -0.186440
 C    0.315263   -3.043695    0.961531
 C   -1.060881   -2.442959    0.698744
 O   -2.035605   -2.736924    1.342463
 O   -1.050556   -1.554607   -0.305028
 C   -2.299149   -0.989529   -0.702583
 C   -2.917838   -0.002566    0.305788
 C   -5.275635   -0.062792   -0.335234
 C   -6.463733    0.673263   -0.828869
 O   -5.341052   -1.247776    0.025236
 C   -2.011313    1.141712    0.736227
 O   -2.293539    2.309119    0.593916
 C    0.790773   -2.667777    2.374140
 O    1.245952   -1.311837    2.306217
 C    0.713035   -0.377540    3.099433
 O   -0.021701   -0.573197    4.030206
 C    1.102758    1.018510    2.614509
 C   -0.157681    1.697685    2.069722
 O   -0.906025    0.709497    1.340202
 C    2.948731    2.063131    1.426262
 O    2.616218    3.176217    1.862913
 C    4.191977    1.887364    0.629105
 H   -9.906909   -0.769761   -0.587066
 H    4.936540    0.985925   -2.500155
 H    5.836442    4.757056   -1.127537
 H    1.114965   -1.753733   -0.500085
 H    7.473346    1.635469   -1.436736
 H    2.340891    0.117341    1.139955
 H   -9.709075    2.463307   -2.008582
 H    6.208742   -3.628416   -2.868083
 H   -7.015332   -1.549847    0.012807
 H   -4.060353    1.605210   -0.364282
 H    6.072565   -1.255758   -3.650314
 H    6.559892   -0.383987   -0.269398
 H    2.631964    0.385618   -1.591717
 H    3.526504    4.228952    0.810113
 H   -7.487748    3.574305   -2.287686
 H   -5.441743    2.440958   -1.567247
 H    4.491050   -0.212410    1.050644
 H    4.510120   -4.488315   -1.258838
 H    0.194460   -4.131931    0.940159
 H   -2.090821   -0.478955   -1.643619
 H   -3.030480   -1.785268   -0.860538
 H   -3.194610   -0.569189    1.202497
 H    1.649158   -3.284300    2.642616
 H   -0.006095   -2.765698    3.113119
 H    1.425427    1.602059    3.481371
 H   -0.779864    2.053841    2.894152
 H    0.107463    2.537313    1.427281
