50 
2xwe_ligand_dft.xyz
 O    5.224658    1.838850    0.685913
 C    4.429021    0.927633   -0.030407
 C    2.977482    1.229021    0.319573
 C    2.515761    2.575445   -0.226296
 S    0.707237    2.497989   -0.126127
 C    4.757179   -0.509621    0.329501
 O    6.117410   -0.722292    0.024720
 C    3.848721   -1.405380   -0.480262
 O    4.187720   -2.743194   -0.202231
 C    2.363557   -1.170762   -0.172698
 O    1.612798   -1.907725   -1.108292
 N    2.030038    0.243166   -0.231105
 C    0.697069    0.700068   -0.068062
 N   -0.424846    0.155894    0.095594
 C   -0.758294   -1.234964    0.321170
 C   -2.135614   -1.332261    0.977610
 C   -3.259468   -0.778546    0.104543
 C   -4.636916   -0.896598    0.755533
 C   -5.763830   -0.340961   -0.115425
 C   -7.142396   -0.473709    0.534056
 C   -8.306069   -0.021203   -0.354123
 C   -8.272763    1.464669   -0.714148
 H    6.134787    1.520372    0.609536
 H    4.578911    1.048953   -1.116092
 H    2.907742    1.247115    1.418729
 H    2.841933    2.702035   -1.263061
 H    2.903421    3.395926    0.377856
 H    4.571071   -0.667452    1.404383
 H    6.282681   -1.670200    0.117259
 H    4.009476   -1.179151   -1.547850
 H    3.574662   -3.299272   -0.702644
 H    2.143581   -1.622792    0.802389
 H    1.639319   -1.408996   -1.937961
 H   -0.023533   -1.748892    0.952981
 H   -0.773481   -1.769602   -0.635640
 H   -2.113971   -0.795955    1.935181
 H   -2.330990   -2.388813    1.208039
 H   -3.042425    0.271170   -0.125494
 H   -3.266286   -1.313137   -0.856898
 H   -4.843425   -1.951900    0.986518
 H   -4.630218   -0.368275    1.719584
 H   -5.553029    0.713275   -0.337660
 H   -5.768074   -0.864572   -1.082624
 H   -7.157156    0.101161    1.471298
 H   -7.300313   -1.523627    0.816085
 H   -9.249840   -0.243002    0.159740
 H   -8.309792   -0.619438   -1.275562
 H   -9.163647    1.752285   -1.282396
 H   -7.397814    1.714906   -1.323218
 H   -8.237064    2.084516    0.189847
