74 
2xwy_ligand_dft.xyz
 C   -0.069414   -3.628404    0.395270
 C    2.063128   -2.134575    1.596506
 N    2.101824   -2.264416    0.098095
 C    3.446121   -2.694509   -0.410905
 C    3.116970    1.486002    2.419866
 N    2.247520    0.410448    1.838159
 C    0.831402    0.535268    2.307674
 C    0.377417   -2.179316   -1.689619
 N   -0.020744   -0.858412   -1.247122
 C    0.784165    0.262112   -1.256077
 C    2.160224    0.366785   -1.455773
 C    2.774407    1.592097   -1.188451
 C    4.258486    1.563453   -1.063287
 O    4.858173    2.681135   -1.433299
 O    4.832150    0.592736   -0.594101
 C    2.010478    2.721545   -0.845262
 C    0.634995    2.615777   -0.681499
 C    0.004059    1.370550   -0.833020
 C   -1.324475    0.884175   -0.571591
 C   -2.502999    1.671711   -0.068451
 C   -2.252524    2.305404    1.313563
 C   -3.489433    3.062514    1.807358
 C   -3.948863    4.110134    0.790237
 C   -4.201530    3.479516   -0.580984
 C    0.970176   -3.071919   -0.572847
 C   -2.966199    2.730607   -1.086788
 C   -1.294335   -0.466809   -0.815228
 C   -2.353159   -1.460441   -0.590055
 C   -3.606933   -1.344672   -1.199858
 C   -4.618288   -2.254156   -0.913493
 C   -4.391872   -3.285852   -0.005333
 C   -3.151308   -3.416574    0.613206
 C   -2.146440   -2.508662    0.312455
 O   -0.902478   -2.625021    0.935446
 C    2.860784   -0.937968    2.106213
 H    0.408765   -4.167045    1.219966
 H   -0.657764   -4.364364   -0.164419
 H    2.495079   -3.041161    2.026111
 H    1.017341   -2.074689    1.899345
 H    1.965242   -1.309136   -0.248708
 H    4.190006   -1.927743   -0.190357
 H    3.708168   -3.648153    0.049179
 H    3.384701   -2.814284   -1.493356
 H    3.130126    1.383059    3.506003
 H    2.696456    2.450329    2.135180
 H    4.121580    1.379852    2.008594
 H    2.257384    0.576835    0.819467
 H    0.180142   -0.111483    1.717104
 H    0.787810    0.271034    3.366090
 H    0.515400    1.567667    2.163020
 H    1.104064   -2.065415   -2.500920
 H   -0.488122   -2.692468   -2.116363
 H    2.777450   -0.448065   -1.825849
 H    5.817350    2.592759   -1.293548
 H    2.507493    3.673603   -0.690622
 H    0.059229    3.493373   -0.408378
 H   -3.332602    0.965577    0.062426
 H   -1.405447    3.005485    1.257931
 H   -1.981400    1.520428    2.032960
 H   -4.299932    2.341989    1.980796
 H   -3.276553    3.533320    2.772730
 H   -4.854446    4.607046    1.150730
 H   -3.179253    4.889366    0.696522
 H   -5.043754    2.777728   -0.509823
 H   -4.491710    4.245239   -1.306771
 H    1.460929   -3.932939   -1.035477
 H   -3.173516    2.248389   -2.049142
 H   -2.155849    3.450470   -1.269469
 H   -3.777306   -0.539835   -1.908434
 H   -5.584370   -2.155851   -1.396107
 H   -5.182880   -3.990401    0.228262
 H   -2.967247   -4.203826    1.337602
 H    2.942332   -1.032614    3.192341
 H    3.871906   -0.900975    1.694154
