60 
2xx5_ligand_dft.xyz
 C   -4.414918   -2.466828   -1.114755
 C   -5.709178   -2.648340   -0.635110
 C   -6.386348   -1.586722   -0.042284
 C   -5.768193   -0.343058    0.064655
 C   -4.476779   -0.160980   -0.419038
 C   -3.790243   -1.223739   -1.011985
 C   -2.367504   -1.036191   -1.475761
 N   -1.470158   -1.114595   -0.324313
 C   -0.130705   -1.046738   -0.444756
 O    0.434908   -0.822726   -1.512954
 C    0.652506   -1.317475    0.847462
 C    0.631107   -2.820665    1.186946
 C    1.902367   -3.243524    1.925142
 C    3.179243   -3.106855    1.132956
 C    3.282138   -2.868453   -0.174796
 C    4.577366   -2.721293   -0.917470
 C    4.680657   -1.416149   -1.723546
 C    4.567002   -0.133969   -0.895813
 N    3.185903    0.294588   -0.724567
 C    2.886626    1.342275    0.069713
 O    3.672316    1.864937    0.847841
 C    1.470526    1.867206   -0.068181
 C    1.196407    2.604930   -1.335859
 O    2.010791    2.655456   -2.230180
 C   -0.141402    3.320954   -1.453894
 C   -1.220164    2.609354   -0.687933
 O   -2.292182    2.305200   -1.154798
 C   -0.855356    2.259909    0.750254
Cl   -1.050189    3.763306    1.753363
 C    0.545038    1.721053    0.896271
 C    0.776198    0.913757    2.150929
 C    0.113770   -0.452181    1.978607
 O   -0.836094   -0.789593    2.653997
 H   -3.886169   -3.297805   -1.575554
 H   -6.188112   -3.618742   -0.725209
 H   -7.395099   -1.727497    0.334504
 H   -6.294551    0.489745    0.521365
 H   -3.994076    0.810513   -0.353037
 H   -2.236467   -0.063072   -1.957575
 H   -2.082486   -1.804667   -2.202336
 H   -1.868025   -1.354943    0.574882
 H    1.674533   -1.011493    0.628001
 H    0.528473   -3.405489    0.266387
 H   -0.248569   -3.035580    1.801648
 H    1.794258   -4.285242    2.256399
 H    1.996206   -2.655769    2.849775
 H    4.096771   -3.216198    1.712561
 H    2.384922   -2.741608   -0.781904
 H    5.416487   -2.780829   -0.212876
 H    4.693853   -3.559320   -1.618503
 H    5.650814   -1.406732   -2.232021
 H    3.924106   -1.406991   -2.519531
 H    5.010592   -0.272398    0.095989
 H    5.121504    0.678491   -1.380737
 H    2.463964   -0.056649   -1.347976
 H   -0.008656    4.319297   -1.013067
 H   -0.412185    3.432169   -2.504236
 H   -1.592356    1.552090    1.135561
 H    0.325257    1.407474    3.015754
 H    1.849147    0.791217    2.324973
