60 
2xx5_ligand_ani.xyz
 C   -4.363760   -1.872645   -1.071554
 C   -5.573277   -2.530353   -0.873650
 C   -6.640825   -1.864766   -0.276550
 C   -6.492137   -0.539076    0.118248
 C   -5.281452    0.117828   -0.085951
 C   -4.207583   -0.541845   -0.683960
 C   -2.878283    0.147848   -0.878244
 N   -1.887080   -0.335877    0.063304
 C   -0.665921   -0.788638   -0.329884
 O   -0.334637   -0.896901   -1.502890
 C    0.276710   -1.211626    0.798604
 C    0.054173   -2.694449    1.159631
 C    1.209977   -3.306270    1.954901
 C    2.513887   -3.434482    1.208109
 C    2.712473   -3.285369   -0.101704
 C    4.055403   -3.423896   -0.762395
 C    4.465614   -2.250432   -1.667226
 C    4.625629   -0.899349   -0.961610
 N    3.383349   -0.147896   -0.987784
 C    3.106899    0.770924   -0.028074
 O    3.799437    0.919318    0.972874
 C    1.821276    1.524033   -0.244475
 C    1.515566    2.003265   -1.604513
 O    2.090548    1.598389   -2.609060
 C    0.447540    3.066288   -1.746213
 C   -0.602034    3.076099   -0.670468
 O   -1.754570    3.367152   -0.894849
 C   -0.113755    2.764107    0.745605
Cl    0.451619    4.325451    1.473607
 C    0.969086    1.745390    0.805944
 C    1.017901    0.939661    2.075182
 C    0.107805   -0.281649    1.994477
 O   -0.752856   -0.483406    2.826582
 H   -3.529807   -2.394638   -1.537573
 H   -5.681890   -3.566578   -1.185534
 H   -7.585777   -2.379381   -0.119827
 H   -7.320895   -0.011915    0.585112
 H   -5.172407    1.156951    0.222710
 H   -2.984891    1.236140   -0.781132
 H   -2.469259   -0.058350   -1.872881
 H   -2.145452   -0.389807    1.039927
 H    1.281147   -1.095731    0.385234
 H   -0.093201   -3.265078    0.234604
 H   -0.870942   -2.778860    1.738365
 H    0.914609   -4.305954    2.301802
 H    1.383580   -2.726939    2.870106
 H    3.379067   -3.676967    1.827700
 H    1.890661   -3.037375   -0.777147
 H    4.822075   -3.577962    0.010325
 H    4.048602   -4.329964   -1.383778
 H    5.417023   -2.514773   -2.145978
 H    3.732327   -2.142163   -2.479494
 H    4.887548   -1.034049    0.092805
 H    5.442292   -0.316522   -1.412497
 H    2.954238    0.034640   -1.889180
 H    0.954242    4.040831   -1.706950
 H   -0.024167    2.981804   -2.724585
 H   -0.977471    2.452382    1.343234
 H    0.687286    1.533123    2.932045
 H    2.041208    0.600870    2.266003
