20 
2xxr_ligand_xtb.xyz
 N    0.801793    1.683779    0.413276
 C    1.139151    0.313399    0.874254
 C    1.727073   -0.496308   -0.296465
 O    2.331703    0.308063   -1.169028
 C   -0.071120   -0.371844    1.523172
 C   -1.129210   -0.946880    0.574329
 C   -1.908619    0.035093   -0.254171
 O   -1.536090    1.169799   -0.528794
 O   -3.037662   -0.450528   -0.682998
 O    1.663307   -1.682009   -0.384700
 H    1.480218    1.993763   -0.292492
 H    0.775088    2.355740    1.183159
 H   -0.197569    1.614749   -0.039621
 H    1.943393    0.373443    1.618554
 H    2.757346   -0.191820   -1.885979
 H   -0.537182    0.331440    2.215837
 H    0.304742   -1.210340    2.110132
 H   -1.848842   -1.526013    1.155490
 H   -0.663287   -1.656829   -0.115703
 H   -3.540179    0.166056   -1.244857
