20 
2xxw_ligand_xtb.xyz
 N    0.801928    1.683596    0.412470
 C    1.138820    0.313348    0.874021
 C    1.727024   -0.496952   -0.296170
 O    1.661078   -1.682341   -0.385708
 C   -0.071568   -0.371064    1.523380
 C   -1.130371   -0.946056    0.575363
 C   -1.908690    0.035457   -0.254580
 O   -1.535343    1.169558   -0.530685
 O   -3.038177   -0.449942   -0.682842
 O    2.335082    0.306948   -1.166761
 H   -0.196879    1.614483   -0.041617
 H    0.774220    2.355737    1.182298
 H    1.481181    1.993705   -0.292400
 H    1.943148    0.373588    1.618278
 H    0.304242   -1.209609    2.110303
 H   -0.536928    0.332645    2.216184
 H   -0.665420   -1.657822   -0.113499
 H   -1.850797   -1.523225    1.157503
 H   -3.540333    0.166180   -1.245333
 H    2.761644   -0.193040   -1.883125
