20 
2xxx_ligand_ani.xyz
 N    0.878012    1.745703    0.116301
 C    1.132704    0.432546    0.799201
 C    1.723393   -0.536006   -0.216474
 O    2.362896    0.143561   -1.195839
 C   -0.082637   -0.139566    1.541823
 C   -1.140034   -0.867954    0.710205
 C   -1.947727    0.008347   -0.208858
 O   -1.767123    1.192350   -0.417540
 O   -2.940085   -0.664608   -0.801573
 O    1.693894   -1.738679   -0.166556
 H    1.472935    1.780187   -0.726545
 H    1.108173    2.533574    0.739147
 H   -0.125164    1.785948   -0.160738
 H    1.932335    0.583569    1.529498
 H    2.745524   -0.521097   -1.791776
 H   -0.550102    0.678525    2.100816
 H    0.297891   -0.850535    2.279911
 H   -1.851984   -1.369081    1.375888
 H   -0.677127   -1.655968    0.106426
 H   -3.409418   -0.030243   -1.370043
