107 
2xye_ligand_ani.xyz
 C    0.437125    1.384813   -2.151578
 C   -1.234512    1.815423   -0.269822
 O   -1.632028    1.210924    0.722775
 N   -2.064214    2.598789   -1.015215
 C   -3.502350    2.476339   -0.831705
 C   -4.265296    3.737196   -1.317230
 C   -3.898625    4.904507   -0.392872
 C   -5.770751    3.464806   -1.218223
 C   -3.916900    4.108465   -2.763223
 C   -3.982821    1.181038   -1.513052
 O   -3.790295    0.954803   -2.700275
 N   -4.639696    0.310329   -0.697381
 C    0.953682    3.100333   -0.369052
 C    0.921865    3.536492    1.080316
 C   -0.128771    4.316323    1.572501
 C   -0.154780    4.715416    2.904868
 C    0.870889    4.338158    3.765833
 C    1.921299    3.559846    3.288778
 C    1.945187    3.163712    1.955208
 O    0.849619    0.734421    0.133731
 C    0.448969   -1.194500   -2.387988
 N    0.496909   -1.598846   -0.941986
 N   -0.775250   -1.922912   -0.389190
 C   -0.921618   -1.928148    0.960848
 O   -0.047433   -1.510808    1.716829
 C   -2.270594   -2.532081    1.418482
 C   -2.670620   -2.274214    2.895538
 C   -2.607320   -0.776160    3.205320
 C   -4.116467   -2.755843    3.075650
 C   -1.761616   -3.027455    3.875449
 N   -2.297630   -3.952654    1.101265
 C   -2.714460   -4.387656   -0.116502
 O   -3.070031   -3.668818   -1.040679
 O   -2.684613   -5.729343   -0.183409
 C   -3.122867   -6.273138   -1.428984
 C    1.523194   -2.697197   -0.706073
 C    2.914312   -2.129629   -0.654815
 C    3.379609   -1.532178    0.521200
 C    4.651435   -0.982078    0.580649
 C    3.761794   -2.165759   -1.762801
 C    5.032147   -1.606138   -1.704650
 C    5.497803   -1.003481   -0.532363
 C    6.855623   -0.404014   -0.470323
 C    7.679719   -0.616730    0.639120
 C    0.251092    1.750825   -0.667026
 C    8.952244   -0.060157    0.698196
 C   -5.169003   -0.955806   -1.168047
 C    9.417074    0.733835   -0.346733
 C   -0.284757    0.121282   -2.644646
 C    8.603338    0.958781   -1.453779
 C    7.337509    0.387388   -1.517524
 H    1.515355    1.272768   -2.320674
 H    0.125627    2.243475   -2.762512
 H   -1.768509    2.832449   -1.953000
 H   -3.668351    2.386853    0.245290
 H   -2.825276    5.123542   -0.430178
 H   -4.165977    4.683111    0.647590
 H   -4.435596    5.811531   -0.692644
 H   -6.054614    3.159879   -0.203647
 H   -6.336162    4.370564   -1.463290
 H   -6.082497    2.675887   -1.911462
 H   -4.057192    3.257683   -3.436274
 H   -4.567336    4.925857   -3.095769
 H   -2.884395    4.465468   -2.860015
 H   -4.660390    0.518583    0.289197
 H    0.496925    3.871190   -1.000631
 H    1.994388    2.986623   -0.692357
 H   -0.939289    4.608167    0.904883
 H   -0.976503    5.324200    3.272022
 H    0.851622    4.649917    4.807447
 H    2.726247    3.262306    3.956635
 H    2.770287    2.555080    1.590051
 H    0.267666    0.600279    0.910212
 H   -0.008717   -1.998058   -2.983618
 H    1.482116   -1.103093   -2.725890
 H    0.820331   -0.740907   -0.399077
 H   -1.427470   -2.424936   -0.987564
 H   -3.035493   -2.082479    0.772561
 H   -3.009104   -0.588128    4.207615
 H   -1.579733   -0.409854    3.170690
 H   -3.207492   -0.197878    2.494789
 H   -4.802344   -2.188704    2.433307
 H   -4.215445   -3.817464    2.830301
 H   -4.437814   -2.609205    4.112954
 H   -2.035673   -2.756413    4.902233
 H   -0.710865   -2.766398    3.722098
 H   -1.876685   -4.115077    3.793301
 H   -1.700593   -4.576633    1.624686
 H   -2.499898   -5.907363   -2.248811
 H   -4.161087   -5.995145   -1.626257
 H   -3.027102   -7.353239   -1.324234
 H    1.269618   -3.158768    0.247646
 H    1.422579   -3.459347   -1.489155
 H    2.736171   -1.509655    1.398620
 H    4.988847   -0.504896    1.497420
 H    3.419423   -2.629711   -2.685865
 H    5.678540   -1.648535   -2.577374
 H    7.322850   -1.242787    1.454457
 H    9.579060   -0.241052    1.567474
 H   -5.054581   -0.977463   -2.253258
 H   -4.616104   -1.807182   -0.748986
 H   -6.230623   -1.057303   -0.915551
 H   10.408874    1.175426   -0.298427
 H   -1.311195    0.070628   -2.264860
 H   -0.378933    0.199668   -3.733381
 H    8.957308    1.575784   -2.275542
 H    6.701944    0.572683   -2.381094
