104 
2xyf_ligand_dft.xyz
 C   -0.187716   -1.917588   -0.632515
 C    1.310590   -1.667711   -0.385363
 O    1.662302   -1.106669    0.645966
 N    2.192467   -2.133036   -1.290184
 C    3.598232   -1.805853   -1.154855
 C    4.462182   -2.675560   -2.115895
 C    4.193621   -4.156596   -1.803423
 C    4.137695   -2.382154   -3.589289
 C    5.197065    1.663272   -0.968477
 N    4.772230    0.303449   -0.680884
 C    3.771591   -0.289041   -1.374895
 O    3.041669    0.330745   -2.138638
 C    5.951013   -2.387996   -1.868788
 C   -0.496095   -3.419753   -0.415730
 C   -0.019047   -3.925491    0.924089
 C   -0.778336   -3.712722    2.077130
 C   -0.305849   -4.122122    3.320229
 C    0.930965   -4.752417    3.425292
 C    1.690871   -4.976189    2.280803
 C    1.217814   -4.563732    1.039671
 O   -0.883171   -1.150044    0.344004
 C   -0.655316   -1.461031   -2.022765
 C   -0.157836   -0.091972   -2.520504
 C   -0.919612    1.129083   -2.026907
 N   -0.806197    1.384151   -0.554771
 C   -1.788385    2.440151   -0.084110
 C   -3.187051    1.898704   -0.114974
 C   -3.568862    0.926859    0.813879
 C   -4.846428    0.388129    0.776909
 C   -5.782002    0.814912   -0.175346
 C   -5.395475    1.801117   -1.090595
 C   -4.111362    2.329291   -1.067332
 C    2.849206    1.855526    2.814566
 C    2.640840    6.215103   -1.168007
 O    2.536488    5.502177    0.069277
 C    2.355002    4.185748   -0.034018
 O    2.303271    3.578665   -1.100766
 N    2.213101    3.612397    1.184245
 C    2.253867    2.170760    1.415785
 C    0.847978    1.607763    1.141064
 N    0.527821    1.673961   -0.194042
 O    0.050141    1.181828    1.957807
 C    4.302849    2.357975    2.828818
 C    2.871094    0.336918    3.037386
 C    2.059305    2.528706    3.949950
 S   -9.397565   -0.666976   -1.035513
 C   -7.863837    0.035968   -1.353257
 C   -7.138636    0.236644   -0.207366
 C   -7.858789   -0.194460    0.954937
 C   -9.088255   -0.696944    0.658997
 H    1.857820   -2.402021   -2.202707
 H    3.880597   -2.048862   -0.124039
 H    4.836925   -4.792483   -2.419953
 H    3.156078   -4.439334   -2.008460
 H    4.402071   -4.382302   -0.751289
 H    3.105529   -2.641922   -3.855022
 H    4.786162   -2.983088   -4.234516
 H    4.288556   -1.327524   -3.836048
 H    5.596091    2.121888   -0.061069
 H    4.331001    2.230675   -1.312612
 H    5.967217    1.684840   -1.747477
 H    5.377225   -0.278526   -0.121338
 H    6.563844   -3.070360   -2.465453
 H    6.218926   -2.544561   -0.816200
 H    6.226761   -1.367878   -2.153571
 H   -0.026785   -3.995612   -1.221759
 H   -1.580140   -3.541033   -0.516861
 H   -1.745760   -3.224892    1.996032
 H   -0.907178   -3.954126    4.208477
 H    1.297255   -5.076732    4.394384
 H    2.651066   -5.477818    2.354465
 H    1.814621   -4.741010    0.148029
 H   -0.270670   -1.062049    1.103702
 H   -1.752125   -1.496908   -2.020950
 H   -0.339755   -2.216482   -2.751453
 H   -0.288027   -0.068660   -3.608520
 H    0.917662    0.031217   -2.351796
 H   -1.991411    1.028623   -2.212223
 H   -0.562978    2.035613   -2.525480
 H   -1.019822    0.467124   -0.077409
 H   -1.649847    3.305738   -0.737089
 H   -1.479418    2.694020    0.929158
 H   -2.857653    0.587015    1.562846
 H   -5.121415   -0.382144    1.490555
 H   -6.116298    2.173177   -1.811998
 H   -3.833836    3.097666   -1.785165
 H    2.791934    7.256066   -0.887840
 H    1.723592    6.105218   -1.750507
 H    3.487993    5.847536   -1.749929
 H    2.238396    4.228692    1.982781
 H    2.913752    1.725723    0.661325
 H    1.108476    2.207330   -0.853009
 H    4.749273    2.170256    3.810323
 H    4.903597    1.824471    2.083303
 H    4.385564    3.431267    2.628381
 H    3.374438   -0.174715    2.211689
 H    3.413486    0.118419    3.963237
 H    1.866777   -0.080138    3.122259
 H    1.006053    2.241227    3.926998
 H    2.478165    2.217141    4.911954
 H    2.127002    3.624038    3.927970
 H   -7.558974    0.234762   -2.371960
 H   -7.482825   -0.097904    1.967033
 H   -9.836850   -1.068860    1.344694
