50 
2xys_ligand_ani.xyz
 C   -0.382175   -2.108686   -0.488231
 C   -0.939746   -1.464345   -1.747368
 C   -1.768758   -0.233002   -1.364415
 C   -0.765295    0.809231   -0.828024
 C    0.034291    0.329855    0.405608
 N    1.274983    1.107922    0.525332
 C    2.350215    0.297341    0.125088
 C    3.664821    0.695117   -0.110339
 C    4.574140   -0.271570   -0.515572
 C    4.184358   -1.605985   -0.687910
 C    2.873610   -1.992198   -0.444697
 C    1.952562   -1.034284   -0.026884
 C    0.499484   -1.173269    0.378430
 C    0.315592   -1.829618    1.771829
 C   -1.166079   -2.177772    1.852938
 N   -1.539548   -2.583249    0.439907
 C   -2.899901   -2.100240    0.005838
 C   -2.865753   -0.636619   -0.392348
 C   -3.743657    0.251449    0.070476
 C   -3.610724    1.734611   -0.205320
 O   -2.411617    2.293083    0.304324
 C   -1.274049    2.225139   -0.546070
 C   -0.193348    3.038182    0.191565
 C    1.238498    2.495917    0.076578
 O    2.149689    3.274169    0.816938
 H    0.188856   -3.004930   -0.739600
 H   -1.536809   -2.187469   -2.308289
 H   -0.098657   -1.160042   -2.374003
 H   -2.243300    0.187882   -2.261912
 H   -0.023558    0.910910   -1.632213
 H   -0.597080    0.473970    1.290604
 H    3.954318    1.735071    0.018330
 H    5.604436    0.014518   -0.710882
 H    4.915043   -2.341919   -1.013933
 H    2.568453   -3.028268   -0.578296
 H    0.648053   -1.157799    2.565450
 H    0.923587   -2.739053    1.815044
 H   -1.759548   -1.298167    2.111252
 H   -1.395838   -2.986511    2.550006
 H   -1.556318   -3.614217    0.407504
 H   -3.621576   -2.254623    0.815464
 H   -3.214349   -2.709649   -0.845060
 H   -4.588319   -0.092741    0.668911
 H   -4.424999    2.279914    0.279227
 H   -3.676799    1.930230   -1.290218
 H   -1.531412    2.689891   -1.511338
 H   -0.208548    4.085045   -0.125585
 H   -0.480392    3.013893    1.247096
 H    1.568964    2.552707   -0.970910
 H    2.064644    2.995094    1.739558
