26 
2xz5_ligand_dft.xyz
 N    1.848380    0.112361    0.039111
 C    1.003938   -0.872824   -0.755304
 C   -0.404712   -1.117288   -0.251960
 O   -1.128754    0.104120   -0.250384
 C   -2.470344   -0.036577    0.026504
 O   -2.945828   -1.112549    0.259073
 C   -3.173510    1.286918   -0.014606
 C    1.496696    1.527563   -0.327228
 C    1.664949   -0.076955    1.513093
 C    3.287368   -0.126500   -0.309995
 H    1.538353   -1.826304   -0.735638
 H    0.992683   -0.502543   -1.783035
 H   -0.417758   -1.570278    0.743904
 H   -0.870816   -1.839203   -0.930393
 H   -3.073792    1.733610   -1.008122
 H   -4.227286    1.138476    0.217825
 H   -2.730004    1.976330    0.709840
 H    0.433884    1.678743   -0.153003
 H    2.094927    2.201915    0.287087
 H    1.729195    1.682253   -1.381710
 H    2.384055    0.555293    2.035333
 H    0.651219    0.214869    1.785753
 H    1.841726   -1.123731    1.765386
 H    3.401785   -0.073652   -1.393690
 H    3.898995    0.641786    0.164771
 H    3.584530   -1.112681    0.049379
