55 
2y1o_ligand_ani.xyz
 O   -1.402871    4.635457   -0.226944
 C   -1.017083    3.845456    0.602531
 O   -1.616239    2.671979    0.846535
 C    0.185258    4.057622    1.501478
 C    1.160600    2.874747    1.524739
 C    1.188217    2.853516   -0.999227
 O    1.260695    4.085747   -1.510468
 O    0.494338    1.977682   -1.464553
 N    2.676041    1.417462    0.262489
 C    4.038907    1.300788    0.306456
 O    4.786526    2.264174    0.378058
 C    4.554234   -0.106243    0.227684
 C    3.804289   -1.188315    0.685359
 C    5.807803   -0.322856   -0.339091
 C    4.251917   -2.499108    0.498474
 C    6.266237   -1.621822   -0.515224
 C    5.487426   -2.705035   -0.117517
 C    1.266426   -3.224420   -0.270122
 C    2.484154   -4.107418   -0.078110
 N    3.466189   -3.622210    0.910598
 C    0.087572   -3.469567    0.435882
 C   -1.000349   -2.608892    0.357548
 C    1.307074   -2.099362   -1.102157
 C    0.235796   -1.226359   -1.169447
 C   -0.937845   -1.461518   -0.433782
 C   -2.006116   -0.464518   -0.521853
 C   -3.323605   -0.578163   -0.239575
 S   -4.300736   -2.007864    0.090422
 C   -5.818770   -1.111781    0.075447
 S   -7.305675   -1.747904    0.293420
 N   -5.530584    0.210655   -0.149278
 C   -4.212656    0.604559   -0.295917
 C    2.026795    2.705691    0.259077
 O   -3.873546    1.766014   -0.445374
 H   -2.372186    2.563673    0.231326
 H   -0.196660    4.217308    2.517598
 H    0.671173    4.983615    1.183200
 H    0.592886    1.953107    1.693602
 H    1.851061    2.989079    2.364665
 H    0.598071    4.138808   -2.219800
 H    2.118638    0.617547   -0.013726
 H    2.840194   -1.028325    1.165606
 H    6.398706    0.536052   -0.644845
 H    7.234417   -1.799814   -0.976255
 H    5.835742   -3.724129   -0.265344
 H    3.012270   -4.242385   -1.029124
 H    2.168808   -5.104373    0.251668
 H    2.978221   -3.387675    1.769536
 H    0.013841   -4.354355    1.065044
 H   -1.897577   -2.832154    0.927252
 H    2.206651   -1.888755   -1.678951
 H    0.301760   -0.341171   -1.790871
 H   -1.687754    0.501930   -0.900047
 H   -6.270480    0.899501   -0.175175
 H    2.814368    3.463029    0.242561
