28 
2y34_ligand_xtb.xyz
 O    4.220519    1.621500   -0.383310
 C    4.667602    0.531335   -0.180791
 O    5.963091    0.342785    0.105101
 C    3.837154   -0.741135   -0.258447
 N    2.443113   -0.423830   -0.428455
 C    1.497523   -1.133682    0.237871
 O    1.759976   -2.136530    0.865218
 C    0.097759   -0.610980    0.096275
 N   -0.841973   -1.561904   -0.006484
 C   -2.092892   -1.239220   -0.073217
Cl   -3.195577   -2.547830   -0.225714
 C   -2.578277    0.093221   -0.027003
 C   -0.225593    0.737502    0.139660
 O    0.766399    1.653280    0.240665
 C   -1.599172    1.117233    0.085352
 C   -2.039347    2.457531    0.134979
 C   -3.372915    2.759201    0.079964
 C   -4.331483    1.742807   -0.027622
 C   -3.942009    0.432687   -0.081499
 H    6.186891   -0.584597    0.260958
 H    3.942141   -1.342658    0.654186
 H    4.201685   -1.341695   -1.105735
 H    2.250277    0.513617   -0.754137
 H    0.409667    2.543160    0.353144
 H   -1.326384    3.267958    0.213738
 H   -3.692923    3.789637    0.119114
 H   -5.378105    2.002535   -0.068516
 H   -4.666403   -0.361972   -0.165559
