52 
2y56_ligand_ani.xyz
 O    2.721430    1.256791   -1.886577
 C    3.005115    0.472091   -1.008149
 C    4.262571    0.531633   -0.211220
 C    4.604927   -0.445754    0.725436
 C    5.794460   -0.334795    1.436368
 C    6.644477    0.746933    1.212061
 C    6.306439    1.719947    0.273233
 C    5.117561    1.610936   -0.438428
 O    2.205447   -0.552025   -0.640894
 C    0.989480   -0.717842   -1.411663
 C   -0.066727    0.330485   -1.028197
 C   -0.866527   -0.046747    0.219043
 C    0.011346   -0.326274    1.452893
 C    0.321462   -1.840326    1.378489
 C   -0.361856   -2.308891    0.081583
 C    0.503893   -2.147259   -1.172236
 N   -1.534072   -1.381916   -0.071612
 C   -2.703164   -1.666005    0.795979
 C   -3.993477   -1.255330    0.064902
 O   -3.786183   -1.672213   -1.284071
 C   -4.318630    0.231035    0.170583
 C   -4.856795    0.722067    1.361665
 C   -5.163106    2.071729    1.499224
 C   -4.926631    2.952159    0.446836
 C   -4.378429    2.473187   -0.741058
 C   -4.076995    1.121932   -0.877740
 H    3.945443   -1.292437    0.890411
 H    6.059862   -1.095209    2.166578
 H    7.574188    0.830246    1.769185
 H    6.971559    2.561506    0.096477
 H    4.828254    2.349777   -1.180576
 H    1.258678   -0.582841   -2.460072
 H    0.417919    1.301005   -0.903595
 H   -0.772646    0.425458   -1.864801
 H   -1.635010    0.704257    0.416847
 H    0.912667    0.285976    1.438448
 H   -0.536490   -0.077989    2.367234
 H    1.389979   -2.053615    1.363352
 H   -0.106172   -2.371808    2.235545
 H   -0.710307   -3.344082    0.149324
 H    1.370856   -2.810545   -1.125976
 H   -0.100707   -2.465673   -2.032538
 H   -1.913635   -1.414149   -1.033248
 H   -2.622162   -1.157611    1.761500
 H   -2.740911   -2.741915    1.000191
 H   -4.823866   -1.819448    0.514268
 H   -4.624600   -1.564425   -1.752037
 H   -5.041363    0.032565    2.184194
 H   -5.587896    2.437896    2.430886
 H   -5.166372    4.007183    0.552120
 H   -4.191431    3.153668   -1.568004
 H   -3.639249    0.745744   -1.799702
