51 
2y57_ligand_ani.xyz
 O    2.484934    2.244506   -0.276875
 C    2.790800    1.136757    0.107483
 C    4.178688    0.596771    0.062864
 C    4.528105   -0.633950    0.622381
 C    5.842989   -1.079088    0.544018
 C    6.809503   -0.298370   -0.088157
 C    6.462925    0.933210   -0.640777
 C    5.149581    1.380497   -0.562467
 O    1.901454    0.255871    0.614342
 C    0.537577    0.732012    0.725136
 C   -0.160370    0.768136   -0.640007
 C   -0.708356   -0.588238   -1.079093
 C    0.327748   -1.723105   -1.091013
 C    0.291489   -2.313561    0.336730
 C   -0.745690   -1.461564    1.088703
 C   -0.182092   -0.182962    1.712279
 N   -1.710333   -1.010084    0.013752
 C   -2.727875   -2.002118   -0.412353
 C   -3.806353   -1.345427   -1.289677
 C   -4.486373   -0.172959   -0.614754
 C   -4.096621    1.133264   -0.919089
 C   -4.667764    2.223755   -0.269944
 C   -5.639332    2.015344    0.705007
 C   -6.027655    0.717715    1.026816
 C   -5.450459   -0.368424    0.375416
 H    3.774479   -1.235248    1.122376
 H    6.115265   -2.037881    0.978142
 H    7.836325   -0.650082   -0.148298
 H    7.217558    1.543447   -1.130753
 H    4.848363    2.338325   -0.977477
 H    0.585963    1.745572    1.124206
 H   -1.013557    1.457257   -0.561051
 H    0.520891    1.175723   -1.387582
 H   -1.226201   -0.490220   -2.034213
 H    0.037494   -2.475027   -1.829579
 H    1.311119   -1.347174   -1.366632
 H   -0.039893   -3.356703    0.317902
 H    1.258547   -2.281359    0.834770
 H   -1.280061   -2.033936    1.851427
 H   -1.036087    0.362127    2.136903
 H    0.494840   -0.422445    2.534365
 H   -2.233444   -0.188831    0.354221
 H   -3.199775   -2.452372    0.470893
 H   -2.251915   -2.819603   -0.965927
 H   -3.337159   -1.004152   -2.219243
 H   -4.538934   -2.111092   -1.563007
 H   -3.311773    1.280547   -1.660033
 H   -4.352120    3.233795   -0.518889
 H   -6.089848    2.862900    1.215233
 H   -6.782790    0.550422    1.791531
 H   -5.748844   -1.382601    0.637702
