55 
2y58_ligand_ani.xyz
 O    2.756222   -2.123346   -0.992643
 C    3.102100   -1.188133   -0.304043
 C    4.523831   -0.855982   -0.005554
 C    5.506276   -1.624001   -0.632112
 C    6.850792   -1.368481   -0.390010
 C    7.215443   -0.345528    0.483406
 C    6.235738    0.419483    1.114132
 C    4.890103    0.166362    0.872314
 O    2.233520   -0.330774    0.271435
 C    0.825990   -0.637363    0.095729
 C    0.083839    0.112126    1.206703
 C   -0.320935    1.538796    0.835222
 C    0.879605    2.407523    0.431403
 C    1.063834    2.153546   -1.082392
 C   -0.077218    1.197399   -1.461317
 C    0.350667   -0.266822   -1.321985
 N   -1.193389    1.519774   -0.446186
 C   -1.760924    2.875835   -0.727079
 C   -2.314704    0.522975   -0.491470
 C   -3.513059    0.822163    0.409027
 O   -3.023847    0.928287    1.739016
 C   -4.562346   -0.264009    0.260005
 C   -4.484468   -1.447211    0.996770
 C   -5.424139   -2.455858    0.814457
 C   -6.457188   -2.293116   -0.106406
 C   -6.542931   -1.115117   -0.843690
 C   -5.599495   -0.108373   -0.660873
 H    5.188869   -2.417683   -1.302598
 H    7.615354   -1.966636   -0.879341
 H    8.266535   -0.144820    0.675026
 H    6.521306    1.215044    1.798039
 H    4.123899    0.755075    1.368065
 H    0.726527   -1.714890    0.233193
 H   -0.812172   -0.440764    1.503215
 H    0.734573    0.141445    2.085061
 H   -0.909411    1.979377    1.636213
 H    1.765031    2.137525    1.006329
 H    0.673785    3.463207    0.636770
 H    2.026828    1.695286   -1.301835
 H    1.014670    3.082982   -1.659906
 H   -0.469627    1.376901   -2.467322
 H    1.155194   -0.483086   -2.027790
 H   -0.487444   -0.915652   -1.599015
 H   -2.330601    3.235990    0.136783
 H   -2.416788    2.829080   -1.605602
 H   -0.978455    3.606124   -0.941788
 H   -2.665062    0.446475   -1.532393
 H   -1.935858   -0.460195   -0.215924
 H   -3.969974    1.774723    0.100696
 H   -3.784518    1.088459    2.311685
 H   -3.685324   -1.570915    1.724128
 H   -5.352326   -3.372737    1.394838
 H   -7.192662   -3.081400   -0.247581
 H   -7.347015   -0.979046   -1.562817
 H   -5.673627    0.811080   -1.238719
