55 
2y67_ligand_ani.xyz
 O   -2.292009   -2.855435    0.896324
 C   -1.892872   -3.433302   -0.092734
 O   -2.615587   -3.611671   -1.195095
 C   -0.522763   -4.074232   -0.188696
 C    0.389608   -3.666804    0.968322
 C    0.408046   -1.218165    0.207784
 O   -0.269419   -0.599952    1.173328
 O    0.374268   -0.888529   -0.956370
 N    2.296937   -2.678911   -0.228040
 O    4.641882   -2.488312   -1.046927
 C    3.909848    0.363174   -1.071724
 C    3.785180    1.744506   -1.064966
 C    3.689156   -0.341428    0.107906
 C    3.356877    0.317633    1.288981
 C    3.232341    1.701870    1.280201
 C    3.455534    2.426022    0.110254
 C    3.259724    3.917782    0.052059
 C    0.973920    3.817878   -0.517630
 C    0.270741    4.385988    0.543534
 C   -1.016104    3.951191    0.819025
 C    0.396312    2.798841   -1.267488
 C   -0.879389    2.345998   -0.969172
 C   -1.615542    2.920804    0.076612
 C   -2.968774    2.507648    0.434852
 S   -3.219196    0.069455   -0.981906
 C   -4.638210   -0.901678   -0.498615
 N   -5.449803   -0.115064    0.280076
 C    1.230201   -2.398772    0.725627
 C   -5.018680    1.162437    0.650606
 C   -3.673145    1.420725    0.057902
 O   -5.648046    1.916335    1.356257
 S    3.831468   -2.110464    0.094961
 O    4.149829   -2.527645    1.447920
 O   -4.877437   -2.051017   -0.807351
 O    2.224587    4.279531   -0.864584
 H   -3.485542   -3.152886   -1.071883
 H   -0.083986   -3.851170   -1.169058
 H   -0.687524   -5.159529   -0.176467
 H   -0.221110   -3.526864    1.865198
 H    1.110696   -4.463874    1.172496
 H   -0.858077    0.045307    0.733843
 H    2.030413   -2.467879   -1.187366
 H    4.187298   -0.174950   -1.974511
 H    3.932880    2.311745   -1.981368
 H    3.218590   -0.245357    2.209478
 H    2.953413    2.226866    2.191108
 H    3.042356    4.320784    1.050197
 H    4.148695    4.426712   -0.335910
 H    0.734143    5.178434    1.127884
 H   -1.567433    4.404636    1.639642
 H    0.962626    2.358704   -2.083771
 H   -1.307873    1.551336   -1.572050
 H   -3.484724    3.149548    1.144170
 H   -6.327743   -0.480882    0.621812
 H    1.680024   -2.111862    1.679566
