42 
2y71_ligand_dft.xyz
 C   -2.714734   -0.912529    0.899217
 C   -4.027429   -0.523522    0.452254
 C   -5.270484   -0.729940    1.070315
 C   -6.434262   -0.266386    0.478675
 C   -6.350285    0.414954   -0.752987
 C   -5.140310    0.634259   -1.385489
 C   -3.976921    0.157406   -0.777113
 S   -2.336844    0.301370   -1.361883
 C   -1.730433   -0.549069    0.043863
 C   -0.272786   -0.838686    0.175495
 O    0.443420    0.381934    0.066426
 C    1.796797    0.332702    0.116408
 C    2.543049   -0.763380    0.271614
 C    4.044720   -0.701512    0.327042
 C    4.633071   -1.813043   -0.551827
 O    5.921571   -2.050370   -0.220696
 O    4.072794   -2.396611   -1.443537
 O    4.425800   -0.923667    1.678810
 C    4.586628    0.645629   -0.193579
 C    3.796503    1.791370    0.412169
 O    4.398644    3.008650    0.034871
 C    2.358531    1.722145   -0.077580
 O    1.625474    2.697516    0.633406
 C   -7.778029   -0.466376    1.133983
 H   -2.529142   -1.442559    1.827497
 H   -5.315225   -1.257135    2.020307
 H   -7.264190    0.776315   -1.217733
 H   -5.099369    1.159000   -2.334888
 H   -0.077142   -1.306517    1.148780
 H    0.068859   -1.525059   -0.611700
 H    2.103204   -1.746473    0.389183
 H    6.242592   -2.743866   -0.818635
 H    5.384040   -1.056059    1.690398
 H    4.510351    0.690655   -1.287465
 H    5.644843    0.742764    0.067703
 H    3.781525    1.680156    1.506156
 H    3.815100    3.709343    0.355951
 H    2.350386    1.953130   -1.156526
 H    0.689012    2.546523    0.448874
 H   -8.175056    0.480925    1.517409
 H   -7.713117   -1.164526    1.973492
 H   -8.510554   -0.862288    0.422320
