69 
2y8c_ligand_ani.xyz
 O   -6.757854   -2.916666    0.575113
 C   -5.993317   -1.976780    0.495656
 N   -5.737886   -1.367354   -0.738509
 C   -4.905105   -0.303378   -1.015009
 O   -4.756931    0.131994   -2.141073
 C   -5.258762   -1.360480    1.595052
 C   -4.448283   -0.317294    1.355516
 N   -4.257489    0.217757    0.103519
 C   -3.421688    1.406554   -0.069651
 C   -1.908974    1.126649   -0.038726
 C   -1.190936    2.471342   -0.162454
 N    0.020508    2.551577    0.431741
 C    0.877128    3.730930    0.333375
 C    0.332278    4.966830    1.056660
 O   -0.543796    5.727518    0.271270
 O   -1.717285    3.421270   -0.745605
 C   -1.501271    0.113464   -1.127000
 C   -0.002730   -0.088194   -1.311536
 O    0.598475   -0.351908   -0.046727
 C    1.967264   -0.784471   -0.041915
 C    2.843980    0.287117   -0.731777
 C    3.467386    1.303990    0.002220
 C    4.237814    2.283130   -0.619417
 C    4.377223    2.294817   -2.003223
 C    3.729248    1.323982   -2.755947
 C    2.970892    0.338201   -2.127659
 C    2.100669   -2.182017   -0.685266
 C    1.087502   -3.123734   -0.475773
 C    1.199658   -4.422599   -0.956330
 C    2.346068   -4.818063   -1.640201
 C    3.375367   -3.902649   -1.829737
 C    3.256016   -2.599665   -1.350906
 C    2.344852   -0.941668    1.437093
 C    3.637089   -1.341470    1.776220
 C    4.007330   -1.508061    3.106098
 C    3.079442   -1.285356    4.119564
 C    1.782291   -0.902744    3.789506
 C    1.416690   -0.737838    2.457349
 H   -6.217577   -1.753109   -1.541837
 H   -5.391968   -1.760054    2.591390
 H   -3.890697    0.174312    2.149096
 H   -3.692284    1.842127   -1.028822
 H   -3.667467    2.127276    0.715028
 H   -1.634565    0.703334    0.939165
 H    0.470167    1.675858    0.672544
 H    1.838061    3.440991    0.770221
 H    1.049507    3.990721   -0.720204
 H   -0.126965    4.651670    2.009584
 H    1.176764    5.620434    1.305800
 H   -1.159344    5.099808   -0.149882
 H   -1.952290   -0.853471   -0.876689
 H   -1.924058    0.413501   -2.094079
 H    0.453023    0.800276   -1.768998
 H    0.157869   -0.934268   -1.993754
 H    3.357437    1.327507    1.085083
 H    4.722560    3.048699   -0.016673
 H    4.976191    3.059733   -2.489319
 H    3.819092    1.326000   -3.838236
 H    2.471153   -0.408402   -2.744258
 H    0.191102   -2.826283    0.063342
 H    0.389543   -5.129821   -0.795488
 H    2.439210   -5.832999   -2.017032
 H    4.276827   -4.200083   -2.358897
 H    4.073474   -1.899810   -1.522336
 H    4.372117   -1.508127    0.988199
 H    5.021722   -1.809235    3.352792
 H    3.365468   -1.412668    5.160354
 H    1.048294   -0.733503    4.574593
 H    0.400094   -0.455216    2.207554
