123 
2y8o_ligand_ani.xyz
 N   -0.986401   -1.234454   -0.131250
 C   -0.463656   -2.621450   -0.276484
 C    0.897751   -2.600993   -0.987311
 O    1.917050   -2.632599   -0.298755
 C   -1.536598   -3.523572   -0.881388
 C   -1.057164   -4.965032   -0.983198
 O    0.017891   -5.322718   -0.531771
 N   -1.910960   -5.827006   -1.599612
 N    0.973822   -2.503659   -2.340044
 C    2.307044   -2.489855   -2.941327
 C    3.121909   -1.307193   -2.405858
 O    2.643950   -0.193803   -2.220566
 C    2.032914   -2.330425   -4.445067
 C    0.727295   -1.535978   -4.468256
 C   -0.065837   -2.145985   -3.315305
 N    4.427762   -1.588831   -2.159758
 C    5.336804   -0.614275   -1.602096
 C    5.022302   -0.128367   -0.182646
 O    5.615670    0.858698    0.246165
 N    4.099485   -0.807893    0.530186
 C    3.565114   -0.297495    1.787623
 C    2.946254    1.110345    1.597677
 O    3.174811    2.038272    2.371734
 C    4.554837   -0.300015    2.956707
 C    4.942100   -1.677791    3.515814
 C    5.862331   -2.483340    2.593056
 C    5.623631   -1.484872    4.875357
 N    2.130835    1.234021    0.522903
 C    1.357978    2.427492    0.263055
 C   -0.152103    2.103438    0.266075
 O   -0.610303    1.229896    0.992849
 C    1.874424    3.147185   -0.996857
 C    3.367590    3.490824   -0.921499
 C    3.701448    4.540962    0.146980
 C    5.169897    4.551783    0.588677
 N    5.504934    3.357341    1.419955
 N   -0.954898    2.885024   -0.510927
 C   -2.394258    2.683797   -0.570501
 C   -2.727566    1.345784   -1.276542
 O   -1.921739    0.803363   -2.027658
 C   -3.020069    3.904765   -1.303459
 C   -4.510841    4.104855   -1.007488
 C   -2.741520    3.856692   -2.812545
 C   -5.044259    5.460275   -1.474328
 N   -3.974107    0.818252   -1.089096
 C   -4.776787    0.896637    0.124872
 C   -4.200404    0.044840    1.267135
 O   -3.496441   -0.944736    1.080239
 C   -6.120621    0.291478   -0.322222
 C   -5.682663   -0.818877   -1.280257
 C   -4.448189   -0.248194   -1.990652
 N   -4.583354    0.417789    2.522511
 C   -4.501042   -0.551628    3.595971
 C   -5.482483   -1.689833    3.328459
 O   -6.387305   -1.654883    2.529988
 C   -4.777066    0.099986    4.947565
 O   -5.241882   -2.751293    4.116049
 H   -0.397216   -0.663867    0.497072
 H   -1.921119   -1.249292    0.306670
 H   -1.064603   -0.707102   -1.020342
 H   -0.219080   -2.991751    0.716429
 H   -2.418438   -3.476094   -0.227587
 H   -1.865180   -3.162899   -1.861887
 H   -2.798568   -5.543706   -1.979358
 H   -1.628329   -6.791359   -1.684753
 H    2.831079   -3.422702   -2.707053
 H    1.899639   -3.317201   -4.903159
 H    2.853329   -1.828573   -4.967022
 H    0.197273   -1.602962   -5.421715
 H    0.936449   -0.485052   -4.247645
 H   -0.602819   -3.043501   -3.647122
 H   -0.786513   -1.437378   -2.900297
 H    4.756518   -2.525537   -2.323731
 H    5.375366    0.288911   -2.219548
 H    6.342002   -1.043390   -1.597604
 H    3.602263   -1.590852    0.116662
 H    2.721221   -0.968916    2.017305
 H    5.454614    0.249131    2.652047
 H    4.091760    0.280617    3.760716
 H    4.018894   -2.256614    3.681491
 H    5.353742   -2.828323    1.688520
 H    6.242861   -3.367717    3.116744
 H    6.726444   -1.877876    2.288832
 H    4.974244   -0.953973    5.581284
 H    5.893198   -2.447144    5.324758
 H    6.545537   -0.899159    4.763980
 H    2.170401    0.536071   -0.218946
 H    1.501221    3.070960    1.137969
 H    1.310360    4.078802   -1.146447
 H    1.699757    2.499674   -1.868073
 H    3.694286    3.865252   -1.899930
 H    3.944856    2.572739   -0.753736
 H    3.099132    4.387531    1.050959
 H    3.435931    5.537022   -0.225210
 H    5.365197    5.449678    1.178133
 H    5.832513    4.573900   -0.280534
 H    6.337424    3.525165    2.004483
 H    5.686707    2.533918    0.820346
 H    4.710122    3.116103    2.035294
 H   -0.548233    3.304618   -1.332849
 H   -2.758663    2.638581    0.460678
 H   -2.491388    4.769697   -0.878401
 H   -4.676796    4.031755    0.076780
 H   -5.101107    3.308286   -1.479214
 H   -3.342571    3.077301   -3.295499
 H   -2.973795    4.813314   -3.291158
 H   -1.692100    3.627655   -3.034683
 H   -6.088977    5.592898   -1.174892
 H   -4.465150    6.282640   -1.037765
 H   -5.001233    5.561292   -2.563819
 H   -4.877840    1.932073    0.465469
 H   -6.695034    1.058385   -0.853261
 H   -6.714778   -0.081116    0.516096
 H   -6.472968   -1.105707   -1.979337
 H   -5.399055   -1.706098   -0.706036
 H   -3.661436   -0.996872   -2.134575
 H   -4.687350    0.174244   -2.975197
 H   -5.348909    1.075476    2.582702
 H   -3.497093   -0.982737    3.581275
 H   -5.784950    0.531309    4.975223
 H   -4.050254    0.896411    5.128236
 H   -4.699961   -0.637530    5.750809
 H   -5.907271   -3.419871    3.882761
