123 
2y8o_ligand_dft.xyz
 N   -1.033005   -1.184726   -0.074822
 C   -0.493712   -2.555766   -0.286174
 C    0.811219   -2.417998   -1.090367
 O    1.868318   -2.453623   -0.455434
 C   -1.589213   -3.488985   -0.800691
 C   -0.995740   -4.848913   -1.170846
 O    0.174646   -4.946054   -1.503594
 N   -1.853270   -5.889605   -1.141483
 N    0.780732   -2.129115   -2.401621
 C    2.054271   -2.067634   -3.113416
 C    2.922320   -0.958297   -2.530386
 O    2.466515    0.124899   -2.173489
 C    1.659781   -1.794713   -4.580664
 C    0.250562   -1.206323   -4.475636
 C   -0.359147   -1.986494   -3.315279
 N    4.239330   -1.258892   -2.431012
 C    5.178719   -0.326949   -1.854778
 C    4.932604   -0.023699   -0.380593
 O    5.514446    0.947665    0.120241
 N    4.075037   -0.808679    0.277168
 C    3.607528   -0.524737    1.626055
 C    2.918806    0.855334    1.669765
 O    3.019410    1.603377    2.645903
 C    4.679326   -0.710135    2.705812
 C    4.812966   -2.153376    3.216996
 C    5.072847   -3.170841    2.102282
 C    5.915105   -2.218582    4.276710
 N    2.161806    1.164327    0.596713
 C    1.443139    2.419225    0.510802
 C   -0.048482    2.115558    0.321719
 O   -0.583422    1.205371    0.959686
 C    2.078483    3.386711   -0.502361
 C    3.565872    3.647374   -0.236382
 C    3.846415    4.391651    1.079710
 C    5.260086    4.203151    1.620301
 N    5.464779    2.806088    2.136389
 N   -0.766623    2.904538   -0.492139
 C   -2.194095    2.708259   -0.663811
 C   -2.462056    1.309508   -1.236119
 O   -1.655769    0.791334   -2.018686
 C   -2.752913    3.816536   -1.598100
 C   -4.280762    3.935252   -1.490287
 C   -2.287767    3.648296   -3.049539
 C   -4.860621    5.106096   -2.283605
 N   -3.619043    0.682166   -0.936850
 C   -4.531406    0.937275    0.168167
 C   -4.113760    0.134508    1.406946
 O   -3.356667   -0.837204    1.345048
 C   -5.867848    0.389903   -0.368937
 C   -5.428926   -0.850484   -1.153615
 C   -4.064183   -0.468262   -1.742494
 N   -4.690313    0.521104    2.558435
 C   -4.735997   -0.364789    3.707076
 C   -5.681479   -1.529289    3.394664
 O   -6.323745   -1.640847    2.377989
 C   -5.157537    0.396417    4.963696
 O   -5.704150   -2.408981    4.396537
 H   -0.418584   -0.575560    0.490428
 H   -1.954981   -1.155542    0.423576
 H   -1.167848   -0.653991   -0.955833
 H   -0.159760   -2.914700    0.688460
 H   -2.361441   -3.581476   -0.028376
 H   -2.080392   -3.086964   -1.691884
 H   -2.809121   -5.810056   -0.833247
 H   -1.510283   -6.802096   -1.407075
 H    2.565779   -3.030005   -3.002575
 H    1.642862   -2.740404   -5.129642
 H    2.364679   -1.127968   -5.082305
 H   -0.323631   -1.316901   -5.397311
 H    0.292911   -0.146520   -4.208946
 H   -0.711740   -2.976053   -3.631026
 H   -1.178347   -1.425595   -2.863222
 H    4.558854   -2.180182   -2.690857
 H    5.134869    0.634347   -2.373683
 H    6.191549   -0.720009   -1.968497
 H    3.594674   -1.554713   -0.218252
 H    2.801652   -1.247757    1.803351
 H    5.644765   -0.369357    2.311542
 H    4.421905   -0.063018    3.550175
 H    3.860937   -2.416321    3.700917
 H    4.231023   -3.252171    1.405794
 H    5.237188   -4.165312    2.528365
 H    5.968426   -2.902445    1.528024
 H    5.739145   -1.499877    5.084544
 H    5.971868   -3.215888    4.722735
 H    6.893719   -1.998250    3.832818
 H    2.229057    0.602573   -0.251388
 H    1.494652    2.853012    1.514682
 H    1.539712    4.342838   -0.467362
 H    1.971196    2.973056   -1.512572
 H    3.969480    4.233882   -1.068572
 H    4.093495    2.690198   -0.265318
 H    3.147052    4.088245    1.866029
 H    3.696295    5.466789    0.936077
 H    5.446152    4.879857    2.456468
 H    6.022209    4.374492    0.856345
 H    6.309689    2.736974    2.706267
 H    5.539982    2.100968    1.366748
 H    4.650586    2.482378    2.691428
 H   -0.302123    3.561808   -1.099447
 H   -2.655811    2.803820    0.323019
 H   -2.333586    4.752873   -1.202136
 H   -4.548942    4.063333   -0.432719
 H   -4.746999    3.001654   -1.833510
 H   -2.817055    2.824663   -3.540410
 H   -2.480675    4.560831   -3.617790
 H   -1.217830    3.429782   -3.128694
 H   -5.928010    5.218290   -2.075646
 H   -4.368303    6.047111   -2.015256
 H   -4.750203    4.960888   -3.361748
 H   -4.600736    1.999454    0.404874
 H   -6.313464    1.142152   -1.027394
 H   -6.575627    0.147311    0.425723
 H   -6.145405   -1.126387   -1.928854
 H   -5.329058   -1.694934   -0.466817
 H   -3.347940   -1.291925   -1.679823
 H   -4.117637   -0.158500   -2.790305
 H   -5.414635    1.225829    2.508324
 H   -3.736899   -0.786037    3.847637
 H   -6.158734    0.826303    4.850337
 H   -4.448280    1.202716    5.165681
 H   -5.174258   -0.278070    5.821210
 H   -6.337074   -3.110099    4.168140
