43 
2ya7_ligand_ani.xyz
 C   -1.046861    3.901032   -0.342991
 O   -2.086393    4.440472   -0.645944
 O    0.096806    4.566141   -0.122307
 C   -0.898002    2.425947   -0.175942
 C   -1.932446    1.601945   -0.340139
 C   -1.778570    0.119295   -0.202778
 C   -0.496239   -0.181626    0.635443
 N   -0.204595   -1.608142    0.690424
 C   -0.024332   -2.383650   -0.411539
 O    0.075661   -1.909657   -1.541931
 C    0.008418   -3.870757   -0.152715
 C    0.667734    0.647703    0.080317
 O    0.346443    2.049621    0.193969
 C    1.992854    0.524757    0.852006
 O    2.833540    1.626039    0.545065
 C    2.858005   -0.702020    0.544962
 O    4.073191   -0.586072    1.278556
 C    3.214904   -0.845693   -0.937961
 O    4.219589   -1.820129   -1.086236
 N   -2.991808   -0.467215    0.347868
 C   -3.355068   -1.795416    0.144697
 N   -2.947220   -2.620950   -0.743292
 N   -4.290221   -2.226765    1.093322
 H   -0.118935    5.504560   -0.258412
 H   -2.899844    2.015749   -0.592532
 H   -1.627467   -0.325690   -1.192459
 H   -0.671284    0.140249    1.666624
 H   -0.438535   -2.084305    1.549072
 H   -1.004182   -4.262322   -0.289251
 H    0.347976   -4.103651    0.861202
 H    0.667271   -4.347430   -0.881069
 H    0.806596    0.411805   -0.981779
 H    1.774024    0.518904    1.935043
 H    2.266551    2.407272    0.464703
 H    2.373402   -1.615756    0.893356
 H    4.340258    0.341860    1.177316
 H    3.550631    0.139173   -1.308029
 H    2.343730   -1.160740   -1.523583
 H    4.806715   -1.673901   -0.327885
 H   -3.247637   -0.109153    1.258490
 H   -2.276111   -2.202004   -1.379361
 H   -4.640572   -3.138914    0.830355
 H   -5.048747   -1.574629    1.250426
