62 
2yb9_ligand_xtb.xyz
 C    1.944027   -1.324889    0.190995
 N    1.230007   -1.145062   -0.934547
 O    1.363926   -1.541815    1.242225
 C   -0.683654   -0.826430    0.559008
 O   -1.366844   -1.838105    1.082732
 N   -3.050783   -0.576482   -2.795651
 C    3.813179   -2.583776   -0.823837
 C    4.124597   -1.627375    1.400186
 O   -2.951404    0.195512   -0.732457
 C    3.732480    1.233643    0.162036
 C   -4.318352   -0.474915   -2.308610
 C    5.046846    4.863784   -0.313820
 C    4.302818    3.699552    0.328056
 C   -0.797553   -0.121526   -1.847721
 C   -0.217397   -1.153036   -0.868949
 C   -6.625096    0.064550   -0.290513
 C   -7.575348    0.348201    0.670740
 C   -7.195617    0.865421    1.899469
 C    3.466121   -1.343105    0.031297
 C    4.455019    2.418646   -0.488937
 C    2.237004    1.490624    0.167828
 C   -5.274447    0.297017   -0.029229
 C   -4.898540    0.816912    1.210215
 C    3.894140   -3.712849    0.196342
 O    1.587600    1.659443   -0.837113
 C    4.658348   -3.065671    1.346817
 O    1.729311    1.480643    1.383955
 C   -4.266544    0.002084   -1.024416
 C    4.004357   -0.059627   -0.621687
 O   -0.638650    0.270852    1.062922
 C   -2.280037   -0.168777   -1.834866
 C   -5.856041    1.098607    2.165193
 H    1.654417   -0.815966   -1.786329
 H   -1.655853   -1.618134    1.982097
 H    4.789614   -2.438685   -1.290554
 H    3.081777   -2.775425   -1.607679
 H    4.928891   -0.923250    1.605458
 H    3.372266   -1.524016    2.181536
 H    4.056364    1.125090    1.199317
 H   -5.160528   -0.747320   -2.908963
 H    4.662912    5.056034   -1.313088
 H    6.109300    4.642273   -0.391645
 H    4.927240    5.766869    0.279500
 H    3.243237    3.948148    0.413959
 H    4.686524    3.533331    1.337235
 H   -0.440557    0.868742   -1.551342
 H   -0.463315   -0.343806   -2.860900
 H   -0.589233   -2.159841   -1.107622
 H   -6.922069   -0.338149   -1.246262
 H   -8.619200    0.165313    0.462161
 H   -7.942771    1.086710    2.646989
 H    4.042121    2.574776   -1.487933
 H    5.516003    2.179058   -0.592377
 H   -3.853345    1.000143    1.410083
 H    2.890682   -3.988496    0.522885
 H    4.391121   -4.599056   -0.195724
 H    4.512812   -3.590934    2.288540
 H    5.726039   -3.063459    1.119824
 H    0.747598    1.407604    1.362377
 H    5.086578   -0.172789   -0.726383
 H    3.590642    0.058401   -1.626631
 H   -5.557206    1.503002    3.121161
