18 
2ybk_ligand_ani.xyz
 C    2.239295   -0.145205   -0.130956
 O    2.456948   -1.441380    0.116674
 C    0.764516    0.214634   -0.223645
 O    3.129980    0.661780   -0.279461
 C   -0.020326   -0.282480    0.992581
 O    0.643901    1.609393   -0.330933
 C   -1.434563    0.282988    1.004076
 O   -3.536503    0.277083   -0.078282
 C   -2.288595   -0.226040   -0.130132
 O   -1.943911   -1.000245   -0.993613
 H    3.420448   -1.566290    0.143956
 H    0.364209   -0.278563   -1.121225
 H    0.494260    0.047605    1.903296
 H   -0.024880   -1.376681    0.991678
 H    1.537690    1.946654   -0.498289
 H   -1.949975    0.038986    1.940128
 H   -1.394199    1.376872    0.928033
 H   -4.012836   -0.105006   -0.834201
