49 
2ybt_ligand_ani.xyz
 N   26.666516  -31.747593  -41.997857
 C   27.611024  -30.957549  -41.321421
 O   28.792341  -30.969996  -41.610282
 N   27.131083  -30.138043  -40.308159
 C   25.805045  -30.191200  -39.953591
 C   24.917651  -31.032920  -40.581136
 C   25.305646  -31.900248  -41.661041
 O   24.597467  -32.692491  -42.266223
 N   23.707315  -30.825727  -39.969669
 C   23.940359  -29.880003  -39.023707
 N   25.193016  -29.467060  -38.978185
 N   28.381201  -36.196407  -43.423245
 C   28.033221  -34.834425  -43.850814
 C   22.464239  -31.504177  -40.290502
 C   25.708153  -39.881962  -42.905982
 C   28.076496  -29.269637  -39.623155
 C   31.482320  -38.005294  -42.496616
 O   26.168770  -36.763110  -43.500453
 O   30.559963  -35.535509  -43.126187
 C   28.100683  -40.525649  -42.439944
 C   27.171601  -32.551578  -43.119693
 C   27.617082  -33.946794  -42.675966
 N   29.312700  -40.006964  -42.390936
 C   27.322919  -37.118772  -43.300170
 C   29.729909  -36.424068  -43.106106
 C   29.116954  -38.699227  -42.704134
 C   27.787725  -38.434748  -42.941705
 N   27.133912  -39.631227  -42.765910
 N   30.082794  -37.726306  -42.781874
 H   23.141013  -29.523319  -38.384926
 H   28.911459  -34.430567  -44.358940
 H   27.211941  -34.932792  -44.564929
 H   21.663799  -31.052788  -39.702809
 H   22.251148  -31.398339  -41.356117
 H   22.540619  -32.568612  -40.056685
 H   25.216447  -38.941286  -43.156007
 H   25.533449  -40.609374  -43.702844
 H   25.305612  -40.267628  -41.966064
 H   27.510663  -28.673438  -38.905291
 H   28.832115  -29.867498  -39.109669
 H   28.577617  -28.626514  -40.348128
 H   31.572249  -39.078263  -42.319336
 H   32.098045  -37.701512  -43.344521
 H   31.804650  -37.445451  -41.616411
 H   27.855133  -41.562584  -42.244905
 H   26.355965  -32.622221  -43.843713
 H   28.001203  -31.993982  -43.559755
 H   26.782781  -34.428619  -42.155010
 H   28.455001  -33.854532  -41.974271
