56 
2ycf_ligand_ani.xyz
 N   10.409916   -0.375425    1.229301
 N    9.071889   -1.141702   -0.472083
 N    8.324125    0.748889    0.817998
 N    7.343955    0.602625    0.058844
 N    1.132699   -0.498491   -0.875206
 N   -1.096597   -1.040783   -0.835405
 N   -7.320258   -0.195313    0.379572
 N   -8.501803   -0.401177    0.031358
 N   -8.487917    2.005196    0.050318
 N  -10.379337    0.924342   -0.675181
 C    9.320431   -0.266373    0.575770
 C    6.315259    1.631226    0.312758
 C    6.625885    2.849464   -0.544291
 C    4.948952    1.049112    0.030844
 C    3.885360    1.256742    0.908949
 C    2.609638    0.772063    0.647307
 C    2.379894    0.054700   -0.530311
 C    3.440710   -0.157364   -1.419330
 C    4.705808    0.333563   -1.142147
 C   -0.087941   -0.288499   -0.256769
 C   -2.446765   -1.100908   -0.440623
 C   -3.208361   -2.179193   -0.903897
 C   -4.548361   -2.289730   -0.564973
 C   -5.167675   -1.323591    0.228106
 C   -4.401728   -0.245460    0.673162
 C   -3.056164   -0.126598    0.356444
 C   -6.615777   -1.466410    0.635102
 C   -6.789383   -1.826875    2.103035
 C   -9.184623    0.840272   -0.236884
 O   -0.256284    0.467395    0.682335
 O    9.935758   -2.246201   -0.471343
 O   -9.101618    3.147987   -0.481858
 H   10.471873    0.344364    1.941741
 H    8.116228   -1.473456   -0.494235
 H    1.143517   -1.044868   -1.723649
 H   -0.832265   -1.739233   -1.514435
 H   -7.523034    1.978027   -0.253609
 H  -10.773496   -0.000432   -0.813290
 H    6.363557    1.917387    1.374314
 H    7.634708    3.205961   -0.321863
 H    5.913653    3.653244   -0.338384
 H    6.568946    2.592877   -1.607705
 H    4.047929    1.814713    1.830418
 H    1.797929    0.944165    1.340996
 H    3.272816   -0.714175   -2.338092
 H    5.520134    0.153964   -1.838417
 H   -2.747843   -2.940489   -1.529453
 H   -5.120581   -3.141642   -0.929002
 H   -4.869304    0.524881    1.281863
 H   -2.475222    0.709081    0.721782
 H   -7.078405   -2.250244    0.016980
 H   -6.318878   -1.071436    2.741761
 H   -7.854327   -1.876043    2.343601
 H   -6.333978   -2.798151    2.315146
 H   10.565179   -2.027792    0.249928
 H   -9.939632    2.791874   -0.849595
