18 
2yde_ligand_ani.xyz
 C   -2.238334   -0.147664   -0.131040
 C    0.022087   -0.273199    0.997519
 C    1.437468    0.289853    1.001763
 C    2.287979   -0.228268   -0.130925
 O   -3.132163    0.653228   -0.292362
 O   -2.450943   -1.443270    0.124533
 O   -0.649550    1.613888   -0.326478
 O    3.535046    0.277489   -0.088276
 C   -0.764685    0.218638   -0.219320
 O    1.941339   -1.010820   -0.985964
 H    0.024910   -1.367399    1.002760
 H   -0.489106    0.062912    1.907940
 H    1.954746    0.050826    1.938069
 H    1.399126    1.383324    0.918951
 H   -3.414020   -1.572864    0.144920
 H   -1.541041    1.946628   -0.513562
 H    4.009440   -0.110212   -0.842489
 H   -0.360980   -0.273505   -1.116194
