18 
2yde_ligand_dft.xyz
 C   -2.220686   -0.223243   -0.094727
 C    0.021932    0.015286    0.991370
 C    1.438479    0.563915    0.862356
 C    2.308720   -0.255610   -0.058227
 O   -3.163591    0.536577   -0.072580
 O   -2.332615   -1.542631    0.084462
 O   -0.800541    1.596461   -0.665345
 O    3.547244    0.261849   -0.159547
 C   -0.791491    0.242584   -0.295602
 O    1.977596   -1.259029   -0.646051
 H    0.046327   -1.054335    1.219347
 H   -0.481245    0.530850    1.817739
 H    1.934199    0.602219    1.838868
 H    1.412347    1.592562    0.487321
 H   -3.274975   -1.730476    0.224004
 H   -1.695065    1.923307   -0.478337
 H    4.036254   -0.317768   -0.765391
 H   -0.344303   -0.349767   -1.102087
