45 
2ydk_ligand_ani.xyz
 S    1.884787    1.540792    0.638025
 C    0.281119    0.931923    0.394572
 C    0.296151   -0.398500    0.049068
 C    1.622206   -0.884878   -0.138310
 C    2.593333    0.032992    0.126845
 N   -0.801705    1.807294    0.549144
 C   -1.805338    1.950940   -0.395527
 N   -2.689784    2.961725   -0.131247
 O   -1.934846    1.190490   -1.345488
 C   -0.854409   -1.336856   -0.075397
 O   -0.786865   -2.347191   -0.768612
 N   -1.953444   -1.016628    0.650430
 C   -3.188803   -1.778339    0.577166
 C   -3.756579   -1.804451   -0.849523
 N   -4.075385   -0.425821   -1.321098
 C   -5.088273    0.225568   -0.440087
 C   -4.655757    0.238831    1.029576
 C   -4.228762   -1.153093    1.506301
 C    4.051038   -0.137690    0.013244
 C    4.875491    0.887313   -0.465347
 C    6.247915    0.694406   -0.571678
 C    6.816580   -0.521816   -0.201657
 C    6.005075   -1.548187    0.272134
 C    4.631143   -1.358172    0.372812
 H    1.804551   -1.896826   -0.487619
 H   -0.678527    2.538314    1.237184
 H   -3.299468    3.198110   -0.900844
 H   -2.409319    3.738774    0.446367
 H   -1.930099   -0.204264    1.249847
 H   -2.986892   -2.813412    0.872993
 H   -3.038395   -2.262403   -1.523403
 H   -4.668568   -2.413441   -0.846048
 H   -4.451885   -0.489278   -2.275691
 H   -3.192518    0.130044   -1.389550
 H   -5.265931    1.242748   -0.795487
 H   -6.034491   -0.324105   -0.521549
 H   -3.842266    0.958838    1.171997
 H   -5.490430    0.601210    1.638984
 H   -5.106963   -1.813538    1.525014
 H   -3.841397   -1.118503    2.531311
 H    4.431738    1.832425   -0.766806
 H    6.875626    1.498937   -0.945271
 H    7.890426   -0.668947   -0.283635
 H    6.441619   -2.500503    0.561249
 H    3.999740   -2.159169    0.749597
