38 
2ydt_ligand_xtb.xyz
 O   -3.508693   -1.425824    1.195161
 C   -3.555655   -0.150137    0.620348
 C   -2.443497    0.776117    1.173861
 N   -1.402283    0.855053    0.117988
 C   -3.199628   -0.277803   -0.881597
 O   -3.641457    0.833498   -1.612271
 C   -1.668053   -0.217691   -0.879601
 C   -0.992579   -1.542117   -0.490362
 O    0.403005   -1.524056   -0.732109
 O    0.673665    2.902758    0.381739
 C    1.965768    2.333669    0.530619
 C    1.905147    0.930495   -0.044433
 O    1.051719    0.122496    0.770957
 C    3.213871    0.139139   -0.096381
 O    3.935693    0.520359   -1.221554
 C    2.707064   -1.328410   -0.118992
 O    3.501531   -2.097268    0.727439
 C    1.230596   -1.216248    0.348807
 H   -4.051603   -1.466541    1.989973
 H   -4.543479    0.307650    0.733884
 H   -2.821004    1.770928    1.400716
 H   -2.020992    0.336649    2.078249
 H   -0.421652    0.726985    0.506787
 H   -1.429190    1.768587   -0.341641
 H   -3.574181   -1.224558   -1.279657
 H   -4.558734    0.726145   -1.884660
 H   -1.298499    0.093513   -1.859304
 H   -1.213042   -1.797969    0.550242
 H   -1.392418   -2.329729   -1.133801
 H    0.727806    3.836779    0.611861
 H    2.244858    2.287808    1.589626
 H    2.718049    2.899562   -0.026350
 H    1.507532    0.980220   -1.068476
 H    3.784677    0.277517    0.832379
 H    4.789796    0.072514   -1.226817
 H    2.706324   -1.699583   -1.151779
 H    3.344690   -3.037594    0.584839
 H    1.015153   -1.852046    1.219498
