53 
2ydw_ligand_xtb.xyz
 C   -5.181828    3.678605    0.747947
 C    7.529850   -0.862013   -0.302778
 C   -3.839168    4.019821    0.698302
 C   -5.568592    2.364739    0.541466
 C   -3.770709   -1.253000   -2.873282
 C    7.769467    0.484646   -0.521129
 C    6.244244   -1.293732   -0.029786
 C   -3.395023   -2.550651   -2.562346
 C   -2.887917    3.053534    0.436428
 C   -4.621107    1.394276    0.271826
 C   -3.394116   -0.210083   -2.050281
 C    6.728084    1.392243   -0.464595
 C    5.199975   -0.386347    0.023068
 C   -2.635331   -2.799276   -1.435887
 C   -3.270878    1.732595    0.209910
 C   -2.628536   -0.434907   -0.906693
 C    5.434121    0.963566   -0.193113
 C   -2.246444   -1.750609   -0.608234
 C   -0.389648   -1.260523    0.934247
 C   -1.542261   -3.004394    1.478052
 C   -2.239330    0.720939   -0.065513
 C    2.168746    1.000717   -0.139874
 C   -0.012614   -0.019088    0.201147
 C   -2.568825   -4.070151    1.519199
 C    4.314593    1.973716   -0.168443
 N    0.121902   -1.751519    2.019263
 N   -0.602263   -2.834351    2.358148
 N   -1.079639    0.924902    0.412850
 N   -1.466548   -2.010356    0.525736
 N    1.221714    0.513520    0.693143
 O    2.115443    0.958764   -1.344281
 O    3.184770    1.532045    0.572591
 H   -5.925852    4.434464    0.950997
 H    8.343557   -1.570941   -0.344557
 H   -3.535789    5.042878    0.863687
 H   -6.613099    2.094260    0.590672
 H   -4.354962   -1.055338   -3.758661
 H    8.771193    0.828763   -0.733145
 H    6.049670   -2.341999    0.142513
 H   -3.685001   -3.369550   -3.202684
 H   -1.838262    3.297201    0.393920
 H   -4.929641    0.368914    0.124438
 H   -3.677141    0.803064   -2.294074
 H    6.916433    2.442977   -0.633786
 H    4.199432   -0.731427    0.237290
 H   -2.317758   -3.803597   -1.204338
 H    0.130973   -0.233714   -0.872351
 H   -2.258420   -4.929983    0.925618
 H   -2.683601   -4.396231    2.549145
 H   -3.520683   -3.703951    1.138536
 H    4.648512    2.900448    0.306815
 H    3.996693    2.189478   -1.197957
 H    1.335360    0.604715    1.689630
