53 
2ydw_ligand_dft.xyz
 C    3.413059    4.665100   -1.344841
 C   -8.189644   -0.077673   -0.621007
 C    2.061514    4.469726   -1.066657
 C    4.313441    3.618417   -1.172940
 C    4.564289   -0.230719    2.577770
 C   -7.878329    1.085564    0.075952
 C   -7.223170   -1.069032   -0.773169
 C    4.683021   -1.594121    2.321257
 C    1.612012    3.234990   -0.618504
 C    3.866214    2.382511   -0.716073
 C    3.693751    0.539603    1.820902
 C   -6.605774    1.256087    0.613766
 C   -5.955350   -0.901982   -0.226523
 C    3.916971   -2.181132    1.324549
 C    2.511910    2.179866   -0.435019
 C    2.918180   -0.024222    0.800440
 C   -5.636201    0.264087    0.470915
 C    3.041097   -1.404351    0.566561
 C    0.903819   -1.784944   -0.605871
 C    2.541076   -2.982941   -1.369331
 C    1.992834    0.855898    0.016343
 C   -2.042509   -0.129372    0.772754
 C    0.220352   -0.701283    0.164593
 C    3.891094   -3.565798   -1.606235
 C   -4.286367    0.443105    1.113685
 N    0.425974   -2.519561   -1.564775
 N    1.466187   -3.279294   -2.050884
 N    0.781600    0.573481   -0.277587
 N    2.240936   -2.022598   -0.425230
 N   -1.188101   -0.769821   -0.070847
 O   -1.731478    0.364526    1.837401
 O   -3.292853   -0.142580    0.269895
 H    3.763180    5.631245   -1.696232
 H   -9.178849   -0.209893   -1.049139
 H    1.354932    5.283701   -1.197762
 H    5.366505    3.761942   -1.395065
 H    5.145547    0.230446    3.369436
 H   -8.623357    1.867007    0.193624
 H   -7.457567   -1.978286   -1.319019
 H    5.355968   -2.207661    2.911486
 H    0.561999    3.066001   -0.405159
 H    4.574821    1.569206   -0.590111
 H    3.601642    1.603168    2.015483
 H   -6.363945    2.172815    1.146570
 H   -5.201153   -1.672647   -0.350546
 H    3.973149   -3.249095    1.147258
 H    0.386868   -0.831858    1.242517
 H    4.133060   -4.350491   -0.881799
 H    3.894826   -4.013211   -2.601434
 H    4.671657   -2.800871   -1.552869
 H   -4.058203    1.502557    1.266994
 H   -4.246744   -0.043583    2.094557
 H   -1.509582   -1.065810   -0.981783
