53 
2yem_ligand_ani.xyz
 C   -4.339652    4.534626    0.904951
 C    8.104890    0.862971    0.812493
 C   -3.016577    4.554325    0.473451
 C   -5.018708    3.323251    0.995776
 C   -4.831493   -1.115323   -2.220550
 C    8.004070    1.038584   -0.564098
 C    7.024194    0.348066    1.525009
 C   -4.513070   -2.424596   -1.871131
 C   -2.374794    3.370633    0.132457
 C   -4.382960    2.139452    0.641741
 C   -4.134709   -0.069152   -1.642312
 C    6.826700    0.696951   -1.224217
 C    5.847896    0.013824    0.863412
 C   -3.508793   -2.664834   -0.947576
 C   -3.058366    2.148182    0.190107
 C   -3.095751   -0.278336   -0.717310
 C    5.741256    0.183383   -0.517393
 C   -2.804368   -1.614582   -0.364669
 C   -0.538431   -1.366016    0.618613
 C   -1.759877   -2.871062    1.580454
 C   -2.329392    0.895109   -0.173249
 C    2.175611   -0.311363   -0.812090
 C   -0.208220   -0.200367   -0.294166
 C   -2.910113   -3.729850    1.981025
 C    4.476973   -0.224627   -1.227934
 N    0.192436   -1.922420    1.534277
 N   -0.582952   -2.877327    2.150758
 N   -1.047872    0.962425   -0.063267
 N   -1.789623   -1.925533    0.580711
 N    1.163839    0.216082   -0.071043
 O    2.052068   -1.193739   -1.635320
 O    3.349734    0.276249   -0.490312
 H   -4.838348    5.461281    1.175693
 H    9.023514    1.126039    1.330993
 H   -2.478066    5.497367    0.410031
 H   -6.050129    3.299896    1.336876
 H   -5.622700   -0.913050   -2.936219
 H    8.843906    1.441052   -1.125705
 H    7.096713    0.208133    2.601440
 H   -5.045557   -3.259298   -2.316082
 H   -1.335738    3.375869   -0.183674
 H   -4.921722    1.196852    0.705545
 H   -4.386933    0.954957   -1.904776
 H    6.749468    0.834065   -2.301662
 H    5.000169   -0.378316    1.419087
 H   -3.245784   -3.686376   -0.691435
 H   -0.297968   -0.568790   -1.331634
 H   -3.017727   -4.593419    1.314585
 H   -2.729963   -4.105532    2.989294
 H   -3.849116   -3.169900    1.957713
 H    4.441024    0.184727   -2.241719
 H    4.383556   -1.312792   -1.305587
 H    1.258295    1.139088    0.325467
