80 
2yge_ligand_xtb.xyz
 C    2.530100    1.693405    0.592552
 C    2.193386    0.298214    0.698942
 C    3.172711   -0.693381    0.155916
 C    4.394153   -0.304251   -0.262125
 C    4.804355    1.084290   -0.250282
 C    3.759473    2.091887    0.149236
 C    1.449680    2.663695    0.979073
 C    0.364623    2.762745   -0.114161
 C   -0.867768    3.445136    0.485732
 C   -2.030255    3.688194   -0.484710
 C   -2.598368    2.425914   -1.183422
 C   -2.915501    1.229846   -0.254454
 C   -3.450681    0.108722   -1.103283
 C   -3.418964   -1.208514   -0.930755
 C   -2.750518   -1.964727    0.196136
 C   -1.817196   -3.125019   -0.262677
 C   -0.791706   -2.573729   -1.215895
 C    0.464505   -3.006094   -1.299577
 C    1.006386   -4.158976   -0.594520
 C    2.271075   -4.281957   -0.168165
 C    3.233829   -3.147833   -0.245009
 N    2.662580   -1.957928    0.167742
 O    1.155551   -0.116033    1.210459
 O    5.932694    1.424886   -0.566860
 O    3.984494    3.409110    0.090052
 C    5.224724    3.966572   -0.300313
 C    0.913318    3.511377   -1.325008
 O   -3.118510    4.319643    0.183765
 C   -3.012796    5.712391    0.309440
 O   -3.716096    2.818749   -1.942951
 C   -3.974082    1.562919    0.803512
 C   -4.170444   -2.100912   -1.879958
 O   -1.906894   -1.136239    0.989310
 C   -2.159260   -1.058197    2.314492
 O   -3.056115   -1.632583    2.880046
 N   -1.273161   -0.216103    2.891194
 O   -2.460918   -4.226760   -0.867931
 C   -3.179411   -5.049382    0.017149
 C    2.838859   -5.543523    0.399111
 O    4.386829   -3.244529   -0.592118
 H    5.120054   -1.019770   -0.616877
 H    0.984813    2.304497    1.899563
 H    1.880585    3.647617    1.158367
 H    0.091012    1.748145   -0.418777
 H   -1.241588    2.847799    1.318832
 H   -0.562401    4.416022    0.886043
 H   -1.697764    4.362041   -1.290244
 H   -1.856898    2.085913   -1.916732
 H   -1.990709    0.935344    0.239158
 H   -4.017174    0.475886   -1.951120
 H   -3.532621   -2.377815    0.852361
 H   -1.308935   -3.474082    0.654638
 H   -1.123051   -1.743335   -1.820619
 H    1.149049   -2.492238   -1.963476
 H    0.331727   -4.996792   -0.476115
 H    1.703923   -1.980161    0.517211
 H    6.030127    3.671851    0.374526
 H    5.071622    5.044578   -0.248815
 H    5.496154    3.678270   -1.317431
 H    1.837593    3.050836   -1.665158
 H    0.206612    3.491098   -2.149936
 H    1.122256    4.547740   -1.068400
 H   -2.188914    6.006439    0.969142
 H   -2.870404    6.190303   -0.667865
 H   -3.951625    6.051573    0.744349
 H   -4.300586    3.288101   -1.332032
 H   -4.094999    0.718771    1.478144
 H   -4.934521    1.756555    0.329931
 H   -3.688522    2.437090    1.380022
 H   -4.927827   -2.667759   -1.339199
 H   -4.663182   -1.508947   -2.645950
 H   -3.504766   -2.816570   -2.356812
 H   -1.243849   -0.183165    3.894928
 H   -0.445022    0.021002    2.363100
 H   -3.514051   -5.902345   -0.570518
 H   -4.050710   -4.540225    0.440838
 H   -2.543363   -5.397340    0.840457
 H    3.061449   -5.418548    1.459215
 H    2.150112   -6.374668    0.277162
 H    3.776821   -5.768317   -0.106518
