23 
2ygu_ligand_ani.xyz
 C  -14.223145   30.905292   -7.753325
 C  -13.770303   31.514903   -6.428677
 C  -12.454807   30.924086   -5.923317
 C  -11.989574   31.525179   -4.598662
 C  -10.674598   30.932846   -4.096224
 C  -10.206429   31.532413   -2.770958
 C   -8.891195   30.931332   -2.280805
 H  -14.370826   29.823103   -7.657299
 H  -15.166573   31.343189   -8.095498
 H  -13.473800   31.068244   -8.536962
 H  -14.548412   31.364434   -5.667485
 H  -13.656632   32.602008   -6.541888
 H  -11.674348   31.072402   -6.684655
 H  -12.565845   29.835217   -5.810204
 H  -12.770317   31.377139   -3.837248
 H  -11.878829   32.614279   -4.711810
 H   -9.893943   31.081163   -4.857361
 H  -10.785340   29.843976   -3.982829
 H  -10.986912   31.382066   -2.012174
 H  -10.095350   32.619485   -2.887012
 H   -8.089080   31.094437   -3.010303
 H   -8.575757   31.375387   -1.330963
 H   -8.985987   29.849418   -2.130341
