30 
2yhw_ligand_xtb.xyz
 C    0.450444   -1.317809    0.796965
 O   -0.083851   -1.682385    2.035233
 C    0.967917    0.126258    0.934789
 N    1.755169    0.532798   -0.207694
 C    2.874210   -0.100011   -0.633888
 O    3.246633   -1.169882   -0.202305
 C    3.595022    0.652460   -1.734358
 C   -0.223791    1.076224    1.068662
 O    0.242164    2.404690    1.045520
 C   -1.225440    0.845945   -0.075281
 O   -2.314179    1.709409    0.148970
 C   -1.631915   -0.632445   -0.106542
 C   -2.526278   -0.960517   -1.304713
 O   -3.744130   -0.252385   -1.187265
 O   -0.490470   -1.461355   -0.237646
 H    1.282230   -1.969889    0.502189
 H   -0.305329   -2.620960    2.015723
 H    1.571317    0.165193    1.851543
 H    1.611216    1.498137   -0.467865
 H    4.416272    0.045762   -2.103667
 H    2.911251    0.873774   -2.549861
 H    3.989590    1.587640   -1.343184
 H   -0.735293    0.865031    2.018804
 H   -0.540749    2.967466    0.991640
 H   -0.736510    1.094024   -1.033552
 H   -3.089343    1.332425   -0.291981
 H   -2.171608   -0.862954    0.824772
 H   -2.697382   -2.043087   -1.316843
 H   -1.997288   -0.682098   -2.225499
 H   -4.324905   -0.505423   -1.912214
