39 
2yi5_ligand_dft.xyz
 N   -0.786377    3.702027    0.198292
 N   -1.324520    2.765823    0.779296
 C   -0.723442    1.432957    0.565725
 C    0.108245    1.467845   -0.743455
 C   -1.747563    0.332441    0.567574
 C    1.257956    0.490413   -0.723950
 C    2.365835    0.695360    0.106727
 C    3.368698   -0.261758    0.197247
 C    3.270643   -1.445398   -0.564709
 C    2.175236   -1.636428   -1.388805
 C    1.166869   -0.676063   -1.471221
 C   -1.437384   -0.924153    1.107694
 C   -2.349775   -1.971067    1.042191
 C   -3.594988   -1.787089    0.444218
 C   -3.907844   -0.530490   -0.084584
 C   -2.992711    0.509377   -0.023344
 O   -4.436456   -2.838791    0.412423
 O   -0.224532   -1.061167    1.697813
 O    4.217254   -2.425430   -0.464800
 S    0.552644    3.229556   -0.878803
 C    5.458935   -2.113698   -1.079392
Cl   -5.477729   -0.290227   -0.825854
 C    4.589746    0.990974    1.797331
 O    4.467510   -0.155284    0.983817
 H   -0.043938    1.298341    1.417758
 H   -0.549826    1.225141   -1.583927
 H    2.427373    1.612888    0.681828
 H    2.122212   -2.557108   -1.961085
 H    0.306518   -0.847378   -2.111691
 H   -2.121340   -2.946616    1.460984
 H   -3.258716    1.477978   -0.434824
 H   -5.262018   -2.571974   -0.017781
 H   -0.073456   -1.984610    1.931236
 H    6.092609   -2.993001   -0.951343
 H    5.933019   -1.248597   -0.605230
 H    5.321729   -1.916864   -2.150594
 H    5.525346    0.869717    2.343992
 H    4.635957    1.909126    1.198181
 H    3.758949    1.065004    2.510246
