39 
2yi5_ligand_ani.xyz
 N   -0.829075    3.763698    0.121679
 N   -1.448934    2.813054    0.619598
 C   -0.792536    1.490486    0.538345
 C    0.111142    1.531033   -0.716434
 C   -1.785158    0.358709    0.553432
 C    1.244041    0.530615   -0.717732
 C    2.307574    0.637243    0.179494
 C    3.336367   -0.303062    0.181219
 C    3.320472   -1.361114   -0.748684
 C    2.243556   -1.474446   -1.617895
 C    1.214043   -0.540149   -1.605499
 C   -1.410068   -0.884565    1.077023
 C   -2.264980   -1.976505    1.013966
 C   -3.527738   -1.844950    0.438219
 C   -3.909730   -0.598053   -0.066708
 C   -3.048349    0.486687   -0.007401
 O   -4.322736   -2.934540    0.402785
 O   -0.189256   -0.963131    1.671670
 O    4.266680   -2.344765   -0.787249
 S    0.586882    3.274813   -0.785230
 C    5.636808   -1.964752   -0.854131
Cl   -5.497481   -0.430768   -0.774691
 C    4.347866    0.695848    2.076131
 O    4.380722   -0.277714    1.055607
 H   -0.140541    1.397396    1.419073
 H   -0.519129    1.361294   -1.595529
 H    2.321939    1.457139    0.893517
 H    2.237613   -2.313037   -2.308181
 H    0.378754   -0.650325   -2.293863
 H   -1.974199   -2.944915    1.415899
 H   -3.359201    1.452854   -0.389235
 H   -5.164658   -2.701774   -0.016332
 H   -0.025327   -1.874572    1.942905
 H    6.162620   -2.825850   -1.274637
 H    6.036077   -1.731839    0.136723
 H    5.771640   -1.100405   -1.516210
 H    5.211333    0.501778    2.714092
 H    4.423683    1.709009    1.661352
 H    3.429363    0.615073    2.672329
