64 
2yjq_ligand_xtb.xyz
 C    6.801745   -0.945435   -0.959471
 C    5.527611   -1.263399   -0.154829
 C    4.304057   -0.368650   -0.455664
 C    4.400591    1.038585    0.198626
 C    4.897440    0.896344    1.644775
 O    7.392682    0.289415   -0.579059
 O    5.822846   -1.250984    1.240056
 O    3.190462   -1.075877    0.042534
 O    5.268469    1.881078   -0.539989
 N    6.118127    0.069562    1.652392
 C    0.938254   -1.814614   -0.183510
 C   -0.470168   -1.355826   -0.602441
 C   -0.797790    0.043701   -0.047288
 C    0.349203    1.012008   -0.372614
 C    0.132500    2.387853    0.253792
 C    1.955064   -0.709393   -0.482044
 O    1.320104   -2.955951   -0.894859
 O   -1.362588   -2.334611   -0.142587
 O   -1.966156    0.567146   -0.650226
 O    1.571695    0.502752    0.119580
 O    1.144302    3.257075   -0.215790
 C   -4.072992    1.598628   -0.439197
 C   -5.459421    1.434753    0.186634
 C   -6.000962    0.018732   -0.051541
 C   -4.970983   -1.010133    0.442943
 C   -5.376188   -2.444907    0.085871
 C   -3.148615    0.484227    0.059195
 O   -3.496966    2.824621   -0.074866
 O   -6.296167    2.412155   -0.372253
 O   -7.219536   -0.066398    0.635566
 O   -3.708473   -0.798098   -0.163798
 O   -6.585382   -2.750414    0.742402
 H    6.588097   -0.968009   -2.030035
 H    7.550223   -1.709738   -0.735268
 H    5.222720   -2.297267   -0.340039
 H    4.216591   -0.237159   -1.545092
 H    3.386569    1.446887    0.230442
 H    5.127138    1.876465    2.064287
 H    4.125540    0.396954    2.233247
 H    6.920561    1.026180   -1.005533
 H    4.782399    2.640468   -0.875995
 H    6.531207   -0.014869    2.587407
 H    6.833912    0.419976    0.910452
 H    0.943629   -2.005853    0.899774
 H   -0.505595   -1.294208   -1.703256
 H   -0.920512   -0.023053    1.042752
 H    0.408333    1.128360   -1.464712
 H   -0.866907    2.731242   -0.029437
 H    0.194562    2.295534    1.346326
 H    2.024911   -0.580683   -1.580881
 H    0.605059   -3.600225   -0.803304
 H   -2.267516   -1.992565   -0.251742
 H    0.845315    4.164177   -0.091921
 H   -4.153783    1.517307   -1.532575
 H   -5.378108    1.589296    1.276524
 H   -6.152658   -0.123806   -1.135116
 H   -4.887604   -0.918889    1.537769
 H   -4.571208   -3.120496    0.400690
 H   -5.488855   -2.517720   -1.003918
 H   -2.976269    0.625740    1.144702
 H   -4.166272    3.501664   -0.246941
 H   -7.201444    2.199216   -0.111790
 H   -7.437987   -1.002094    0.760295
 H   -6.817324   -3.669876    0.573019
