15 
2yln_ligand_xtb.xyz
 N   -0.122290    1.513803    0.275940
 C    0.219044    0.091724    0.523033
 C    1.661640   -0.082455   -0.010037
 O    2.194175   -1.223215    0.315178
 C   -0.727624   -0.805174   -0.281090
 S   -2.458889   -0.204750   -0.007547
 O    2.141253    0.797991   -0.672770
 H   -1.112473    1.539137   -0.067710
 H   -0.036967    2.106677    1.106845
 H    0.572949    1.841800   -0.438687
 H    0.162745   -0.155412    1.584979
 H    3.096470   -1.346903   -0.032018
 H   -0.640525   -1.838179    0.051413
 H   -0.511926   -0.744820   -1.347092
 H   -2.933806   -0.545695   -1.199247
