49 
2yof_ligand_ani.xyz
 O   -1.787451   -3.591631   -1.838407
 C   -1.253714   -3.139832   -0.846823
 N   -0.222748   -3.778241   -0.195192
 C    0.486458   -3.350108    0.927638
 O    1.374601   -4.037891    1.396309
 C    0.051079   -2.059981    1.459566
 C    0.809801   -1.520010    2.631831
 C   -0.996853   -1.445370    0.867017
 N   -1.634794   -1.933865   -0.258480
 C   -2.792875   -1.259485   -0.853603
 O   -2.589570    0.143452   -0.756880
 C   -4.133351   -1.557172   -0.158049
 C   -4.406926   -0.282857    0.638653
 O   -5.750069   -0.024962    0.967003
 C   -3.756665    0.794733   -0.227999
 C   -3.393024    2.052031    0.552172
 N   -2.698196    3.060647   -0.235287
 C   -1.340392    3.208929   -0.284601
 S   -0.660959    4.692516   -0.646548
 N   -0.655031    2.056024   -0.047529
 C    0.738724    1.885872    0.088885
 C    1.305831    0.787924   -0.551454
 C    1.530044    2.703260    0.889122
 C    2.874508    2.399407    1.053856
 C    3.436908    1.297053    0.420130
Cl    5.119132    0.960577    0.712084
 C    2.655942    0.492120   -0.411879
 C    3.193065   -0.728368   -1.121373
 F    2.282849   -1.246094   -1.967148
 F    4.289273   -0.460215   -1.846922
 F    3.517003   -1.705084   -0.249696
 H    0.058494   -4.664860   -0.593585
 H    1.844530   -1.291437    2.350660
 H    0.351640   -0.608699    3.033494
 H    0.863199   -2.264040    3.432275
 H   -1.409880   -0.524336    1.265932
 H   -2.801324   -1.549526   -1.903435
 H   -4.102801   -2.452402    0.467243
 H   -4.910636   -1.700606   -0.919934
 H   -3.867607   -0.333139    1.593784
 H   -6.247274    0.044687    0.140807
 H   -4.417485    1.061175   -1.067871
 H   -4.320022    2.494411    0.927467
 H   -2.782466    1.789046    1.425772
 H   -3.181952    3.932549   -0.392597
 H   -1.165798    1.204909   -0.271258
 H    0.683130    0.159344   -1.179224
 H    1.098332    3.563382    1.389601
 H    3.499831    3.019442    1.686803
