49 
2yof_ligand_xtb.xyz
 O   -1.669700   -3.375014   -2.110566
 C   -1.219656   -3.056917   -1.035273
 N   -0.249615   -3.766575   -0.386594
 C    0.341595   -3.503263    0.847501
 O    1.174660   -4.247653    1.301915
 C   -0.168582   -2.289598    1.484666
 C    0.441310   -1.892713    2.787656
 C   -1.141869   -1.594402    0.874168
 N   -1.675315   -1.943831   -0.341659
 C   -2.708307   -1.145770   -0.983625
 O   -2.457483    0.226318   -0.763271
 C   -4.118657   -1.445703   -0.450616
 C   -4.443858   -0.234710    0.434974
 O   -5.792602    0.082503    0.555236
 C   -3.597988    0.880269   -0.222262
 C   -3.196618    1.973301    0.779365
 N   -2.607887    3.144935    0.177686
 C   -1.277199    3.350092   -0.026121
 S   -0.742503    4.890882   -0.255867
 N   -0.526731    2.216163   -0.057330
 C    0.843332    2.029865   -0.058449
 C    1.293772    0.738387   -0.335298
 C    1.779334    3.016035    0.254946
 C    3.124076    2.709631    0.290809
 C    3.570899    1.422140    0.024901
Cl    5.253746    1.065081    0.100241
 C    2.642584    0.431150   -0.294217
 C    3.085903   -0.980674   -0.568633
 F    2.054860   -1.776524   -0.911164
 F    3.969352   -1.073275   -1.570061
 F    3.650994   -1.553017    0.505544
 H    0.105097   -4.575247   -0.886515
 H    1.517769   -1.783695    2.664530
 H    0.021217   -0.960371    3.154654
 H    0.283563   -2.679006    3.523999
 H   -1.553123   -0.694979    1.309070
 H   -2.624572   -1.374322   -2.054923
 H   -4.147097   -2.387228    0.091920
 H   -4.827901   -1.500599   -1.277546
 H   -4.099005   -0.401596    1.461180
 H   -6.194839    0.155841   -0.319551
 H   -4.167987    1.340022   -1.044919
 H   -4.107269    2.272878    1.302838
 H   -2.501153    1.547750    1.512337
 H   -3.161286    3.987141    0.138942
 H   -1.052669    1.369015   -0.256278
 H    0.581067   -0.032442   -0.586561
 H    1.451727    4.020363    0.465503
 H    3.843387    3.474541    0.534024
