48 
2yoh_ligand_ani.xyz
 O    4.139708    2.918684   -0.328591
 C    4.754644    1.873508   -0.263002
 N    6.123170    1.812787   -0.150981
 C    6.929400    0.675775   -0.055186
 O    8.137519    0.782493    0.040552
 C    6.189164   -0.587573   -0.083517
 C    6.991988   -1.847598    0.005844
 C    4.849779   -0.550759   -0.195891
 N    4.131202    0.630311   -0.295602
 C    2.662599    0.657649   -0.371813
 O    2.172466   -0.605734   -0.785493
 C    1.990262    0.979524    0.979052
 C    0.804640    0.023009    0.984862
 O    0.303881   -0.258796    2.260020
 C    1.451160   -1.187095    0.304764
 C    0.522618   -2.289190   -0.176382
 N   -0.646500   -1.834689   -0.906406
 C   -1.793637   -1.497240   -0.230331
 O   -1.873924   -1.571940    0.994251
 N   -2.823091   -1.087580   -1.044019
 C   -4.074033   -0.565991   -0.661350
 C   -4.855122    0.006690   -1.674188
 C   -6.095429    0.548859   -1.385158
 C   -4.551712   -0.606780    0.652778
 C   -5.795263   -0.066529    0.942303
 C   -6.549656    0.505513   -0.072877
 N   -7.858774    1.080020    0.248054
 O   -8.501088    1.570137   -0.665339
 O   -8.228027    1.034497    1.409210
 H    6.596193    2.706699   -0.129959
 H    7.734411   -1.888562   -0.798054
 H    6.361296   -2.741886   -0.055764
 H    7.554929   -1.882572    0.944546
 H    4.252977   -1.456206   -0.233491
 H    2.408825    1.393031   -1.138196
 H    1.715781    2.034591    1.061601
 H    2.659958    0.723037    1.806304
 H    0.018669    0.429590    0.329159
 H   -0.516675   -0.762250    2.107583
 H    2.174939   -1.624873    1.013079
 H    0.161190   -2.846301    0.692152
 H    1.092297   -2.973028   -0.812983
 H   -0.487627   -1.464863   -1.832621
 H   -2.672166   -1.136855   -2.040457
 H   -4.484876    0.038073   -2.695592
 H   -6.710676    1.000278   -2.154444
 H   -3.949122   -1.056821    1.429742
 H   -6.185075   -0.082388    1.953737
