25 
2ypp_ligand_dft.xyz
 N    1.343073   -1.153420   -0.997813
 C    1.760344    0.169518   -0.422934
 C    3.242080    0.019979   -0.101706
 O    3.776941   -1.063646   -0.069664
 C    0.920412    0.472071    0.840792
 C   -0.554095    0.322515    0.558244
 C   -1.263481    1.322375   -0.113529
 C   -1.230610   -0.857598    0.900726
 C   -2.603514    1.156546   -0.432855
 C   -2.569024   -1.039804    0.579609
 C   -3.264063   -0.029503   -0.091021
 O   -4.557964   -0.262562   -0.373824
 O    3.800769    1.183715    0.168140
 H    1.455066   -1.196496   -2.013932
 H    0.351445   -1.333130   -0.763769
 H    1.959174   -1.877233   -0.591453
 H    1.594042    0.936247   -1.181806
 H    1.177180    1.487261    1.156037
 H    1.231400   -0.204061    1.645863
 H   -0.770510    2.255520   -0.376215
 H   -0.716909   -1.632697    1.468058
 H   -3.140161    1.953320   -0.941244
 H   -3.097501   -1.944518    0.858968
 H   -4.963388    0.507467   -0.792705
 H    4.732395    1.045606    0.415733
