39 
2z4b_ligand_dft.xyz
 C   -1.502720   -1.322552   -0.183384
 C    0.570012   -0.632471    0.669882
 C    0.115695    0.827228    0.714875
 C    0.396735    1.619701   -0.563970
 C   -1.420105    0.955329    0.935112
 C   -2.169628   -0.264670    0.439350
 C    2.967891   -0.532124    1.415916
 C    4.333841   -0.585085    1.183080
 C    4.804167   -0.879026   -0.097538
 C    3.897173   -1.117779   -1.128536
 C   -4.273692   -1.410702    0.054352
 C   -3.595896   -2.449572   -0.586149
 C   -2.213403   -2.404694   -0.694836
 O   -0.141985   -1.341960   -0.334041
 C   -0.541278    2.799121   -0.415620
 F   -0.737920    3.480777   -1.576348
 F    0.006419    3.695124    0.470895
 C   -1.837009    2.240862    0.161931
 C   -3.557808   -0.331685    0.560067
 C    2.047696   -0.763798    0.391091
 O    6.151901   -0.922986   -0.274759
 C    2.529114   -1.057256   -0.881616
 O   -5.628136   -1.397061    0.210150
 H    0.339550   -1.092878    1.643872
 H    0.635119    1.315435    1.546559
 H    0.102214    1.041044   -1.446601
 H    1.436474    1.932359   -0.675689
 H   -1.630579    1.078079    2.002486
 H    2.610799   -0.309691    2.419228
 H    5.049860   -0.408790    1.978678
 H    4.256835   -1.352233   -2.128410
 H   -4.142966   -3.298571   -0.989766
 H   -1.664904   -3.208404   -1.174750
 H   -2.512336    1.998512   -0.661979
 H   -2.323570    2.986605    0.794227
 H   -4.103403    0.473956    1.043852
 H    6.343334   -1.137742   -1.195392
 H    1.826098   -1.251149   -1.684219
 H   -5.997971   -2.198551   -0.177864
