76 
2z4o_ligand_ani.xyz
 C   -6.193738   -0.820014   -0.113680
 O   -7.409881   -0.219411    0.091035
 C   -7.408708    0.912293   -0.766502
 O   -6.052859    1.204123   -1.093410
 C   -5.371644    0.041889   -0.837908
 C   -4.080424   -0.296074   -1.156359
 C   -3.626295   -1.539519   -0.694280
 C   -4.444214   -2.410114    0.016380
 C   -5.761250   -2.049786    0.325737
 S   -1.936442   -1.978007   -0.989138
 O   -1.830890   -3.426110   -0.996015
 O   -1.493774   -1.196339   -2.144889
 N   -1.106461   -1.415289    0.333434
 C   -0.698045   -2.323036    1.399203
 C    0.817232   -2.552578    1.488833
 C    1.369893   -3.141886    0.188017
 C    1.115457   -3.470088    2.676015
 C   -0.951344    0.022412    0.538943
 C    0.302671    0.607334   -0.134561
 O    0.064938    1.001591   -1.465904
 C    0.892329    1.810549    0.619671
 N    2.304034    1.980742    0.322441
 C    3.213268    1.096990    0.828972
 O    2.988305    0.261028    1.681355
 O    4.421008    1.285095    0.244607
 C    5.453023    0.388514    0.687170
 C    5.295722   -1.023545    0.125722
 O    6.614146   -1.553180    0.154821
 C    7.520964   -0.533215   -0.149725
 O    7.840269   -0.533722   -1.523051
 C    7.884354    0.806565   -1.985968
 C    6.790879    1.532031   -1.206964
 C    6.824158    0.823504    0.152562
 C    0.177388    3.131977    0.302300
 C   -1.844804    3.036676    1.812789
 C   -3.214111    2.904773    2.018226
 C   -4.078901    2.829740    0.929897
 C   -3.566927    2.911789   -0.363739
 C   -2.196738    3.052921   -0.563082
 C   -1.316745    3.106046    0.520303
 H   -7.849007    1.762468   -0.242074
 H   -7.968429    0.682441   -1.686456
 H   -3.426330    0.353857   -1.729140
 H   -4.058485   -3.377992    0.324019
 H   -6.415986   -2.708025    0.887380
 H   -1.050634   -1.893327    2.345643
 H   -1.216436   -3.274672    1.244441
 H    1.313358   -1.585951    1.671527
 H    0.887977   -4.099166   -0.050785
 H    2.447362   -3.320762    0.277348
 H    1.210224   -2.469153   -0.663187
 H    0.748532   -3.040648    3.615679
 H    0.633001   -4.447125    2.540205
 H    2.192481   -3.639963    2.782704
 H   -1.845787    0.553099    0.201467
 H   -0.876822    0.171371    1.621303
 H    1.068355   -0.188458   -0.114232
 H   -0.411867    0.272215   -1.903097
 H    0.836512    1.600862    1.694573
 H    2.546074    2.390236   -0.569034
 H    5.454859    0.359290    1.780543
 H    4.651153   -1.660704    0.736461
 H    4.911861   -0.998782   -0.903443
 H    8.433770   -0.733074    0.428385
 H    7.716606    0.781997   -3.066291
 H    8.874014    1.251908   -1.797401
 H    6.956222    2.608801   -1.130648
 H    5.822281    1.370758   -1.687860
 H    7.375329    1.405375    0.899504
 H    0.644068    3.901993    0.928747
 H    0.388964    3.384007   -0.741658
 H   -1.169531    3.073536    2.667863
 H   -3.603343    2.855114    3.032408
 H   -5.146322    2.711112    1.091213
 H   -4.236600    2.828846   -1.215091
 H   -1.788154    3.086998   -1.572186
