104 
2z5o_ligand_ani.xyz
 N    3.365076   -3.063867   -0.677378
 C    4.617446   -2.593896   -0.031055
 C    5.034891   -1.224650   -0.595060
 O    6.169041   -1.001781   -0.981659
 C    5.735327   -3.612363   -0.195287
 N    4.058508   -0.258321   -0.585814
 C    4.288994    1.004522   -1.276620
 C    3.554068    2.164560   -0.588201
 O    3.133346    3.122039   -1.229738
 C    3.928790    0.937038   -2.757361
 N    3.418862    2.051647    0.756607
 C    3.117037    3.150332    1.676395
 C    1.649221    3.600874    1.729059
 O    1.182645    3.940012    2.808376
 C    4.009748    4.382842    1.471547
 N    0.941166    3.649845    0.568864
 C   -0.342257    4.320885    0.520470
 C   -1.407032    3.438915   -0.148217
 O   -1.148921    2.409901   -0.753751
 C   -0.229453    5.678549   -0.189503
 N   -2.698204    3.861013   -0.001542
 C   -3.786564    3.272299   -0.786003
 C   -4.048517    1.798498   -0.411762
 O   -4.426708    0.992416   -1.262628
 C   -3.606644    3.414060   -2.295423
 N   -3.869831    1.472158    0.887862
 C   -4.411511    0.271255    1.534604
 C   -3.734764   -1.016649    1.025635
 O   -2.835176   -1.547373    1.671431
 C   -5.943368    0.210078    1.476093
 N   -4.209395   -1.539732   -0.131111
 C   -3.619140   -2.726918   -0.714735
 C   -2.350721   -2.463347   -1.537273
 O   -1.621307   -3.411465   -1.839759
 C   -4.628718   -3.493210   -1.564103
 N   -2.075010   -1.201444   -1.941739
 C   -0.716071   -0.879288   -2.351282
 C    0.234905   -0.791381   -1.141463
 O    1.356809   -1.297669   -1.227707
 C   -0.683929    0.370876   -3.221047
 N   -0.226548   -0.171888   -0.035586
 C    0.516544   -0.084178    1.215738
 C    0.961050   -1.489537    1.657265
 O    2.146850   -1.810027    1.665401
 C   -0.318120    0.638744    2.268374
 N   -0.035323   -2.339035    1.992643
 C    0.208762   -3.771316    2.118943
 C    0.103970   -4.337625    0.700522
 O   -1.121838   -4.756821    0.374813
 C   -0.738460   -4.406601    3.122600
 O    1.032777   -4.314538   -0.079497
 H    2.555935   -2.490364   -0.396062
 H    3.117254   -4.013680   -0.363809
 H    3.420585   -3.059025   -1.710710
 H    4.380435   -2.449017    1.029638
 H    5.997704   -3.739434   -1.249653
 H    6.632888   -3.285408    0.332874
 H    5.420849   -4.578094    0.213992
 H    3.092536   -0.571664   -0.559624
 H    5.363889    1.206957   -1.175422
 H    4.115029    1.903263   -3.231798
 H    4.534981    0.170791   -3.249678
 H    2.870942    0.687145   -2.896871
 H    3.823798    1.211897    1.152097
 H    3.294936    2.751487    2.678237
 H    5.065013    4.106216    1.554633
 H    3.781578    5.127919    2.240391
 H    3.844031    4.824756    0.486012
 H    1.428992    3.470810   -0.304160
 H   -0.641626    4.482253    1.563313
 H    0.064387    5.547395   -1.237802
 H    0.526323    6.293152    0.308087
 H   -1.176635    6.228445   -0.167925
 H   -2.846873    4.801034    0.331294
 H   -4.688369    3.820094   -0.480588
 H   -3.505859    4.467776   -2.571544
 H   -2.710919    2.883233   -2.623961
 H   -4.468455    2.989090   -2.813742
 H   -3.522250    2.202946    1.492320
 H   -4.095065    0.340038    2.578880
 H   -6.302680   -0.711638    1.943658
 H   -6.307052    0.246435    0.445958
 H   -6.368718    1.062540    2.014310
 H   -4.725947   -0.919050   -0.745455
 H   -3.277956   -3.366169    0.108785
 H   -5.495955   -3.766740   -0.956887
 H   -4.172639   -4.406554   -1.957476
 H   -4.971215   -2.888963   -2.413112
 H   -2.710722   -0.445618   -1.703724
 H   -0.343115   -1.737228   -2.914404
 H   -1.062810    1.240193   -2.673442
 H    0.341546    0.586540   -3.543152
 H   -1.295609    0.212736   -4.113895
 H   -0.990112    0.486117   -0.142555
 H    1.449364    0.467180    1.049755
 H    0.205637    0.658528    3.229346
 H   -1.294735    0.164720    2.405734
 H   -0.481524    1.677412    1.957996
 H   -0.999567   -2.031290    1.870754
 H    1.254652   -3.876588    2.423239
 H   -1.206207   -4.692674   -0.605402
 H   -1.778144   -4.259307    2.816902
 H   -0.553004   -5.481735    3.201864
 H   -0.587656   -3.949236    4.103787
