104 
2z5o_ligand_xtb.xyz
 N    3.984921   -2.118592   -1.027159
 C    4.954828   -1.364303   -0.183968
 C    5.068980    0.062143   -0.774931
 O    6.044693    0.450571   -1.369731
 C    6.293776   -2.074808   -0.179053
 N    3.953969    0.787153   -0.555911
 C    3.701029    2.013516   -1.289580
 C    2.673728    2.900246   -0.583935
 O    1.955267    3.655196   -1.217910
 C    3.254120    1.710552   -2.721076
 N    2.636312    2.767334    0.754704
 C    1.972904    3.664519    1.701353
 C    0.431868    3.664486    1.678973
 O   -0.202381    3.518543    2.706823
 C    2.453437    5.108471    1.525449
 N   -0.137341    3.925773    0.494166
 C   -1.547166    4.208265    0.380430
 C   -2.348744    2.965554   -0.006085
 O   -1.845507    1.922087   -0.379754
 C   -1.757596    5.307820   -0.662329
 N   -3.687686    3.091360    0.121951
 C   -4.585348    2.148615   -0.531715
 C   -4.153901    0.693301   -0.279222
 O   -4.029446   -0.111603   -1.184474
 C   -4.682769    2.425099   -2.030668
 N   -4.029635    0.375688    1.023309
 C   -4.059069   -0.970808    1.593703
 C   -3.139014   -1.971733    0.868698
 O   -2.018512   -2.200710    1.297989
 C   -5.503221   -1.471419    1.685071
 N   -3.656898   -2.615698   -0.179886
 C   -2.886590   -3.577989   -0.943298
 C   -1.591365   -2.971388   -1.496596
 O   -0.580489   -3.646112   -1.625686
 C   -3.729017   -4.117560   -2.092407
 N   -1.664119   -1.685879   -1.853598
 C   -0.478416   -0.968887   -2.275599
 C    0.404271   -0.659448   -1.065232
 O    1.626929   -0.809064   -1.108321
 C   -0.861412    0.316528   -2.996941
 N   -0.228825   -0.248059    0.026051
 C    0.473678    0.140919    1.238589
 C    1.462991   -0.966887    1.611638
 O    2.666711   -0.763167    1.661511
 C   -0.511926    0.403421    2.366889
 N    0.885767   -2.141180    1.877380
 C    1.630910   -3.363547    2.131928
 C    1.554905   -4.089725    0.788255
 O    0.385963   -4.625209    0.575081
 C    1.011426   -4.149684    3.276116
 O    2.454663   -4.058784   -0.028459
 H    3.109375   -1.568989   -1.188548
 H    3.644425   -2.992840   -0.558421
 H    4.410933   -2.357400   -1.925549
 H    4.531982   -1.292058    0.820987
 H    6.747772   -2.032923   -1.166639
 H    6.969251   -1.578172    0.510467
 H    6.181922   -3.110641    0.129932
 H    3.154835    0.323248   -0.136708
 H    4.645305    2.573766   -1.327127
 H    2.928042    2.627683   -3.201896
 H    4.079968    1.285391   -3.283826
 H    2.427307    1.003983   -2.704163
 H    3.318842    2.142819    1.161135
 H    2.246873    3.312584    2.700177
 H    3.528307    5.165162    1.681109
 H    1.962008    5.749357    2.252294
 H    2.225765    5.466610    0.525028
 H    0.452091    3.983293   -0.338211
 H   -1.890554    4.535614    1.371774
 H   -1.408241    4.968009   -1.635012
 H   -1.187302    6.188740   -0.379786
 H   -2.804261    5.588685   -0.743467
 H   -4.070686    3.997461    0.344681
 H   -5.573644    2.263880   -0.069754
 H   -5.063583    3.427800   -2.205969
 H   -3.701987    2.329679   -2.489404
 H   -5.350166    1.706078   -2.496045
 H   -4.152550    1.120551    1.692669
 H   -3.643499   -0.881893    2.603204
 H   -5.523885   -2.497877    2.040177
 H   -5.999754   -1.419334    0.718762
 H   -6.063204   -0.855076    2.384813
 H   -4.511271   -2.278219   -0.597267
 H   -2.587075   -4.393975   -0.273318
 H   -4.615939   -4.616594   -1.709805
 H   -3.150768   -4.834545   -2.668470
 H   -4.031273   -3.306185   -2.751423
 H   -2.520323   -1.153197   -1.727020
 H    0.100760   -1.628103   -2.934587
 H   -1.385711    0.981416   -2.315872
 H    0.027162    0.824447   -3.362012
 H   -1.504351    0.087388   -3.842775
 H   -1.189984    0.055549   -0.043530
 H    1.056638    1.050096    1.042179
 H    0.026615    0.665250    3.273169
 H   -1.123759   -0.473616    2.552465
 H   -1.150113    1.242960    2.107281
 H   -0.115549   -2.249362    1.746063
 H    2.667002   -3.082794    2.345977
 H    0.190597   -4.750681   -0.384572
 H   -0.019291   -4.398863    3.039586
 H    1.567008   -5.068433    3.440817
 H    1.035750   -3.556625    4.186097
