30 
2z8e_ligand_ani.xyz
 C   -0.115976   -1.154817   -0.449386
 C   -0.649519    0.195372    0.100160
 C    0.140414    1.374604   -0.490368
 C    1.628446    1.185229   -0.251494
 C    2.050235   -0.159329   -0.848725
 C    3.500663   -0.506536   -0.533992
 C   -3.147110   -0.268663    0.086253
 C   -4.466760    0.454672   -0.069922
 N   -2.051307    0.475194   -0.213710
 O   -0.573689   -2.249976    0.243054
 O   -0.317494    2.594907    0.050701
 O    1.819215    1.255815    1.147036
 O    1.285065   -1.224031   -0.310300
 O    3.658778   -0.738503    0.859576
 O   -3.109378   -1.437220    0.469858
 H   -0.380068   -1.219879   -1.529929
 H   -0.492705    0.173485    1.188342
 H   -0.045582    1.419890   -1.570677
 H    2.186391    1.993869   -0.753711
 H    1.911861   -0.115659   -1.942395
 H    4.160059    0.327062   -0.792590
 H    3.806976   -1.389353   -1.109702
 H   -4.441776    1.230970   -0.840928
 H   -4.738003    0.923450    0.882627
 H   -5.238130   -0.277453   -0.313850
 H   -2.211431    1.463238   -0.373493
 H   -1.551528   -2.169391    0.323816
 H    0.061961    2.643419    0.943590
 H    2.611251    0.730616    1.366483
 H    2.977541   -1.391747    1.083837
