17 
2z94_ligand_xtb.xyz
 C    0.359094   -1.706800   -0.000828
 C   -0.619901   -0.721366   -0.000266
 C   -0.231411    0.619076   -0.000390
 C    1.118363    0.937542   -0.000307
 C    2.097395   -0.046228   -0.000252
 C    1.699490   -1.376691   -0.000826
 C    3.544130    0.342051    0.001132
 S   -2.303408   -1.261974    0.000636
 S   -1.447485    1.914393   -0.000436
 H    0.048574   -2.740455   -0.000981
 H    1.418278    1.976750   -0.000242
 H    2.440848   -2.161316   -0.001181
 H    3.778478    0.940866   -0.878189
 H    3.776981    0.938902    0.882215
 H    4.180248   -0.538718    0.000738
 H   -2.860852   -0.054899    0.003393
 H   -0.571232    2.914651    0.001476
