38 
2za0_ligand_ani.xyz
 O   -4.381151   -0.075658   -1.741009
 C   -3.989218    0.207472   -0.636476
 O   -4.751009    0.845726    0.277354
 C   -6.031275    1.270450   -0.201982
 C   -2.625206   -0.090987   -0.101166
 C   -1.525553    0.479946   -0.740979
 O   -1.766736    1.307608   -1.786665
 C   -0.221688    0.237694   -0.304149
 C   -2.422858   -0.924604    1.011457
 C   -3.579788   -1.561109    1.738778
 C   -1.126358   -1.175880    1.435937
 C   -0.035659   -0.603460    0.783249
 O    1.195693   -0.914399    1.306219
 C    2.320459   -0.360340    0.726156
 C    2.850100    0.816159    1.239404
 C    2.937014   -1.023000   -0.332848
 O    2.400005   -2.169727   -0.814922
 C    4.091398   -0.458877   -0.881762
 O    4.635614   -1.161277   -1.926693
 C    4.614024    0.728446   -0.382549
 C    4.000914    1.382465    0.687898
 C    4.561823    2.669385    1.237884
 H   -5.916126    1.953426   -1.048022
 H   -6.628717    0.411021   -0.517204
 H   -6.504509    1.779705    0.637544
 H   -0.923992    1.636278   -2.125615
 H    0.613685    0.706747   -0.815546
 H   -4.209114   -0.805452    2.215613
 H   -4.212015   -2.131057    1.051038
 H   -3.210420   -2.242195    2.509583
 H   -0.940469   -1.820035    2.290054
 H    2.345618    1.288868    2.077079
 H    2.962140   -2.469449   -1.544190
 H    5.424463   -0.705281   -2.244676
 H    5.512927    1.148618   -0.832297
 H    3.830164    3.483559    1.167742
 H    4.828679    2.565747    2.296665
 H    5.459589    2.978753    0.694848
