32 
2zas_ligand_xtb.xyz
 O   -4.529820   -1.324559    0.118061
 C   -3.309554   -0.718367    0.104094
 C   -3.111709    0.356760   -0.752661
 C   -1.887752    0.997383   -0.794093
 C   -2.262907   -1.139103    0.915041
 C   -1.044539   -0.491020    0.864216
 C   -0.832339    0.585230    0.008794
 C    0.519560    1.280615    0.037493
 C    0.557827    2.129514    1.316596
 C    0.743109    2.209079   -1.165210
 C    1.613040    0.225289   -0.012417
 C    2.717120    0.230127    0.828258
 C    3.700375   -0.739055    0.711791
 C    3.599301   -1.727361   -0.249517
 C    2.504277   -1.740331   -1.097336
 C    1.524375   -0.773757   -0.978472
 H   -4.524369   -2.049155    0.754776
 H   -3.928343    0.678323   -1.379453
 H   -1.769760    1.828952   -1.470107
 H   -2.404719   -1.976383    1.586639
 H   -0.238958   -0.835798    1.496359
 H   -0.310406    2.785678    1.336835
 H    0.526871    1.500256    2.202740
 H    1.451398    2.748712    1.347821
 H    0.594597    1.676691   -2.101375
 H    0.070518    3.062745   -1.128548
 H    1.765601    2.582131   -1.145711
 H    2.825033    0.988541    1.587554
 H    4.550534   -0.718322    1.378796
 H    4.366827   -2.482122   -0.338423
 H    2.413853   -2.506915   -1.853317
 H    0.668790   -0.796883   -1.638533
