32 
2zas_ligand_ani.xyz
 O   16.134451   23.333459   42.429040
 C   16.010255   24.643563   42.077706
 C   14.970424   25.371153   42.651192
 C   14.802858   26.711423   42.329130
 C   16.871574   25.269372   41.178448
 C   16.687758   26.611120   40.866631
 C   15.655588   27.361277   41.434019
 C   15.547764   28.853692   41.090555
 C   16.721334   29.570484   41.778043
 C   14.243007   29.479287   41.610011
 C   15.559027   29.041313   39.565015
 C   16.323360   30.014764   38.919946
 C   16.227586   30.201343   37.543078
 C   15.365859   29.416688   36.785278
 C   14.604188   28.436042   37.414450
 C   14.702455   28.252966   38.789309
 H   16.890938   22.953582   41.964726
 H   14.301229   24.875543   43.347983
 H   13.978899   27.249787   42.789658
 H   17.685420   24.709279   40.721039
 H   17.350931   27.080998   40.141994
 H   17.689190   29.205995   41.415298
 H   16.669931   30.653066   41.620880
 H   16.679069   29.390910   42.857059
 H   14.182135   29.420565   42.702108
 H   14.207084   30.536864   41.330133
 H   13.362471   28.990032   41.177747
 H   17.012720   30.637250   39.483449
 H   16.831676   30.968809   37.065071
 H   15.289651   29.563887   35.710883
 H   13.929878   27.813334   36.832512
 H   14.124291   27.468154   39.275613
