48 
2zb0_ligand_ani.xyz
 N   49.553199   37.560215   27.003663
 C   49.365146   36.466496   27.335711
 C   49.131219   35.104110   27.748633
 C   50.151795   34.161593   27.604556
 C   49.916980   32.851067   28.005478
 C   48.685487   32.489969   28.539853
 C   47.888108   34.754537   28.282077
 C   47.664215   33.436370   28.678909
 N   46.436689   32.992760   29.218988
 C   45.264921   33.689060   29.380303
 O   45.134463   34.877059   29.129350
 C   44.109824   32.895873   29.922005
 C   44.017739   31.501841   29.876412
 C   43.052886   33.623043   30.471148
 C   41.930502   32.979539   30.962777
 C   41.824067   31.586453   30.904115
 C   42.897063   30.859425   30.378552
 C   40.623902   30.868504   31.409784
 C   40.803685   29.835358   32.327672
 C   39.721668   29.149213   32.865453
 C   39.968662   28.089804   33.843158
 O   38.911775   27.458034   34.420943
 C   39.517295   26.567721   35.249104
 C   38.672287   25.675414   36.078890
 N   40.801970   26.639494   35.188439
 N   41.100311   27.635759   34.269774
 C   38.428904   29.473884   32.459592
 C   38.246774   30.478940   31.521972
 C   39.319822   31.188422   30.980411
 C   39.041785   32.246686   29.945126
 H   51.107666   34.458750   27.184970
 H   50.696782   32.102347   27.902628
 H   48.512334   31.460692   28.845291
 H   47.099314   35.486453   28.391391
 H   46.452025   32.051449   29.577119
 H   44.802965   30.895776   29.428718
 H   43.128062   34.704827   30.492266
 H   41.124647   33.563157   31.401190
 H   42.842430   29.772228   30.353874
 H   41.805383   29.563909   32.653169
 H   38.019983   25.063389   35.448655
 H   39.315198   25.022675   36.669988
 H   38.038632   26.260379   36.752723
 H   37.577853   28.939958   32.869102
 H   37.239787   30.723994   31.188429
 H   39.013422   33.247433   30.390740
 H   39.812172   32.259950   29.168658
 H   38.071201   32.079006   29.470234
