47 
2zb1_ligand_xtb.xyz
 O    4.956228    1.156469    1.007471
 C    4.196955    0.241853    0.748956
 N    4.595894   -1.050041    0.684679
 C    5.986290   -1.438259    0.786260
 C    6.538499   -1.879050   -0.551162
 C    6.848981   -0.831416   -1.578587
 C    7.962383   -1.569854   -0.903216
 C    2.737641    0.457561    0.518219
 C    2.005109   -0.280482   -0.406387
 C    0.662452   -0.017562   -0.599434
 C    2.102930    1.469418    1.231783
 C    0.760719    1.728958    1.040666
 C    0.024057    0.989750    0.118994
 C   -1.415674    1.237187   -0.090673
 C   -1.914240    2.500249   -0.435518
 C   -1.015496    3.678519   -0.656467
 C   -3.286565    2.655699   -0.603206
 C   -4.160323    1.599957   -0.446099
 C   -2.290642    0.168299    0.047507
 C   -3.660656    0.339424   -0.125727
 C   -4.539515   -0.796310    0.020267
 N   -4.198392   -2.022476    0.280610
 N   -5.329440   -2.751351    0.318329
 O   -5.885371   -0.680048   -0.119643
 C   -6.313583   -1.948281    0.081405
 C   -7.751430   -2.278606    0.018635
 H    3.926004   -1.765082    0.452670
 H    6.083889   -2.240548    1.526132
 H    6.522613   -0.555118    1.140954
 H    6.132738   -2.819459   -0.907295
 H    6.682709    0.198595   -1.303057
 H    6.641297   -1.045505   -2.616040
 H    8.518880   -2.298766   -1.472664
 H    8.558392   -1.038244   -0.177767
 H    2.484816   -1.043392   -1.003604
 H    0.099799   -0.585733   -1.325784
 H    2.683142    2.044941    1.937178
 H    0.273233    2.499127    1.618971
 H   -0.955959    4.285039    0.247425
 H   -0.009199    3.364940   -0.921550
 H   -1.411925    4.308685   -1.450109
 H   -3.673351    3.629150   -0.869164
 H   -5.222279    1.740543   -0.579137
 H   -1.921253   -0.811742    0.306080
 H   -7.870348   -3.349306    0.148115
 H   -8.290471   -1.752050    0.805061
 H   -8.163368   -1.972682   -0.941662
