52 
2zdt_ligand_dft.xyz
 C   -2.012732   -1.978484   -0.375951
 C   -2.860870   -3.066312   -0.131502
 C   -4.128501   -2.868208    0.374772
 C   -1.513657    0.429995   -0.341885
 N    0.073195   -1.129408   -1.267790
 C   -0.688890   -2.252908   -0.946781
 C   -1.888325    1.829217    0.000066
 C    0.688447    1.272157   -1.194313
 C    2.259406    3.075952   -0.375665
 C    1.350211   -1.374530   -1.954443
 C   -4.549217   -1.557918    0.632622
 C   -3.732509   -0.468866    0.405391
 C   -2.433060   -0.667046   -0.096448
 C   -0.310278    0.157117   -0.910708
Cl   -6.158959   -1.296953    1.256404
 O   -0.264220   -3.384129   -1.149313
 O    0.957865    1.561461   -2.341347
 C    1.334624    1.929325    0.003041
 C    2.543498   -1.150083   -1.054743
 C    2.622072   -1.806839    0.175347
 C    3.695331   -1.576956    1.025407
 C    4.708738   -0.685816    0.657842
 C    4.628403   -0.026602   -0.568538
 C    3.558603   -0.265769   -1.421365
 C   -2.158159    2.187910    1.326847
 C   -2.460320    3.503981    1.655657
 C   -2.497344    4.481562    0.662975
 C   -2.239423    4.133783   -0.658681
 C   -1.943003    2.814147   -0.990088
 C    5.872928   -0.367388    1.547893
 O    6.478490    0.670833    1.492991
 O    6.227607   -1.316332    2.441627
 H   -2.495839   -4.062285   -0.356829
 H   -4.794750   -3.701675    0.565401
 H    3.056270    2.733134   -1.040878
 H    1.706168    3.864791   -0.893211
 H    2.718996    3.502348    0.519962
 H    1.399588   -0.733416   -2.835024
 H    1.309290   -2.416471   -2.273943
 H   -4.095468    0.531838    0.607014
 H    1.880012    1.136496    0.534870
 H    0.547656    2.258098    0.690340
 H    1.834501   -2.496825    0.464633
 H    3.709653   -2.069981    1.994793
 H    5.406746    0.681184   -0.833543
 H    3.490200    0.266760   -2.365610
 H   -2.113846    1.429169    2.103598
 H   -2.659960    3.769090    2.689454
 H   -2.728974    5.510370    0.920983
 H   -2.272407    4.888784   -1.438146
 H   -1.747262    2.543028   -2.023086
 H    5.765602   -2.143575    2.252708
