53 
2zis_ligand_xtb.xyz
 C    2.676695   -3.372642   -2.152532
 C    1.929708   -0.867500    0.360309
 C    0.816060    0.126287    0.140853
 C    0.812549    1.459035   -0.101559
 C   -0.559986    1.830701   -0.241551
 C   -1.222858    3.025493   -0.490687
 C   -2.604517    2.974299   -0.546833
 C   -3.326552    1.791246   -0.364370
 C   -2.689786    0.585075   -0.117946
 C    3.237240   -0.120251    0.548278
 C    3.885127    0.414771   -0.561182
 C    5.626312    1.254220    0.862115
 C    6.849270    1.947716    1.020530
 C   -3.437113   -0.666669    0.064447
 C   -2.944291   -1.870101   -0.440479
 C   -3.654854   -3.046878   -0.278326
 C   -4.862792   -3.048998    0.393284
 C   -5.360478   -1.850628    0.906192
 N    2.914075   -2.784567   -0.959085
 N    1.695293   -2.807359   -2.800064
 C    1.262841   -1.801273   -2.003281
 C    2.004874   -1.761920   -0.850752
 C    3.927626   -3.141784   -0.006809
 O    1.660346   -1.635056    1.526352
 O   -0.447479   -0.385383    0.174861
 C   -1.292411    0.636181   -0.063564
 C    5.073378    1.099808   -0.410305
 C    4.975955    0.722784    1.974924
 C    3.785200    0.041530    1.813198
 N    7.841805    2.506106    1.148074
 C   -4.652261   -0.663329    0.741017
 C   -6.592818   -1.842088    1.603264
 N   -7.588889   -1.841623    2.169348
 N   -3.336299    4.191193   -0.809126
 O   -2.693575    5.200119   -1.000984
 O   -4.546363    4.129844   -0.820592
 H    3.238347   -4.212745   -2.509023
 H    1.660644    2.106892   -0.172034
 H   -0.699556    3.956744   -0.636196
 H   -4.401867    1.836528   -0.443581
 H    3.455243    0.289649   -1.544260
 H   -2.009341   -1.882617   -0.978945
 H   -3.263280   -3.968160   -0.682298
 H   -5.423311   -3.962084    0.525574
 H    0.456994   -1.164917   -2.311110
 H    4.232996   -4.172453   -0.180969
 H    3.535069   -3.043851    1.005053
 H    4.799892   -2.490656   -0.109081
 H    0.763639   -1.983367    1.454562
 H    5.580249    1.515277   -1.268371
 H    5.406645    0.848133    2.956999
 H    3.274818   -0.377411    2.665355
 H   -5.045211    0.252063    1.157791
