28 
2zjw_ligand_xtb.xyz
 C    1.196548    1.425383    0.028135
 C    0.703194    0.116455    0.009753
 C   -0.703242   -0.116412    0.008031
 C   -1.561040    0.985555    0.003719
 O   -1.083816    2.256281    0.010709
 C    0.249485    2.553150    0.034991
 C   -1.196408   -1.425382   -0.011902
 C   -2.568718   -1.634289   -0.008362
 C   -3.430231   -0.547892    0.003091
 C   -2.941158    0.772862   -0.024192
 C    1.561013   -0.985471    0.003825
 O    1.083925   -2.256287    0.003910
 C   -0.249426   -2.553213   -0.009409
 C    2.568800    1.634332    0.010359
 C    3.429959    0.548018   -0.019130
 C    2.941396   -0.772860    0.010697
 O   -3.785685    1.839113   -0.051441
 O   -4.773504   -0.775516    0.018904
 O   -0.570943   -3.711208   -0.012890
 O    3.785867   -1.839226    0.018333
 O    4.773071    0.775281   -0.056822
 O    0.570771    3.711001    0.052627
 H   -2.967431   -2.635252   -0.003910
 H    2.967488    2.635317    0.005455
 H   -4.608870    1.608959   -0.503470
 H   -5.240086   -0.030833    0.422308
 H    4.618914   -1.609954    0.452399
 H    5.231471    0.034831   -0.477056
