28 
2zjw_ligand_ani.xyz
 C   36.323045   -4.098535   11.386924
 C   36.785200   -3.986516   10.084619
 C   37.061706   -5.155629    9.310808
 C   36.850629   -6.405819    9.911067
 O   36.393423   -6.527595   11.200226
 C   36.109307   -5.435802   11.994828
 C   37.523492   -5.043579    8.008385
 C   37.782767   -6.199974    7.282637
 C   37.574224   -7.435850    7.876209
 C   37.106398   -7.563128    9.194734
 C   36.996203   -2.736344    9.484337
 O   37.453306   -2.614574    8.195165
 C   37.737171   -3.706354    7.400473
 C   36.063718   -2.942163   12.112632
 C   36.272466   -1.706251   11.519143
 C   36.740166   -1.579012   10.200601
 O   36.906453   -8.772978    9.762215
 O   37.798512   -8.635508    7.249849
 O   38.132636   -3.509734    6.284394
 O   36.939273   -0.369229    9.632777
 O   36.048299   -0.506626   12.145566
 O   35.714339   -5.632422   13.111001
 H   38.144696   -6.114695    6.261562
 H   35.701411   -3.027410   13.133580
 H   37.141317   -9.447792    9.106509
 H   38.117695   -8.474698    6.353559
 H   36.706990    0.305698   10.289276
 H   35.732159   -0.667478   13.042924
