36 
2zm1_ligand_ani.xyz
Cl   20.867692   38.302935    5.043855
 C   19.706769   37.403310    5.965168
 C   19.931951   37.137049    7.321341
 C   18.941142   36.456701    8.033126
 C   17.779791   36.020709    7.409086
 C   17.576788   36.280285    6.058301
 C   18.538590   36.977168    5.338496
 N   21.103087   37.568298    7.987897
 C   22.358908   37.053112    7.811878
 N   22.598246   36.157876    6.872802
 C   23.867313   35.693834    6.766228
 C   24.920487   36.066974    7.562347
 N   24.654182   37.038306    8.529356
 C   25.447507   37.726066    9.399537
 N   24.769421   38.605936   10.097454
 C   23.480541   38.512888    9.665508
 C   23.371212   37.555024    8.675048
 C   26.261281   35.469328    7.484125
 C   26.878459   35.338779    6.235696
 C   28.134690   34.752616    6.125429
 C   28.780847   34.261729    7.256463
 C   28.164158   34.364156    8.500624
 C   26.916991   34.965214    8.615856
 H   19.095240   36.252743    9.090420
 H   17.031821   35.482894    7.984645
 H   16.669706   35.946581    5.563113
 H   18.395504   37.197592    4.284217
 H   20.951444   38.017198    8.879623
 H   24.025391   34.943285    5.996794
 H   26.511675   37.548448    9.459605
 H   22.711407   39.152833   10.077531
 H   26.385338   35.719784    5.343323
 H   28.605701   34.670857    5.149643
 H   29.759544   33.797654    7.168722
 H   28.657234   33.980787    9.389290
 H   26.432943   35.042050    9.586454
