25 
2zmd_ligand_xtb.xyz
 C    3.659792   -1.063711   -0.003452
 C    2.379854   -1.583118   -0.004608
 C    1.274634   -0.737155   -0.001307
 C    1.459146    0.665281    0.000603
 C    2.762990    1.159742    0.002077
 C    3.852070    0.310923    0.001057
 C   -1.115178   -0.257851   -0.001221
 C   -2.323285   -0.970506    0.000790
 C   -3.520886   -0.259427   -0.001049
 C   -3.430222    1.122530   -0.003416
 C   -2.214994    1.819225   -0.003119
 C   -1.014520    1.126114   -0.002061
 C    0.356923    1.674901    0.001115
 C   -0.082215   -1.219990    0.000217
 O    0.585637    2.871513    0.004640
 N   -0.607607   -2.432764    0.003812
 N   -1.943161   -2.282073    0.004210
 H    4.511252   -1.728155   -0.006028
 H    2.209429   -2.648828   -0.008080
 H    2.896495    2.231777    0.003952
 H    4.852282    0.718046    0.003414
 H   -4.480685   -0.753241   -0.000639
 H   -4.345931    1.695604   -0.005168
 H   -2.211502    2.898300   -0.003344
 H   -2.525726   -3.103493    0.008865
