93 
2zmj_ligand_ani.xyz
 C   15.416694    6.488250   24.428731
 C   14.061664    4.579018   26.422648
 C    7.605729    3.424088   29.842336
 C   15.782240    7.766417   23.633624
 C   14.116246    8.381783   25.294478
 C   16.432488   13.908281   17.513970
 C    9.360007    2.517341   28.314630
 C   15.387108    8.904814   24.579100
 C    7.061654    2.007264   30.068759
 C    8.829198    1.093512   28.536521
 C    7.142666    3.197807   27.401755
 C   15.209968   10.309640   24.086639
 C   13.846227    9.304703   26.490379
 C   12.909078    8.357454   24.349661
 C    6.598928    1.780174   27.614038
 C   13.744860   10.782390   26.072243
 C   15.242082   10.655788   22.780229
 C    5.988333    1.687011   29.018922
 C   11.279661    6.467085   27.186410
 C   12.612342    6.441100   27.156997
 C   10.458008    6.811738   28.393476
 C    9.770906    5.590450   29.030981
 C   13.464512    5.938748   26.024761
 C    8.713750    4.975522   28.121929
 C   14.568205    6.943927   25.649338
 C    8.225093    3.549239   28.441180
 C   15.773112   14.366022   19.873226
 C   14.949655   11.248078   25.237999
 C   14.852411   11.949806   22.246851
 C    7.753891    0.776917   27.487723
 C    8.211825    0.996827   29.938997
 C   14.871204   12.312040   20.947208
 C   15.348254   11.449517   19.821547
 C   16.604481   12.070351   19.209682
 C   14.547479   13.717587   20.523528
 C   16.287957   13.480814   18.763897
 O    9.120430    5.996353   30.228776
 O   17.044639   11.241519   18.152298
 O   16.755894   14.514999   20.894543
 H   14.846799    5.791892   23.800985
 H   16.309909    5.948240   24.764570
 H   14.666902    4.135384   25.624171
 H   14.697560    4.692165   27.309371
 H   13.267927    3.869217   26.676433
 H    6.800522    4.163603   29.948144
 H    8.356274    3.663982   30.605017
 H   16.839642    7.806952   23.354427
 H   15.199441    7.811760   22.706631
 H   16.187943   14.929828   17.231378
 H   16.790262   13.246877   16.730572
 H   10.146408    2.733780   29.051134
 H    9.819159    2.595543   27.318570
 H   16.154115    8.952556   25.369162
 H    6.625209    1.942547   31.074294
 H    9.656852    0.378265   28.446206
 H    7.568299    3.290337   26.392619
 H    6.326363    3.930562   27.474024
 H   12.927473    9.009579   27.007847
 H   14.671134    9.195531   27.210325
 H   12.007926    8.047936   24.890293
 H   12.719025    9.343005   23.917212
 H   13.052137    7.659593   23.517434
 H    5.832223    1.561739   26.859468
 H   12.827684   10.936492   25.487997
 H   13.645195   11.411650   26.964554
 H   15.584530    9.911528   22.063267
 H    5.585657    0.679200   29.188995
 H    5.151012    2.391387   29.111039
 H   10.719080    6.184603   26.294414
 H   13.178090    6.732993   28.045699
 H   11.097269    7.277243   29.159710
 H    9.683150    7.546625   28.141572
 H   10.551269    4.846062   29.259142
 H   12.822287    5.782764   25.144954
 H    7.848348    5.651545   28.128969
 H    9.090035    4.964546   27.090610
 H   15.236925    7.033564   26.521684
 H   15.498987   15.350345   19.460954
 H   15.841539   11.249918   25.882153
 H   14.813232   12.281726   24.909149
 H   14.506606   12.691770   22.965767
 H    8.186022    0.827943   26.479507
 H    7.380632   -0.246419   27.629823
 H    8.976659    1.196855   30.701417
 H    7.838155   -0.021118   30.115034
 H   15.564280   10.423818   20.135017
 H   14.584577   11.392764   19.035277
 H   17.365434   12.127372   20.004005
 H   14.222612   14.327250   21.373787
 H   13.735723   13.700989   19.783855
 H    9.792132    6.375692   30.808532
 H   17.894983   11.595226   17.861691
 H   17.555509   14.854423   20.470124
