93 
2zmj_ligand_dft.xyz
 C   -1.883539    3.424942   -1.236833
 C    1.122966    3.686615   -1.570262
 C    6.768838   -1.973361   -0.653734
 C   -3.286416    2.963555   -0.771406
 C   -1.636709    1.625299    0.407693
 C   -9.704654   -2.652906   -1.791705
 C    7.822971   -1.353184    1.522454
 C   -3.023181    2.307901    0.583044
 C    8.145162   -2.376298   -1.207156
 C    9.202668   -1.754886    0.981057
 C    7.591357    0.363871   -0.282071
 C   -4.031972    1.386032    1.212057
 C   -1.136991    1.200949    1.796621
 C   -1.727983    0.405546   -0.525003
 C    8.970663   -0.035700   -0.830196
 C   -2.149408    0.292672    2.508690
 C   -5.184120    1.048150    0.609483
 C    8.802077   -1.155070   -1.869906
 C    2.039030    0.587736   -0.226689
 C    1.457467    1.772938   -0.030276
 C    3.072675   -0.019781    0.676631
 C    4.487097    0.123467    0.081327
 C    0.478021    2.428485   -0.965448
 C    5.542334   -0.482759    1.003975
 C   -0.850050    2.778801   -0.268159
 C    6.905632   -0.843498    0.389351
 C   -8.330034   -2.545690    0.298289
 C   -3.563141    0.901653    2.566309
 C   -6.206054    0.145616    1.128165
 C    9.861426   -0.535625    0.317753
 C    9.034726   -2.874459   -0.057728
 C   -7.315176   -0.263687    0.484567
 C   -7.661192    0.064472   -0.947740
 C   -7.640343   -1.243443   -1.767140
 C   -8.272227   -1.245190    1.117160
 C   -8.626627   -2.214480   -1.149235
 O    4.799177    1.492874   -0.103647
 O   -6.325698   -1.775171   -1.820333
 O   -9.282982   -3.388631    0.906595
 H   -1.793622    4.515140   -1.230312
 H   -1.695081    3.104004   -2.268010
 H    2.054941    3.432916   -2.086308
 H    0.458626    4.171891   -2.291913
 H    1.359977    4.417046   -0.786935
 H    6.127133   -1.648735   -1.483240
 H    6.280671   -2.843773   -0.191898
 H   -3.699546    2.237551   -1.479993
 H   -4.003911    3.786303   -0.701011
 H  -10.441676   -3.280961   -1.300310
 H   -9.894802   -2.383581   -2.827339
 H    7.933190   -0.567785    2.283240
 H    7.351117   -2.213810    2.018240
 H   -2.854479    3.122577    1.308560
 H    8.018482   -3.174765   -1.948662
 H    9.829563   -2.110075    1.808126
 H    6.959485    0.749767   -1.089217
 H    7.690698    1.179041    0.446748
 H   -0.172437    0.688805    1.723491
 H   -0.973687    2.104294    2.402912
 H   -2.515038   -0.285314   -0.209459
 H   -1.949681    0.691290   -1.558737
 H   -0.778392   -0.139725   -0.529211
 H    9.436958    0.837017   -1.303468
 H   -1.805271    0.088326    3.528889
 H   -2.197317   -0.677073    1.999458
 H   -5.381209    1.491801   -0.362374
 H    8.181574   -0.801467   -2.704032
 H    9.778167   -1.433639   -2.288859
 H    1.796619    0.027172   -1.132178
 H    1.701822    2.335351    0.874706
 H    2.858569   -1.084250    0.833272
 H    3.060924    0.472575    1.656994
 H    4.497094   -0.397254   -0.890887
 H    0.264565    1.729668   -1.785602
 H    5.691570    0.230194    1.826136
 H    5.126183   -1.397605    1.449462
 H   -0.617614    3.509495    0.522613
 H   -7.331580   -3.011527    0.340185
 H   -4.253764    0.179627    3.009277
 H   -3.538786    1.768485    3.243872
 H   -6.064582   -0.227458    2.140892
 H   10.855446   -0.804536   -0.063897
 H   10.004283    0.262783    1.057958
 H   10.015398   -3.179823   -0.446086
 H    8.583253   -3.758863    0.411367
 H   -6.969031    0.777725   -1.401026
 H   -8.669528    0.494338   -1.000527
 H   -7.928104   -1.037600   -2.802867
 H   -7.985916   -1.480470    2.146849
 H   -9.289098   -0.830119    1.138048
 H    4.039924    1.895755   -0.548626
 H   -5.888572   -1.550507   -0.986283
 H   -9.239241   -4.244908    0.463417
