42 
2zyb_ligand_ani.xyz
 C   19.451037   35.201516    8.643374
 C   19.173960   36.137829    7.495189
 C   18.063767   35.952195    6.670151
 C   17.827941   36.793519    5.590472
 C   18.715184   37.826709    5.310899
 C   20.017108   37.223087    7.235339
 C   19.833548   38.045596    6.113082
 C   20.829607   39.125292    5.764006
 N   21.100181   37.485498    8.127153
 C   22.344358   36.954002    7.939484
 C   23.424596   37.637566    8.566337
 C   23.601424   38.795346    9.299273
 N   24.923025   38.991053    9.568163
 C   25.554898   37.982025    9.017782
 N   24.700380   37.109772    8.409448
 C   24.896618   35.948109    7.657882
 C   23.782534   35.398134    7.078609
 N   22.513530   35.866254    7.209376
 C   26.240012   35.359306    7.568050
 C   27.036122   35.138523    8.700431
 C   28.283637   34.538780    8.581155
 C   28.759872   34.153189    7.330846
 C   27.972975   34.359324    6.201313
 C   26.717118   34.944651    6.320213
 H   18.617413   34.508167    8.785345
 H   20.357605   34.617118    8.456354
 H   19.611298   35.756570    9.571951
 H   17.378924   35.133147    6.883294
 H   16.957722   36.636915    4.957635
 H   18.544209   38.475999    4.454313
 H   20.965317   39.843074    6.582005
 H   21.813886   38.697432    5.542248
 H   20.498623   39.683548    4.883933
 H   21.114141   38.413386    8.525061
 H   22.858047   39.498993    9.649985
 H   26.625444   37.831979    9.004977
 H   23.885276   34.494336    6.486556
 H   26.661380   35.433560    9.677419
 H   28.886976   34.379164    9.470057
 H   29.738670   33.690218    7.238231
 H   28.333072   34.054477    5.222464
 H   26.113574   35.101651    5.428149
