32 
3aas_ligand_ani.xyz
 C   -0.563866   18.893259   20.894128
 N   -1.318206   16.768557   19.986057
 O   -0.312682   20.064430   20.747852
 C   -1.691156   18.162722   20.182491
 C   -2.963847   18.298158   21.033115
 N   -3.375224   14.186171   14.879395
 C   -2.788044   13.065517   14.712454
 N   -1.944754   12.513454   15.662284
 C   -1.598230   13.027496   16.924223
 C   -0.994271   12.153751   17.842963
 C   -0.598602   12.593810   19.091731
 N   -2.916110   12.204626   13.610613
 C   -1.785194   14.353184   17.297596
 C   -1.389645   14.811696   18.557463
 C   -0.786659   13.928600   19.469601
 O   -0.377332   14.298770   20.698008
 C   -1.631108   16.221892   18.880159
 O    0.078529   18.107230   21.772650
 H   -1.840829   18.687848   19.228825
 H   -3.808406   17.808762   20.542191
 H   -2.812845   17.838639   22.013896
 H   -3.201702   19.357214   21.169831
 H   -3.961344   14.417150   14.079993
 H   -1.776584   11.524853   15.554825
 H   -0.831538   11.112649   17.571523
 H   -0.132914   11.913710   19.799865
 H   -2.040905   11.802686   13.294648
 H   -3.411500   12.627110   12.837886
 H   -2.257710   15.024586   16.592725
 H   -0.560218   15.254954   20.800697
 H   -2.093107   16.805597   18.068235
 H    0.740005   18.677919   22.198076
