32 
3aas_ligand_xtb.xyz
 C   -3.663259   -1.261767   -0.537689
 N   -2.189081    0.361526    0.500985
 O   -2.882476   -1.469105   -1.424783
 C   -3.382260   -0.407759    0.698759
 C   -4.544816    0.535815    1.002965
 N    3.654320   -1.752759    1.323553
 C    4.185496   -1.236527    0.299021
 N    3.745885   -0.153552   -0.457669
 C    2.536544    0.522785   -0.303496
 C    2.491398    1.908675   -0.489892
 C    1.305052    2.597542   -0.384214
 N    5.399038   -1.723788   -0.144515
 C    1.356145   -0.150325   -0.031106
 C    0.144729    0.535027    0.095864
 C    0.115390    1.933557   -0.079370
 O   -1.013074    2.644533    0.027053
 C   -1.059965   -0.211790    0.371718
 O   -4.888852   -1.791748   -0.511133
 H   -3.264459   -1.130793    1.524009
 H   -4.332772    1.085800    1.915639
 H   -5.465683   -0.025604    1.126352
 H   -4.662471    1.246602    0.189139
 H    2.838618   -1.267159    1.676522
 H    4.472712    0.363146   -0.931695
 H    3.401930    2.441431   -0.725313
 H    1.270174    3.665375   -0.531177
 H    5.656890   -2.584623    0.312433
 H    5.546188   -1.724364   -1.141911
 H    1.356761   -1.225814    0.062024
 H   -1.745080    2.005642    0.215512
 H   -0.938491   -1.296074    0.469918
 H   -5.036969   -2.334387   -1.302380
