66 
3afk_ligand_ani.xyz
 C    2.887026   -0.141190   -0.106567
 C    3.970448   -0.704338   -1.013467
 C    5.371942   -0.352962   -0.520801
 C    5.483400    1.156261   -0.342219
 C    4.372114    1.624174    0.605827
 C    4.357952    3.126304    0.824401
 O    3.832025   -2.103161   -1.085801
 O    6.328198   -0.842488   -1.438129
 O    5.371004    1.700174   -1.641896
 O    3.093427    1.251538    0.110037
 O    4.110968    3.775361   -0.419237
 O   -1.951398   -0.083923    1.104228
 C   -1.969072    0.220229   -0.279034
 C   -0.685119   -0.307919   -0.942190
 N   -0.865918   -1.581237   -1.623851
 C    0.485506   -0.360543    0.055252
 O    1.663191   -0.272107   -0.754675
 C    0.360812    0.771110    1.090458
 O    0.397432    2.030934    0.448736
 C   -0.961356    0.609769    1.859674
 C   -1.487388    1.949848    2.348759
 O   -2.613431    1.690776    3.170504
 C   -1.373733   -2.713374   -1.070079
 O   -1.803459   -2.776781    0.078878
 C   -1.365887   -3.939526   -1.958366
 N   -4.141630   -1.872026    1.245816
 C   -5.015648   -1.275445    0.191469
 C   -5.337320   -2.351982   -0.840123
 O   -5.764452   -2.168847   -1.950616
 C   -4.392569   -0.035766   -0.488986
 O   -3.064855   -0.383946   -0.888625
 C   -4.538079    1.253130    0.317071
 O   -5.149301   -3.585461   -0.321550
 H    2.885298   -0.676841    0.860579
 H    3.840897   -0.231817   -2.000704
 H    5.561682   -0.864818    0.431597
 H    6.464293    1.412431    0.093309
 H    4.533600    1.143819    1.584547
 H    5.333420    3.424269    1.234667
 H    3.576641    3.378747    1.554223
 H    4.623909   -2.405205   -1.554088
 H    6.319275   -0.218940   -2.182019
 H    4.941626    2.570549   -1.562763
 H    4.322060    4.711351   -0.327231
 H   -2.010555    1.315085   -0.412756
 H   -0.398172    0.403061   -1.718908
 H   -0.364645   -1.680590   -2.491658
 H    0.474481   -1.323581    0.585283
 H    1.179918    0.705112    1.826826
 H    1.308068    2.133879    0.123026
 H   -0.780160   -0.034058    2.729966
 H   -0.694956    2.465935    2.909328
 H   -1.752898    2.572670    1.482952
 H   -2.975201    2.542602    3.438490
 H   -2.359485   -4.394273   -1.917599
 H   -0.657325   -4.666958   -1.550103
 H   -1.106903   -3.726278   -2.999393
 H   -4.384326   -2.867113    1.362292
 H   -4.213744   -1.363481    2.137814
 H   -3.155781   -1.826914    0.896926
 H   -5.978784   -0.992833    0.626593
 H   -4.934545    0.090641   -1.432734
 H   -5.604122    1.435198    0.480757
 H   -4.145569    2.103913   -0.250631
 H   -4.038982    1.213924    1.288878
 H   -5.413446   -4.215077   -1.012665
