82 
3ap7_ligand_ani.xyz
 C    2.282320   -0.253998   -0.828313
 C    1.217832    0.507743   -1.615105
 C   -0.175336    0.073356   -1.178093
 C   -0.287589   -1.453218   -1.345934
 C    0.802714   -2.104270   -0.500453
 C    0.806368   -3.615757   -0.612618
 O    3.526208    0.038633   -1.375099
 O    1.420280    1.883179   -1.379001
 O   -1.107499    0.794428   -1.989543
 O   -0.117936   -1.833736   -2.683997
 O    2.087079   -1.651158   -0.916925
 O    1.741865   -4.098816    0.337274
 C    7.485579   -0.512926   -0.505986
 C    6.544203   -1.389983    0.312134
 C    5.148856   -1.419994   -0.281754
 C    4.643614    0.011836   -0.500408
 C    5.696348    0.884847   -1.196301
 C    5.319337    2.360503   -1.107644
 O    8.741589   -0.392893    0.076792
 O    7.105103   -2.681750    0.353997
 O    4.358753   -2.143463    0.637092
 O    6.971446    0.786551   -0.572692
 O    5.296867    2.776135    0.239369
 C   -3.187859   -0.183618   -2.634970
 C   -2.476773    0.782911   -1.648890
 C   -3.015777    2.210919   -1.800111
 C   -4.325473    2.444888   -1.052191
 C   -4.183285    1.950293    0.392259
 C   -3.774187    0.469232    0.404533
 C   -3.515693   -0.044984    1.836518
 C   -2.799239   -1.408545    1.933518
 C   -3.245300   -2.477928    0.940794
 C   -5.460794    2.730680    2.368509
 C   -6.825807    3.183412    2.831968
 N   -5.418229    2.189821    1.120911
 O   -2.644057   -0.936830   -3.407611
 O   -4.526519   -0.120427   -2.575343
 O   -4.720745    3.803579   -1.104278
 O   -2.573276    0.293677   -0.342988
 O   -2.680482    0.830486    2.569692
 O   -1.401991   -1.237796    1.745356
 O   -2.425802   -3.620475    1.053133
 O   -4.456272    2.829404    3.070585
 H    2.249043    0.049072    0.235993
 H    1.339446    0.252471   -2.678589
 H   -0.318630    0.345992   -0.123228
 H   -1.264262   -1.787229   -0.958215
 H    0.643468   -1.831886    0.558549
 H    1.080705   -3.890950   -1.637475
 H   -0.202866   -4.009100   -0.403579
 H    0.701052    2.331055   -1.844323
 H   -0.906255   -1.505702   -3.157059
 H    1.996316   -4.994275    0.090288
 H    7.568686   -0.933729   -1.530870
 H    6.478517   -0.952221    1.321494
 H    5.172029   -1.925173   -1.262877
 H    4.387386    0.449438    0.477561
 H    5.767958    0.568768   -2.249952
 H    4.314936    2.524376   -1.508017
 H    6.035705    2.950938   -1.699030
 H    9.066046   -1.293885    0.226047
 H    6.469595   -3.230659    0.834578
 H    3.511753   -2.354696    0.207242
 H    6.168510    2.552610    0.595066
 H   -2.250394    2.884829   -1.394619
 H   -3.136718    2.452585   -2.860259
 H   -5.131818    1.893087   -1.538700
 H   -3.383842    2.519829    0.881693
 H   -4.573342   -0.131638   -0.047634
 H   -4.491860   -0.150427    2.332331
 H   -2.976296   -1.776523    2.955853
 H   -4.279742   -2.779173    1.137523
 H   -3.203650   -2.072520   -0.079770
 H   -6.740004    3.561742    3.850494
 H   -7.212480    3.978655    2.185426
 H   -7.539458    2.353373    2.813748
 H   -6.264270    2.240588    0.568431
 H   -4.853456   -0.776444   -3.214208
 H   -4.113750    4.314840   -0.551069
 H   -3.219238    1.587611    2.873422
 H   -1.203504   -0.381402    2.158528
 H   -1.535558   -3.288570    1.246019
