82 
3ap7_ligand_xtb.xyz
 C    2.184745   -0.159477    0.484055
 C    1.072092   -0.340282    1.526537
 C   -0.221626    0.251352    0.957143
 C    0.005199    1.732137    0.617843
 C    1.108652    1.765853   -0.448433
 C    1.478410    3.196487   -0.860932
 O    3.385564   -0.510115    1.071554
 O    0.940510   -1.711602    1.777171
 O   -1.243789    0.016438    1.931623
 O    0.417303    2.487526    1.718928
 O    2.294623    1.181369    0.058075
 O    2.398716    3.214931   -1.915269
 C    7.287179   -1.263114   -0.007787
 C    6.760514    0.115547   -0.438040
 C    5.495701    0.447469    0.354654
 C    4.480772   -0.692099    0.183195
 C    5.134093   -2.049090    0.505772
 C    4.186506   -3.196167    0.127574
 O    8.409601   -1.624219   -0.733253
 O    7.780901    1.057720   -0.222821
 O    5.006079    1.682660   -0.106766
 O    6.316180   -2.242373   -0.243708
 O    3.945998   -3.216029   -1.252545
 C   -2.843274    1.788003    1.996257
 C   -2.558976    0.328301    1.558077
 C   -3.475468   -0.604724    2.376635
 C   -4.900192   -0.616375    1.821494
 C   -4.845649   -0.974873    0.327033
 C   -3.967455    0.062769   -0.402549
 C   -3.764111   -0.298705   -1.899663
 C   -2.695302    0.576544   -2.595692
 C   -2.819659    2.074305   -2.305728
 C   -6.583304   -1.952644   -1.110405
 C   -8.056383   -1.919472   -1.424274
 N   -6.186445   -1.027762   -0.207282
 O   -2.154118    2.376028    2.785602
 O   -3.943097    2.321943    1.468691
 O   -5.744944   -1.478195    2.535627
 O   -2.683890    0.132011    0.179619
 O   -3.342144   -1.620734   -2.072754
 O   -1.397130    0.170320   -2.234944
 O   -1.973037    2.825903   -3.127856
 O   -5.800317   -2.729685   -1.626099
 H    1.956781   -0.806861   -0.386094
 H    1.357708    0.205291    2.436401
 H   -0.484651   -0.278970    0.035555
 H   -0.917152    2.144824    0.177053
 H    0.761697    1.198845   -1.325878
 H    1.865415    3.716764    0.023304
 H    0.586078    3.712176   -1.221209
 H    0.171882   -1.819487    2.350696
 H   -0.266299    2.434879    2.406800
 H    3.200230    2.756465   -1.631494
 H    7.520621   -1.225834    1.078597
 H    6.504096    0.070415   -1.509337
 H    5.749948    0.522772    1.425296
 H    4.130760   -0.707435   -0.856778
 H    5.349552   -2.079567    1.584304
 H    3.225587   -3.049821    0.624954
 H    4.632564   -4.143150    0.457988
 H    8.923367   -0.819005   -0.880072
 H    7.372643    1.931235   -0.275683
 H    4.081620    1.751937    0.186463
 H    4.809774   -3.241178   -1.685458
 H   -3.046295   -1.607692    2.308405
 H   -3.466385   -0.297481    3.422834
 H   -5.356498    0.374638    1.932017
 H   -4.393187   -1.967281    0.199921
 H   -4.467685    1.040116   -0.353348
 H   -4.728324   -0.122057   -2.399250
 H   -2.827355    0.424659   -3.680839
 H   -3.837097    2.415706   -2.511429
 H   -2.581524    2.250955   -1.248050
 H   -8.286549   -2.697554   -2.145874
 H   -8.635523   -2.083963   -0.518512
 H   -8.326944   -0.951875   -1.841202
 H   -6.873640   -0.433155    0.228533
 H   -4.061052    3.234263    1.791218
 H   -5.381686   -2.372299    2.518304
 H   -4.110379   -2.219765   -1.980013
 H   -1.431399   -0.795160   -2.180583
 H   -1.094446    2.426341   -3.090157
