38 
3aru_ligand_ani.xyz
 C   74.345437   12.143763   -4.079882
 C   74.497356   10.649236   -4.257566
 O   75.532741   10.077842   -3.984195
 C   73.294825    9.913121   -4.829107
 C   73.426377    8.391951   -4.795963
 C   73.342417    7.810313   -3.382685
 C   73.500482    6.291286   -3.362202
 N   73.468370    5.739307   -2.000814
 C   74.706787    5.552447   -1.351283
 O   75.751100    5.870709   -1.904251
 C   74.549556    4.967310   -0.044986
 N   75.457130    4.565035    0.906730
 C   76.906989    4.642369    0.826385
 C   74.712684    4.078201    1.931680
 N   73.411599    4.135278    1.719691
 C   73.309982    4.692089    0.485951
 N   72.143179    4.964753   -0.185116
 C   70.855022    4.701310    0.438311
 C   72.192114    5.532084   -1.454459
 O   71.179697    5.820003   -2.064902
 H   73.513031   12.369899   -3.403810
 H   75.269433   12.558496   -3.675375
 H   74.121310   12.621425   -5.041206
 H   72.394914   10.241660   -4.287981
 H   73.165078   10.263550   -5.863730
 H   72.634905    7.957855   -5.421770
 H   74.388674    8.123978   -5.250378
 H   74.125961    8.261895   -2.763980
 H   72.374275    8.068569   -2.934736
 H   72.693915    5.813699   -3.922622
 H   74.460876    5.998349   -3.789297
 H   77.337876    3.641172    0.905457
 H   77.174345    5.080866   -0.135599
 H   77.291529    5.269621    1.634447
 H   75.186078    3.688023    2.824576
 H   70.088376    4.843773   -0.321236
 H   70.839447    3.678283    0.821220
 H   70.684129    5.388481    1.272684
