44 
3as2_ligand_dft.xyz
 N    0.002415    0.844393   -0.372510
 C   -0.744430   -0.323727   -0.610692
 C   -2.148118   -0.088798   -0.449327
 C   -2.674156    1.132107   -0.099377
 N   -1.868995    2.220959    0.131073
 C   -0.496013    2.097564    0.020672
 N   -3.240896   -0.921483   -0.604526
 C   -4.318661   -0.158696   -0.330913
 N   -4.025862    1.097616   -0.023083
 C    1.459743    0.732748   -0.475062
 C    2.096580    0.389623    0.870386
 C    3.624184    0.331440    0.813932
 C    4.166211   -0.791454   -0.089031
 C    5.680873   -0.858543    0.017827
 C    6.470064   -0.073585   -1.009319
 O    6.221295   -1.483820    0.904791
 O   -0.210837   -1.382845   -0.913619
 O    0.244862    3.037577    0.249442
 C   -2.413202    3.510936    0.530625
 C   -3.216696   -2.352531   -0.887052
 C   -2.740188   -3.174219    0.310307
 C   -3.590892   -2.972209    1.561150
 H   -5.321399   -0.562730   -0.368462
 H    1.836627    1.687996   -0.844276
 H    1.654564   -0.045963   -1.212739
 H    1.701061   -0.574011    1.213965
 H    1.796189    1.151804    1.597562
 H    4.012099    0.172481    1.826106
 H    4.012567    1.302178    0.476204
 H    3.867716   -0.624993   -1.130407
 H    3.755529   -1.751428    0.240055
 H    7.527720   -0.058163   -0.741767
 H    6.350219   -0.537703   -1.995839
 H    6.087531    0.950580   -1.089826
 H   -2.048795    3.781009    1.524388
 H   -2.101033    4.281319   -0.177261
 H   -3.499093    3.424390    0.539488
 H   -2.559302   -2.513395   -1.743865
 H   -4.236278   -2.631635   -1.172238
 H   -1.693534   -2.919834    0.505120
 H   -2.756225   -4.227707    0.007140
 H   -3.546087   -1.935059    1.910602
 H   -4.642787   -3.219765    1.373630
 H   -3.238282   -3.611003    2.376064
