52 
3at3_ligand_ani.xyz
 N   50.102029    9.196288   10.584185
 N   51.185559   10.711190   12.625824
 C   50.434067   10.465971   10.384013
 C   50.964936   11.232687   11.429255
 N   51.287786   12.573017   11.275317
 C   50.826975    9.452323   12.826026
 C   50.285143    8.676744   11.797240
 N   51.053485    8.984085   14.123347
 C   51.513393   13.491208   12.283896
 C   51.846329   14.695981   11.650381
 N   51.426794   13.142965   10.042632
 C   51.765587   14.392822   10.255739
 C   51.896832    9.608731   15.023240
 C   51.870831    8.931035   16.212204
 C   50.973438    7.831595   16.028795
 C   50.488821    7.886895   14.753744
 C   52.151957   15.820701   12.445882
 N   51.698150   14.397045   15.827022
 C   52.107194   15.696576   13.812923
 C   51.744371   14.468358   14.439954
 C   51.417799   13.365324   13.668194
 C   51.636011   13.098874   16.478894
 C   50.194814   12.505606   16.424700
 C   49.688863   12.430018   17.880015
 C   50.592285   13.392300   18.662190
 C   51.954565   13.219239   17.978816
 O   51.700076   10.188891   19.482108
 O   51.329284    8.032131   19.021634
 C   52.664591    9.236208   17.464402
 C   51.854310    9.242421   18.746144
 H   50.281615   10.886242    9.395412
 H   50.019047    7.630714   11.929046
 H   51.941635   15.055015    9.418658
 H   52.439988   10.485473   14.687672
 H   50.727368    7.099368   16.783493
 H   49.770384    7.269408   14.234369
 H   52.423545   16.770305   11.994234
 H   52.278814   15.083170   16.288021
 H   52.344536   16.555743   14.436694
 H   51.082962   12.443349   14.110367
 H   52.338593   12.409644   15.986352
 H   49.577319   13.172532   15.815836
 H   50.195551   11.519102   15.942946
 H   48.625827   12.674975   17.966328
 H   49.836238   11.414291   18.264135
 H   50.240556   14.425490   18.550994
 H   50.629371   13.165058   19.733611
 H   52.403575   12.279342   18.317064
 H   52.660325   14.030381   18.194158
 H   50.844407    8.129852   19.857939
 H   53.447427    8.476114   17.591456
 H   53.171641   10.205201   17.392499
