32 
3axz_ligand_dft.xyz
 O    1.967076   -1.712780    1.557741
 C    3.104148   -1.825213    0.726890
 C    3.109724   -0.669759   -0.257583
 O    1.981394   -0.777356   -1.138289
 C    3.020345    0.724472    0.367329
 O    3.641582    1.642113   -0.499707
 C    1.513046    0.979783    0.400235
 O    1.257940    2.355661    0.347888
 C    1.047948    0.220851   -0.861431
 N   -0.263284   -0.387171   -0.660104
 C   -0.642217   -1.700934   -0.785237
 N   -1.908238   -1.912213   -0.527160
 C   -2.389717   -0.659171   -0.207103
 C   -3.658514   -0.183658    0.172497
 N   -4.722913   -1.001172    0.299080
 N   -3.813337    1.124640    0.432634
 C   -2.748159    1.925249    0.335161
 N   -1.500552    1.608720   -0.009221
 C   -1.384154    0.296901   -0.279959
 H    1.901181   -2.503245    2.103592
 H    4.038133   -1.795519    1.309520
 H    3.088873   -2.762874    0.153103
 H    4.013806   -0.732839   -0.871077
 H    3.466227    0.754068    1.370640
 H    3.126879    2.461139   -0.424117
 H    1.072717    0.506545    1.284116
 H    0.287356    2.449928    0.255562
 H    0.973105    0.916571   -1.706193
 H    0.078073   -2.451884   -1.071893
 H   -5.627614   -0.594496    0.473175
 H   -4.652635   -1.961386    0.004188
 H   -2.926472    2.972116    0.566927
