63 
3ayd_ligand_xtb.xyz
 C    5.980664   -0.095608   -1.038028
 C    5.577099    0.471981    0.164427
 C    4.251897    0.415217    0.543252
 C    3.323708   -0.221091   -0.280117
 C    3.738645   -0.784523   -1.492364
 C    5.058255   -0.723893   -1.871306
 O    1.998258   -0.328283   -0.009679
 N    7.359684   -0.030697   -1.428598
 O    8.135945    0.522059   -0.676843
 O    7.670468   -0.532152   -2.490076
 O    1.495066    1.415451    1.459134
 C    1.524699    0.036637    1.269116
 C    0.116982   -0.569170    1.412709
 N    0.095629   -1.997847    1.206632
 C   -0.796087    0.087049    0.374472
 O   -2.094598   -0.445625    0.591349
 C   -0.789751    1.614234    0.564183
 O   -1.429967    1.948816    1.765027
 C    0.656325    2.128945    0.557650
 C    0.729898    3.599983    0.984689
 O    2.027558    4.108218    0.863449
 C    0.998924   -2.880644    1.697350
 O    1.986199   -2.554078    2.320749
 C    0.652047   -4.316307    1.370402
 C   -2.971666   -0.415210   -0.475585
 C   -4.000006   -1.529909   -0.253161
 C   -5.119378   -1.445214   -1.304541
 C   -5.713564   -0.029136   -1.283670
 C   -4.583576    0.992535   -1.501533
 C   -5.085394    2.441833   -1.396758
 O   -3.323013   -2.756808   -0.337892
 O   -6.091081   -2.421511   -1.053690
 O   -6.363373    0.116589   -0.046844
 O   -3.574559    0.858251   -0.517311
 O   -5.550014    2.735125   -0.104165
 H    6.311699    0.957288    0.788499
 H    3.941021    0.870113    1.468881
 H    3.001830   -1.268207   -2.113110
 H    5.396845   -1.156130   -2.800397
 H    2.179684   -0.367338    2.050809
 H   -0.247069   -0.308522    2.417303
 H   -0.756210   -2.345363    0.788456
 H   -0.443762   -0.170178   -0.633587
 H   -1.322679    2.080990   -0.282029
 H   -2.183015    1.345667    1.852990
 H    1.055350    2.019995   -0.462501
 H    0.362595    3.671556    2.014886
 H    0.095114    4.202192    0.332762
 H    2.608471    3.554416    1.398399
 H    0.529690   -4.439024    0.297397
 H   -0.279096   -4.590888    1.860686
 H    1.447882   -4.965435    1.722960
 H   -2.443476   -0.603276   -1.432711
 H   -4.436605   -1.394644    0.748306
 H   -4.699937   -1.669277   -2.292361
 H   -6.439199    0.073761   -2.108143
 H   -4.154492    0.823832   -2.502709
 H   -5.927354    2.592053   -2.075476
 H   -4.272044    3.120742   -1.679187
 H   -3.996828   -3.440559   -0.460596
 H   -6.659482   -2.081810   -0.347872
 H   -6.441936    1.067441    0.144269
 H   -4.807623    2.625755    0.505041
