29 
3az9_ligand_xtb.xyz
 C    2.299293    1.552091    0.464318
 C    3.472721    1.554801   -0.283315
 C    4.037172    0.372454   -0.721971
 C    3.422227   -0.831128   -0.420441
 C    2.267409   -0.867401    0.342845
 C    1.722180    0.319437    0.801473
 O    0.624942    0.325987    1.657048
 C   -0.545760   -0.182026    1.145028
 C   -0.989214   -1.438033    1.468829
 C   -2.205469   -1.916292    0.964657
 C   -2.968084   -1.136993    0.135647
 C   -2.561564    0.170396   -0.215116
 C   -1.331450    0.655230    0.308032
 N   -0.884267    1.899379    0.056222
 C   -1.591625    2.682498   -0.709949
 C   -2.808590    2.298694   -1.296231
 C   -3.294589    1.043533   -1.044060
Cl   -4.457820   -1.759491   -0.481185
 O    1.737619    2.711466    0.849706
Cl    4.102343   -2.315018   -0.991706
 H    3.924112    2.503569   -0.524285
 H    4.943774    0.384910   -1.305342
 H    1.799488   -1.807866    0.588719
 H   -0.399738   -2.059669    2.124643
 H   -2.536958   -2.908117    1.228978
 H   -1.183753    3.671035   -0.874546
 H   -3.345192    2.990068   -1.926366
 H   -4.231180    0.709964   -1.465308
 H    0.814002    2.523912    1.106602
