31 
3azb_ligand_ani.xyz
 C   17.837004  -79.919157  -67.223045
 C   16.999737  -78.835261  -66.981866
 C   16.882446  -77.810023  -67.915266
 C   17.616995  -77.887893  -69.093430
 C   18.460447  -78.961637  -69.347602
 C   18.571819  -79.982139  -68.404284
 C   19.505998  -81.142224  -68.647094
 O   19.149710  -82.210443  -67.769504
 C   19.231408  -83.464063  -68.307520
 C   18.088612  -84.202604  -68.455906
 C   18.138191  -85.509239  -68.981058
 C   19.340681  -86.058396  -69.342215
 C   20.554800  -85.333918  -69.195881
 C   20.498052  -84.009763  -68.685026
 N   21.610197  -83.238171  -68.530756
 C   22.771108  -83.764578  -68.833552
 C   22.938797  -85.073962  -69.338615
 C   21.831772  -85.855502  -69.526305
Cl   19.378621  -87.674821  -69.985450
Cl   17.474358  -76.613164  -70.273321
 H   17.930075  -80.728780  -66.506063
 H   16.429999  -78.787157  -66.056890
 H   16.231194  -76.960174  -67.736075
 H   19.024342  -78.993999  -70.276898
 H   19.440986  -81.476424  -69.690413
 H   20.549249  -80.868919  -68.453566
 H   17.140181  -83.761866  -68.163892
 H   17.222098  -86.080677  -69.096811
 H   23.642808  -83.129713  -68.685134
 H   23.933680  -85.439204  -69.572334
 H   21.911653  -86.864111  -69.917218
