65 
3b1m_ligand_dft.xyz
 C   -5.798746    0.598563   -0.286784
 C   -5.366984    1.817481    0.303772
 C   -4.033440    2.042863    0.797508
 C   -3.201453    0.989012    0.798318
 C   -3.646703   -0.416785    0.547002
 C   -4.877546   -0.514244   -0.344832
 O   -1.871665    1.051527    0.977069
 C   -1.335611   -0.142355    0.509892
 C   -2.336893   -1.016983    0.108662
 C    0.022437   -0.392641    0.429624
 C    0.349745   -1.664888   -0.106977
 C   -0.623408   -2.571671   -0.515018
 C   -1.986696   -2.260337   -0.405621
 O   -5.074660   -1.568612   -0.956485
 O   -2.882679   -3.170773   -0.803347
 O    1.676560   -1.932100   -0.199226
 C    1.013438    0.608222    0.953835
 N    2.173158    0.714934    0.254904
 C   -4.084602   -1.054250    1.905741
 O    0.772630    1.301600    1.931191
 C   -7.140276    0.542776   -0.859951
 O   -6.152582    2.857343    0.353134
 C   -7.658721   -0.696646   -1.536022
 O   -7.896423    1.529200   -0.787511
 C    2.103695   -3.202707   -0.650019
 C    3.288178    1.488186    0.780692
 C    4.545914    1.151778    0.012023
 C    5.073044    2.022559   -0.922835
 C    6.261194    1.665490   -1.615199
 C    6.884660    0.469748   -1.400847
 C    6.350515   -0.462083   -0.475333
 C    5.167804   -0.121791    0.238573
 C    6.966714   -1.720981   -0.255906
 C    6.436588   -2.619268    0.632568
 C    5.259230   -2.290672    1.341881
 C    4.642353   -1.079569    1.151445
 C    4.461180    3.372927   -1.230264
 C    4.969670    4.472967   -0.290398
 H   -3.720942    3.053752    1.025096
 H   -0.364452   -3.534293   -0.936070
 H   -3.764333   -2.732941   -0.870743
 H    2.382501   -0.000940   -0.424989
 H   -4.295123   -2.114067    1.739879
 H   -4.979403   -0.562181    2.297119
 H   -3.275139   -0.962904    2.634214
 H   -7.028707    2.573360   -0.078731
 H   -8.702693   -0.524021   -1.801941
 H   -7.564840   -1.569409   -0.884847
 H   -7.070778   -0.920398   -2.430252
 H    1.804109   -3.377767   -1.689773
 H    3.191484   -3.183981   -0.576323
 H    1.704725   -3.999566   -0.012149
 H    3.413038    1.271300    1.848671
 H    3.052007    2.552194    0.723327
 H    6.671154    2.367692   -2.337081
 H    7.791166    0.213799   -1.943438
 H    7.872242   -1.959994   -0.808017
 H    6.916605   -3.579604    0.794908
 H    4.839791   -3.002557    2.047066
 H    3.727902   -0.864395    1.692655
 H    3.368806    3.320761   -1.190450
 H    4.711220    3.642033   -2.263030
 H    4.725869    4.246173    0.752870
 H    4.522365    5.439775   -0.542310
 H    6.058175    4.569961   -0.361761
