21 
3b24_ligand_ani.xyz
 C   33.863712   34.698634    0.067772
 C   32.401406   34.674237   -0.356444
 S   31.410284   33.871966    0.940215
 C   29.814602   33.940976    0.210932
 N   28.847999   33.397177    0.940559
 N   29.673028   34.513708   -0.985118
 C   28.415924   34.517483   -1.451067
 C   28.199186   35.158156   -2.790080
 N   27.360636   34.008156   -0.827593
 C   27.638820   33.455672    0.367618
 N   26.615330   32.898156    1.047157
 H   34.470675   35.176137   -0.709321
 H   33.995253   35.262437    0.996691
 H   34.246116   33.684704    0.221943
 H   32.006979   35.680526   -0.513585
 H   32.256922   34.119664   -1.286214
 H   29.162066   35.463786   -3.202864
 H   27.707749   34.458239   -3.474151
 H   27.549204   36.034730   -2.691910
 H   26.774252   32.624541    2.002240
 H   25.676857   33.063913    0.724224
