31 
3b25_ligand_ani.xyz
 C   63.517435   13.359623   25.597147
 C   63.048089   14.597008   25.171758
 C   62.340896   14.725632   23.975218
 C   61.829849   16.069965   23.519390
 C   62.109793   13.579477   23.205218
 C   62.576147   12.338089   23.615160
 C   63.281387   12.243307   24.807694
 S   63.937618   10.666383   25.322940
 O   63.149398    9.625674   24.672169
 O   64.131183   10.715620   26.764681
 C   65.574994   10.675799   24.554839
 N   66.538180   11.281858   25.230816
 C   65.736118   10.087801   23.316272
 C   67.019722   10.173771   22.766385
 C   67.313274    9.568281   21.424552
 N   68.012232   10.783379   23.405349
 C   67.719193   11.309970   24.606097
 N   68.731594   11.957861   25.246603
 H   64.053687   13.243233   26.534522
 H   63.230832   15.479612   25.780962
 H   62.230537   16.333498   22.533911
 H   60.736707   16.072027   23.438687
 H   62.114056   16.861784   24.217903
 H   61.554513   13.667067   22.274061
 H   62.390688   11.441541   23.031284
 H   64.921981    9.578431   22.816461
 H   68.355101    9.746987   21.151159
 H   67.126909    8.488582   21.440021
 H   66.661173    9.997357   20.655634
 H   68.608107   12.124465   26.232734
 H   69.664614   11.776904   24.911361
