25 
3b27_ligand_ani.xyz
 C   13.579100    4.459607   12.892960
 S   12.255498    5.607124   12.456820
 C   10.844478    4.606549   12.749795
 N   11.021313    3.351533   13.168475
 N    9.678876    5.202592   12.530114
 C    8.622089    4.404138   12.733924
 N    7.400685    4.927661   12.524001
 N    8.670880    3.110647   13.108472
 C    9.891995    2.643522   13.314329
 C   10.069300    1.245167   13.790840
 C   11.047976    1.008494   14.761091
 C   11.241255   -0.252350   15.306862
 C   10.467364   -1.318349   14.861188
 C    9.516182   -1.119815   13.869587
 C    9.322463    0.152651   13.333301
Cl    8.164495    0.290632   12.045035
 H   14.517459    4.984215   12.695614
 H   13.524975    4.187847   13.948704
 H   13.525436    3.553472   12.286767
 H    7.315701    5.913809   12.343830
 H    6.588512    4.382929   12.760992
 H   11.656236    1.847279   15.086444
 H   11.996779   -0.403367   16.072648
 H   10.608959   -2.311012   15.278071
 H    8.915992   -1.944983   13.499137
