36 
3b28_ligand_ani.xyz
 C  -23.873254   23.052450  -23.088457
 O  -24.480545   23.783921  -24.129059
 C  -25.549677   23.059527  -24.695186
 C  -26.620835   22.772283  -23.672328
 C  -27.945841   22.659001  -24.014203
 C  -28.913675   22.385313  -23.033449
 C  -28.550906   22.212570  -21.719823
 C  -27.191216   22.296760  -21.317414
 C  -26.225017   22.608655  -22.324030
 C  -24.855952   22.743512  -21.988344
 C  -24.457364   22.579111  -20.685263
 C  -25.400019   22.278181  -19.685274
Cl  -24.777710   22.072563  -18.070544
 C  -26.745110   22.121129  -19.971440
 C  -27.715066   21.759510  -18.905945
 N  -28.320615   20.572208  -19.019022
 N  -27.908404   22.625341  -17.918388
 C  -28.825514   22.236712  -17.008500
 N  -29.072971   23.086956  -15.995851
 N  -29.490979   21.072099  -17.012115
 C  -29.180979   20.286806  -18.034321
 S  -30.006281   18.740715  -18.081961
 C  -29.289906   18.038987  -19.583907
 H  -23.430357   22.122713  -23.490070
 H  -23.052871   23.673773  -22.716132
 H  -25.941393   23.678475  -25.508574
 H  -25.173093   22.121141  -25.142049
 H  -28.255734   22.789377  -25.049430
 H  -29.958589   22.310047  -23.323542
 H  -29.313733   21.993650  -20.977847
 H  -23.413371   22.679325  -20.399084
 H  -28.661788   24.005256  -16.017011
 H  -29.818394   22.879167  -15.352562
 H  -29.741362   17.050993  -19.707813
 H  -29.519774   18.662554  -20.449906
 H  -28.206706   17.942216  -19.492156
