33 
3b4p_ligand_ani.xyz
 C   41.549719   -0.000098   93.039915
 C   42.032819   -1.450476   92.973492
 C   41.040152   -2.326746   92.202144
 C   40.780717   -1.763457   90.801185
 C   40.324828   -0.304375   90.872091
 C   41.313830    0.569970   91.640807
 N   40.756337    1.918468   91.720873
 C   41.538789    2.903018   92.377210
 C   42.821679    3.200923   91.904087
 C   43.587795    4.197852   92.495354
 C   43.081239    4.910502   93.578286
 C   41.817114    4.609741   94.066503
 C   41.039516    3.595589   93.492843
 C   39.719777    3.241377   94.104794
 O   39.212367    4.267522   94.827542
 O   39.134673    2.186246   94.024996
 H   42.274802    0.631196   93.570373
 H   40.607237    0.064598   93.598169
 H   43.012563   -1.482010   92.473197
 H   42.187452   -1.842492   93.985889
 H   41.402456   -3.360300   92.141652
 H   40.089546   -2.358373   92.754750
 H   41.705510   -1.821583   90.208558
 H   40.034710   -2.370210   90.274291
 H   40.179248    0.109284   89.864750
 H   39.357057   -0.228618   91.388958
 H   42.277479    0.564113   91.095983
 H   40.480341    2.238358   90.799208
 H   43.215420    2.649868   91.051097
 H   44.579232    4.419031   92.107484
 H   43.670304    5.696508   94.042922
 H   41.409405    5.156405   94.911598
 H   38.375888    3.936168   95.192997
