40 
3b50_ligand_ani.xyz
 C   -1.413704   -7.771041    1.538183
 C   -1.046622   -8.201907    0.111580
 C   -2.261188   -8.675290   -0.661259
 C   -1.826087   -9.348676   -1.955218
 C   -0.749989  -10.421902   -1.675085
 C    0.386683   -9.762718   -0.882044
 C    1.563124  -10.660344   -0.546603
 C    2.799639   -9.877894   -0.048920
 C    2.550149   -9.007040    1.182755
 C   -0.379004  -12.388134   -3.130500
 C    0.186394  -12.843262   -4.458182
 N   -0.301678  -11.032733   -2.906389
 O   -2.453993   -8.015889    2.086901
 O   -0.404658   -7.118746    2.160574
 O   -0.423673   -7.147328   -0.570488
 O   -2.976574   -9.919414   -2.541519
 O   -0.169810   -9.276867    0.328494
 O    1.172623  -11.606444    0.415698
 O    3.728848  -10.913234    0.256630
 O    2.092408   -7.716694    0.789979
 O   -0.877849  -13.147818   -2.320295
 H   -2.821438   -9.390460   -0.051053
 H   -2.916900   -7.828371   -0.879744
 H   -1.388684   -8.583871   -2.623506
 H   -1.186826  -11.219790   -1.071336
 H    0.778991   -8.925094   -1.479557
 H    1.885667  -11.164709   -1.472600
 H    3.177347   -9.238305   -0.861658
 H    1.820363   -9.513766    1.822630
 H    3.491704   -8.902892    1.747956
 H    0.086782  -13.926575   -4.527724
 H   -0.355481  -12.378917   -5.289235
 H    1.243842  -12.572123   -4.549415
 H    0.160706  -10.451564   -3.591852
 H   -0.736329   -6.931874    3.054859
 H    0.493552   -7.099563   -0.237655
 H   -2.684079  -10.422718   -3.313602
 H    2.001302  -12.021548    0.701070
 H    4.477000  -10.532238    0.732394
 H    1.598442   -7.357246    1.542736
