19 
3b7j_ligand_ani.xyz
 O   21.151756   12.793325  -12.659935
 C   20.621647   13.839026  -12.332748
 C   21.429260   15.065156  -12.101788
 C   20.868738   16.229230  -11.740839
 C   19.411111   16.378341  -11.546938
 O   18.931257   17.465453  -11.214982
 C   18.563811   15.177576  -11.766923
 C   19.138671   13.956898  -12.144030
 C   18.352944   12.835018  -12.350141
 C   16.980111   12.925504  -12.179988
 C   16.387087   14.128337  -11.805528
 C   17.165399   15.265074  -11.594828
 O   16.559688   16.399351  -11.237067
 H   22.501032   14.961534  -12.242982
 H   21.458382   17.125156  -11.571966
 H   18.844130   11.913303  -12.641044
 H   16.353641   12.052224  -12.338892
 H   15.313230   14.207919  -11.670102
 H   17.274107   17.076572  -11.138278
