56 
3b8q_ligand_ani.xyz
 C   38.470705   31.018704   14.052366
 C   37.107075   31.055278   14.026454
 C   36.436379   32.204277   13.524183
 C   37.198400   33.315465   13.066482
 C   38.620800   33.231359   13.123765
 C   39.242818   32.110641   13.606509
 C   35.018746   32.252480   13.472390
 C   34.376608   33.362148   12.991274
 C   35.126109   34.476476   12.559686
 C   36.503542   34.472567   12.591294
 O   39.123888   29.904012   14.557411
 C   39.531736   28.934895   13.682960
 C   40.258896   27.853914   14.253228
 C   40.689313   26.829289   13.382186
 N   40.435091   26.839359   12.043612
 C   39.758582   27.857884   11.570291
 C   39.273354   28.944125   12.335290
 C   40.554999   27.781159   15.641841
 C   41.264615   26.714636   16.138856
 C   41.704848   25.672125   15.257887
 C   41.419312   25.736657   13.923089
 O   41.602453   26.539850   17.442394
 C   41.188424   27.533656   18.353692
 O   42.361008   24.581635   15.762032
 C   43.710036   24.820946   16.140300
 C   37.252431   35.679377   12.090449
 N   36.718151   36.876371   12.511210
 C   37.237664   38.171165   12.305675
 C   36.792282   39.197058   13.145071
 C   37.247973   40.498280   12.983222
 C   38.151475   40.779310   11.965699
 C   38.596150   39.770579   11.120512
 C   38.144498   38.466674   11.286209
Cl   38.730282   42.405862   11.746664
 O   38.245101   35.605484   11.385240
 H   36.535417   30.200965   14.376667
 H   39.206209   34.066850   12.761027
 H   40.325406   32.035370   13.643675
 H   34.452882   31.390423   13.819197
 H   33.291070   33.401711   12.952942
 H   34.597602   35.341915   12.167777
 H   39.566379   27.845033   10.497645
 H   38.724839   29.746010   11.850796
 H   40.207329   28.586231   16.280973
 H   41.743922   24.951869   13.249722
 H   41.624066   28.508130   18.099827
 H   40.094867   27.620437   18.376919
 H   41.547974   27.218753   19.334012
 H   44.300532   25.147995   15.274082
 H   43.771797   25.571597   16.934811
 H   44.099197   23.867494   16.504874
 H   35.975998   36.816784   13.191621
 H   36.082752   38.979239   13.939879
 H   36.902169   41.290330   13.640254
 H   39.303294   40.001080   10.329022
 H   38.493557   37.678088   10.633858
