53 
3b8r_ligand_dft.xyz
 C   -0.162872    0.581686    0.324178
 C   -0.836748    1.393697    1.190849
 C   -2.253877    1.346697    1.249097
 C   -2.963452    0.441992    0.407972
 C   -2.216786   -0.387580   -0.475574
 C   -0.850671   -0.317265   -0.521480
 C   -2.969608    2.185035    2.142515
 C   -4.336232    2.139434    2.199717
 C   -5.047516    1.260600    1.355444
 C   -4.392685    0.428587    0.474410
 O    1.208871    0.694394    0.230329
 C    1.985591   -0.355834    0.621111
 C    3.350880   -0.284189    0.249902
 C    4.186403   -1.347490    0.664103
 N    3.741965   -2.412656    1.385490
 C    2.466541   -2.426543    1.702906
 C    1.534189   -1.428799    1.354186
 C    3.888990    0.791586   -0.506058
 C    5.217656    0.807941   -0.836615
 C    6.075056   -0.268349   -0.417955
 C    5.562524   -1.309713    0.309673
 O    5.837381    1.774215   -1.549349
 O    7.361938   -0.140606   -0.802571
 C    8.256287   -1.163611   -0.425176
 C    5.052625    2.857988   -1.990304
 C   -5.197918   -0.508974   -0.386151
 N   -6.341084    0.041269   -0.901871
 C   -7.193656   -0.705954   -1.774641
 O   -4.881999   -1.669444   -0.594642
 C   -8.092738   -1.744704   -1.173809
 C   -8.672606   -0.452458   -1.682026
 H   -0.284761    2.076436    1.829212
 H   -2.744711   -1.092382   -1.105084
 H   -0.280858   -0.947645   -1.196487
 H   -2.411722    2.860663    2.785298
 H   -4.879345    2.773442    2.893516
 H   -6.130848    1.220276    1.424312
 H    2.123841   -3.282409    2.282046
 H    0.499121   -1.513464    1.662853
 H    3.223854    1.589303   -0.810175
 H    6.174521   -2.138730    0.642330
 H    8.323758   -1.252477    0.666514
 H    7.957404   -2.131303   -0.847620
 H    9.227769   -0.875172   -0.827590
 H    4.248374    2.524482   -2.658958
 H    4.614119    3.404945   -1.145494
 H    5.729276    3.515813   -2.536645
 H   -6.423734    1.047123   -0.904164
 H   -6.774879   -0.922605   -2.755229
 H   -8.027707   -1.883811   -0.100209
 H   -8.258827   -2.652873   -1.742986
 H   -9.245969   -0.461623   -2.603307
 H   -9.010642    0.270572   -0.945255
