53 
3b8r_ligand_ani.xyz
 C   -2.214427   38.274056   67.580486
 C   -3.530949   38.398434   67.244757
 C   -4.514741   38.529569   68.263372
 C   -4.115357   38.513887   69.628919
 C   -2.728152   38.371194   69.927368
 C   -1.799513   38.252585   68.927576
 C   -5.886687   38.677649   67.930911
 C   -6.832579   38.798426   68.913726
 C   -6.445711   38.759783   70.269415
 C   -5.125103   38.621290   70.638357
 O   -1.257260   38.129966   66.586936
 C   -0.604526   39.246659   66.142358
 C    0.415969   39.025525   65.179046
 C    1.105798   40.154331   64.690441
 N    0.831348   41.422831   65.098799
 C   -0.122017   41.573775   65.987578
 C   -0.883782   40.526123   66.553265
 C    0.753172   37.726317   64.702991
 C    1.747648   37.564136   63.773326
 C    2.456249   38.718237   63.274078
 C    2.134644   39.968382   63.727219
 O    2.148308   36.379304   63.254775
 O    3.418552   38.453405   62.361441
 C    4.130707   39.560140   61.852890
 C    1.483507   35.224030   63.713559
 C   -4.776269   38.612279   72.100477
 N   -5.669922   37.935925   72.894143
 C   -5.385914   37.664870   74.272654
 O   -3.795810   39.158950   72.578258
 C   -5.245124   38.830464   75.207799
 C   -6.465132   37.963219   75.274840
 H   -3.824537   38.410955   66.199285
 H   -2.417189   38.375848   70.964908
 H   -0.740554   38.153770   69.146691
 H   -6.171705   38.695203   66.881101
 H   -7.884227   38.908482   68.661725
 H   -7.209233   38.865038   71.036597
 H   -0.325365   42.597967   66.300066
 H   -1.651481   40.749588   67.287649
 H    0.196048   36.884732   65.102350
 H    2.636939   40.863897   63.381844
 H    4.665693   40.091667   62.650538
 H    4.851794   39.153354   61.142973
 H    3.463524   40.259831   61.333000
 H    1.940037   34.383999   63.188611
 H    1.614072   35.092955   64.795331
 H    0.412012   35.262028   63.479189
 H   -6.360773   37.351774   72.446438
 H   -4.743559   36.807031   74.466501
 H   -4.501428   38.767898   75.997013
 H   -5.353026   39.809680   74.753644
 H   -7.390851   38.385541   74.894839
 H   -6.585116   37.285017   76.114949
