91 
3b95_ligand_xtb.xyz
 N   -3.164856   -1.910171   -0.296815
 C   -2.854656   -2.888382   -1.358897
 C   -1.441647   -3.395177   -0.990852
 O   -1.162747   -3.519104    0.185327
 C   -2.993747   -2.227680   -2.718400
 N   -0.602351   -3.683154   -1.998335
 C    0.818492   -3.744363   -1.718998
 C    1.198333   -2.409156   -1.052212
 O    0.385598   -1.503399   -0.963344
 C    1.598185   -3.999036   -3.001399
 N    2.452912   -2.318584   -0.582679
 C    2.874151   -1.288783    0.360627
 C    4.113571   -1.748075    1.129001
 C    4.322413   -0.893310    2.385690
 C    5.759690   -0.896775    2.912208
 C    6.810792   -0.370241    1.931148
 N    6.436261    0.894957    1.257609
 C    6.274061    2.010207    2.200854
 C    7.420331    1.245574    0.221978
 C    3.133674    0.079728   -0.312916
 O    4.220274    0.655659   -0.230653
 N    2.073390    0.585596   -0.917809
 C    1.987113    1.928556   -1.444977
 C    0.902537    2.667749   -0.628998
 O    1.188629    3.548348    0.150764
 C    1.711457    1.917815   -2.953642
 O    0.565884    1.134902   -3.223593
 N   -0.338550    2.199479   -0.828139
 C   -1.495795    2.709391   -0.134607
 C   -2.648412    1.736030   -0.363313
 O   -2.471663    0.657962   -0.920803
 C   -1.823064    4.162217   -0.566635
 O   -2.836540    4.636440    0.305585
 C   -2.245025    4.242927   -2.031269
 N   -3.833741    2.143741    0.099292
 C   -5.056285    1.412083   -0.160546
 C   -5.301096    0.288606    0.849423
 O   -5.488676   -0.864323    0.492633
 N   -5.306678    0.664995    2.132839
 C   -5.407459   -0.311315    3.190494
 C   -4.165040   -1.192709    3.254735
 O   -3.307990   -1.210074    2.407162
 O   -4.166433   -1.946587    4.333751
 H   -4.178268   -1.769699   -0.092520
 H   -2.794069   -0.961656   -0.552307
 H   -2.684269   -2.208688    0.572182
 H   -3.541287   -3.738315   -1.271405
 H   -2.260522   -1.431836   -2.830579
 H   -3.987575   -1.795238   -2.807206
 H   -2.885645   -2.948665   -3.523819
 H   -0.864724   -3.443040   -2.941338
 H    0.989740   -4.545179   -0.989333
 H    2.660213   -4.104173   -2.800266
 H    1.250483   -4.918540   -3.465059
 H    1.458769   -3.177742   -3.701333
 H    3.071210   -3.108160   -0.688738
 H    2.039288   -1.126419    1.058218
 H    4.971083   -1.676135    0.458071
 H    3.998541   -2.793292    1.418537
 H    3.675414   -1.272810    3.177550
 H    4.001229    0.130110    2.186658
 H    5.788752   -0.318566    3.836171
 H    6.047646   -1.916925    3.169594
 H    7.750342   -0.212352    2.466660
 H    6.993591   -1.113070    1.152794
 H    5.516373    0.740253    0.753974
 H    5.968921    2.904853    1.662279
 H    7.217098    2.207818    2.709352
 H    5.514198    1.781030    2.942536
 H    7.503783    0.442224   -0.506537
 H    7.101759    2.147047   -0.296368
 H    8.397038    1.420265    0.671497
 H    1.222474    0.014359   -0.965946
 H    2.940671    2.434227   -1.262617
 H    1.571520    2.952701   -3.290063
 H    2.586260    1.497992   -3.467828
 H    0.381442    1.168220   -4.168011
 H   -0.510438    1.476400   -1.519861
 H   -1.283407    2.745469    0.943616
 H   -0.904934    4.744675   -0.413978
 H   -2.964117    5.579848    0.154216
 H   -3.168030    3.692430   -2.200087
 H   -2.404167    5.279641   -2.318700
 H   -1.465984    3.828280   -2.664067
 H   -3.879015    3.097502    0.448178
 H   -5.003199    0.953294   -1.153397
 H   -5.900960    2.102123   -0.134696
 H   -5.092101    1.618634    2.378467
 H   -5.569576    0.174174    4.151487
 H   -6.253780   -0.979032    2.989665
 H   -3.402614   -2.545924    4.377010
