33 
3bcs_ligand_ani.xyz
 N   34.094720   23.575525   28.759982
 O   32.484839   25.065590   29.456133
 C   33.627306   24.659588   29.506919
 N   34.584219   25.231910   30.315509
 C   35.924680   24.855447   30.481998
 O   36.649605   25.473768   31.233549
 C   36.294082   23.691973   29.683653
 C   35.385219   23.111346   28.883548
 C   33.161473   22.927501   27.844687
 O   33.212694   21.536937   28.076526
 C   32.263203   20.799305   27.303329
 C   32.413217   19.338960   27.694045
 O   33.705913   18.916844   27.307156
 C   32.474015   21.017739   25.805375
 O   31.411864   20.374714   25.133241
 C   32.490834   22.502346   25.491003
 O   32.809619   22.645263   24.124210
 C   33.508122   23.202823   26.372478
 O   33.450548   24.576316   26.051189
 H   34.268339   26.026108   30.856839
 H   37.306239   23.317612   29.759621
 H   35.607137   22.229089   28.289002
 H   32.168673   23.326812   28.081553
 H   31.243672   21.134702   27.559834
 H   32.268785   19.254715   28.781174
 H   31.630311   18.756694   27.186337
 H   33.840169   18.020907   27.634537
 H   33.448555   20.594274   25.519319
 H   31.554796   20.531533   24.189832
 H   31.489974   22.921380   25.701616
 H   32.925281   23.593743   23.969726
 H   34.501926   22.780175   26.151570
 H   34.255972   25.005360   26.365511
