48 
3be9_ligand_dft.xyz
 N   -3.155562    2.416557   -0.202917
 C   -2.204332    3.330893   -0.063063
 C   -0.895946    2.808338    0.045809
 C   -1.085162    1.433183   -0.041997
 N   -2.451458    1.259204   -0.186109
 N   -0.268575    0.346845   -0.007466
 C   -0.880077   -0.814250   -0.097972
 N   -2.225733   -1.046868   -0.220319
 C   -2.997479    0.007864   -0.258331
 N   -4.334368   -0.049648   -0.360923
 C   -5.052059   -1.273655   -0.533487
 C   -5.170185   -2.208879    0.635106
 C   -6.362538   -1.408602    0.189218
 N   -0.177967   -1.991549   -0.068678
 C    1.197037   -2.237820    0.009322
 C    2.150007   -1.271464   -0.308592
 C    3.507875   -1.569857   -0.211966
 C    3.923406   -2.855329    0.139192
 C    2.966360   -3.827760    0.406844
 C    1.611746   -3.528024    0.360896
 N    4.477674   -0.592396   -0.517434
 C    4.517491    0.755984   -0.223569
 O    5.407575    1.444967   -0.692799
 C    3.475953    1.338200    0.712792
 C    2.482648    2.248020   -0.018611
 C    1.512400    2.920076    0.952951
 C    0.348251    3.632682    0.243728
 H   -2.483956    4.377201   -0.035961
 H   -4.801956    0.842147   -0.463564
 H   -4.967100   -1.717769   -1.522637
 H   -4.673469   -1.910541    1.551819
 H   -5.146622   -3.273094    0.426618
 H   -7.171410   -1.914627   -0.327260
 H   -6.672849   -0.578460    0.816711
 H   -0.783727   -2.798700   -0.071688
 H    1.822586   -0.298637   -0.636700
 H    4.982560   -3.081913    0.214410
 H    3.281536   -4.830716    0.677997
 H    0.874317   -4.290297    0.597976
 H    5.287980   -0.894224   -1.042769
 H    4.038730    1.937396    1.437236
 H    2.935805    0.563737    1.263727
 H    1.910592    1.672002   -0.754099
 H    3.042070    3.008201   -0.576522
 H    2.068752    3.647781    1.556590
 H    1.113454    2.174081    1.650077
 H    0.058408    4.518450    0.821427
 H    0.703259    4.015629   -0.723691
