54 
3bel_ligand_xtb.xyz
 C    5.744248   -1.251602    0.520342
 C    5.667862   -0.975853   -0.838584
 C    5.724957   -2.021710   -1.738950
 N   -5.080058    2.632173   -0.878010
 C    5.670367   -0.122078    1.517877
 C    3.904805    2.762856    0.600305
 C    0.637029    0.887760    0.459803
 C    1.208002   -0.354576    0.822167
 C    2.546968   -0.501898    1.081889
 C    3.341412    0.636970    0.974588
 C    2.787966    1.887780    0.606481
 C    1.423223    2.017883    0.347445
 C   -1.916168    4.032426   -0.728586
 C   -1.592095    1.867404   -0.124043
 C   -3.583748    0.345379    0.024482
 C   -6.611624   -1.349433    0.011791
 C   -6.955349   -2.793294    0.356515
 C   -8.762207   -4.281925    0.441504
 C    5.861693   -3.337009   -1.332908
 C    5.943470   -3.600538    0.022710
 C    5.881580   -2.567352    0.942348
 F    5.646385   -1.750574   -3.057193
 N    4.671952    0.844425    1.158689
 N    4.999147    2.121321    0.924696
 N   -0.740100    0.874851    0.237308
 N   -3.211366    3.932090   -0.913519
 N   -1.085602    3.083199   -0.355916
 C   -2.984869    1.616225   -0.259632
 C   -3.760884    2.730274   -0.685109
 N   -4.830622    0.112420   -0.132590
 O   -5.223429   -1.184595    0.213945
 O   -8.334778   -2.974642    0.153878
 H    5.563472    0.036622   -1.196576
 H   -5.579429    3.457575   -1.157792
 H   -5.523298    1.740910   -0.696557
 H    6.622237    0.417531    1.549667
 H    5.462771   -0.520912    2.518094
 H    3.933965    3.809512    0.373648
 H    0.561647   -1.218998    0.894857
 H    2.964589   -1.459907    1.350654
 H    0.989133    2.960947    0.067490
 H   -1.476043    5.005848   -0.906610
 H   -2.952876   -0.460668    0.405005
 H   -7.178928   -0.667951    0.657254
 H   -6.875738   -1.143664   -1.032312
 H   -6.684051   -2.997110    1.403689
 H   -6.373562   -3.473464   -0.284322
 H   -8.259168   -5.015803   -0.200166
 H   -8.570540   -4.542141    1.489822
 H   -9.832847   -4.305738    0.250785
 H    5.901882   -4.125380   -2.067196
 H    6.050785   -4.618860    0.363817
 H    5.941555   -2.785550    1.998562
 H   -1.160643   -0.033204    0.371124
