25 
3bg8_ligand_ani.xyz
 C    3.850423    0.632104    0.068413
 O    3.616782    1.236619   -0.962098
 N    3.247750   -0.524669    0.434205
 C    2.252355   -1.156657   -0.418535
 C    0.907804   -0.428281   -0.431399
 C    0.277511   -0.280954    0.949535
 C   -1.089863    0.392523    0.904058
 N   -2.043978   -0.439587    0.191440
 C   -3.297029   -0.004782   -0.216896
 N   -3.503775    1.370301   -0.096068
 N   -4.211143   -0.731716   -0.740706
 H    4.595289    0.980273    0.809825
 H    3.525803   -0.968834    1.294409
 H    2.133162   -2.185622   -0.064096
 H    2.649217   -1.194182   -1.437576
 H    0.225223   -0.968483   -1.098041
 H    1.061130    0.564910   -0.870516
 H    0.934842    0.314161    1.592597
 H    0.174679   -1.265322    1.429853
 H   -1.005273    1.348204    0.374621
 H   -1.422881    0.614043    1.930886
 H   -2.016773   -1.421616    0.426217
 H   -4.464804    1.584679   -0.329821
 H   -3.248497    1.761288    0.801733
 H   -3.904552   -1.700480   -0.816460
