25 
3bg8_ligand_xtb.xyz
 C    3.818184    0.125808    0.315918
 O    3.898525    1.322316    0.426858
 N    2.854545   -0.535768   -0.349736
 C    1.741187    0.142742   -0.978585
 C    0.456647    0.062917   -0.150471
 C   -0.053679   -1.367458    0.013515
 C   -1.405575   -1.417147    0.740598
 N   -2.491452   -0.858269   -0.031636
 C   -2.821065    0.485320   -0.071165
 N   -2.514681    1.222100    1.055900
 N   -3.385552    1.074609   -1.044027
 H    4.563425   -0.566733    0.753509
 H    2.853952   -1.542189   -0.356399
 H    1.579312   -0.288146   -1.971420
 H    2.038319    1.188029   -1.085463
 H   -0.304779    0.668931   -0.643185
 H    0.641475    0.499229    0.832304
 H    0.662129   -1.956295    0.591127
 H   -0.161035   -1.834965   -0.969893
 H   -1.324119   -0.875950    1.683505
 H   -1.658115   -2.460326    0.962372
 H   -2.627569   -1.321447   -0.920830
 H   -2.931479    2.140207    1.012099
 H   -2.663893    0.756663    1.937821
 H   -3.510046    0.502662   -1.872783
