34 
3bgp_ligand_dft.xyz
 N    3.427478   -3.651642    0.613691
 C    3.862248   -2.403105    0.284571
 N    5.156453   -2.289726   -0.061978
 C    5.533608   -1.070293   -0.428707
 C    4.680880    0.026344   -0.448653
 C    3.362847   -0.200008   -0.044195
 N    2.954529   -1.420408    0.319516
 C    2.338017    0.875438   -0.015306
 C    2.728494    2.264742    0.023006
 C    1.826546    3.281322    0.058694
 C    0.440262    2.938688    0.041296
 N   -0.595202    3.759367    0.085368
 O   -1.692797    2.926713    0.054115
 C   -1.338994    1.640274   -0.007376
 C   -2.411634    0.651464   -0.038705
 C   -2.193448   -0.613875   -0.594236
 C   -3.206793   -1.562595   -0.613159
 C   -4.449880   -1.239034   -0.080041
Cl   -5.727642   -2.427417   -0.100644
 C   -4.693167    0.018093    0.464636
 C   -3.673342    0.958723    0.484135
 C    0.041065    1.566997   -0.012779
 C    1.012774    0.532373   -0.019628
 H    4.133511   -4.343102    0.809090
 H    2.549294   -3.719157    1.102129
 H    6.575734   -0.963466   -0.724039
 H    5.033166    0.993033   -0.783806
 H    3.785455    2.507115    0.061012
 H    2.131816    4.320061    0.112145
 H   -1.234915   -0.854566   -1.041291
 H   -3.038094   -2.541449   -1.047698
 H   -5.669404    0.254538    0.872820
 H   -3.852282    1.938872    0.912739
 H    0.738300   -0.515924   -0.012550
