44 
3bgq_ligand_xtb.xyz
 C   -0.449923   -3.167838   -0.190147
 N    3.795840    2.519929    0.111020
 C    2.021162   -3.521021   -0.012508
 C    3.305943   -3.012104    0.095576
 C    3.519350   -1.648334    0.116437
 C    2.512206    2.822561    0.021271
 C    1.817252    4.048598   -0.033036
 C   -0.204554    2.726250   -0.158601
 C   -2.307411    1.453840   -0.211476
 C    0.951354   -2.639888   -0.099088
 C    1.146782   -1.268116   -0.069248
 C    0.465357    3.998886   -0.124586
 C   -3.324292   -0.275208    1.295405
 N    3.900964    1.207853    0.126898
 F   -0.523775   -4.392557   -0.730214
 F   -1.257814   -2.381649   -0.926207
 F   -1.042017   -3.258694    1.020526
 C    2.441224   -0.763759    0.033068
 C    2.697824    0.657721    0.049149
 N   -1.544554    2.684011   -0.292327
 C   -2.521258    1.020461    1.242795
 C   -4.662792   -0.105756    0.584110
 C   -4.442566    0.328364   -0.861728
 C   -3.650324    1.632156   -0.913192
 N    0.443459    1.582807   -0.098537
 N    1.770735    1.656245   -0.020979
 H    1.848002   -4.585736   -0.034607
 H    4.142833   -3.689853    0.162220
 H    4.512559   -1.236123    0.195960
 H    2.374743    4.969661   -0.000191
 H   -1.724270    0.686251   -0.729692
 H    0.309309   -0.591677   -0.130667
 H   -0.130313    4.896956   -0.173376
 H   -3.485317   -0.565915    2.334739
 H   -2.758355   -1.070622    0.810587
 H   -2.052522    3.546292   -0.173410
 H   -3.058104    1.809233    1.777052
 H   -1.551485    0.882805    1.724322
 H   -5.261458    0.646261    1.104071
 H   -5.214164   -1.046816    0.606946
 H   -5.402570    0.461817   -1.363750
 H   -3.889081   -0.449425   -1.391135
 H   -3.486876    1.933376   -1.949747
 H   -4.217590    2.422819   -0.413991
