16 
3bh3_ligand_xtb.xyz
 C    2.045359    0.143837    0.833101
 C    0.150220   -0.805556   -0.532598
 C   -0.937114    0.172485   -0.133080
 O   -0.853078    1.359835   -0.312180
 C   -2.147535   -0.472889    0.496765
 C    1.535533   -0.161684   -0.569868
 H    1.373852    0.836315    1.334957
 H    2.112136   -0.767059    1.425673
 H    3.032627    0.596797    0.788548
 H   -0.114943   -1.165702   -1.531502
 H    0.141112   -1.663731    0.141516
 H   -1.888495   -0.785946    1.507042
 H   -2.970510    0.234894    0.548688
 H   -2.446688   -1.354294   -0.064840
 H    2.232880   -0.832173   -1.076280
 H    1.473879    0.765065   -1.142288
