45 
3bjc_ligand_xtb.xyz
 C   -2.668652   -4.920161    0.740275
 C   -2.856423   -3.412363    0.836981
 C   -3.573611   -2.855539   -0.396864
 C   -3.708454   -1.378245   -0.313191
 C   -2.676166   -0.416498   -0.202674
 N   -1.326003   -0.540931   -0.160268
 N   -4.879147   -0.763754   -0.311729
 N   -4.667913    0.546634   -0.209479
 C   -5.752878    1.484143   -0.187518
 C   -3.347704    0.818385   -0.139332
 C   -2.624739    2.054528   -0.020893
 O   -3.061507    3.188891    0.044527
 N   -1.257812    1.804651    0.014192
 C   -0.664074    0.565157   -0.053231
 C    0.787355    0.493157   -0.003243
 C    1.476749   -0.749357   -0.040984
 C    2.820884   -0.618525    0.014296
 S    4.068600   -1.860472   -0.023481
 O    3.478466   -3.117289    0.318380
 O    5.208299   -1.378852    0.694472
 N    4.460695   -1.860420   -1.655568
 S    3.330645    1.023700    0.114544
 C    1.671444    1.553452    0.082184
 O    1.329595    2.843395    0.137396
 C    2.371683    3.807831    0.236854
 C    1.730493    5.181866    0.314020
 H   -3.630601   -5.421105    0.652951
 H   -2.069103   -5.174518   -0.130921
 H   -2.163271   -5.298220    1.625669
 H   -1.885361   -2.922823    0.927404
 H   -3.440603   -3.171601    1.727946
 H   -4.568992   -3.291720   -0.489804
 H   -2.993617   -3.109887   -1.287821
 H   -6.322577    1.417650   -1.115751
 H   -6.419656    1.261466    0.646604
 H   -5.337822    2.484311   -0.077207
 H   -0.660073    2.619059    0.096925
 H    0.967374   -1.692421   -0.096712
 H    4.107121   -2.678936   -2.123477
 H    5.450915   -1.748864   -1.800911
 H    3.023711    3.722863   -0.641545
 H    2.970376    3.598871    1.132207
 H    1.132698    5.367319   -0.574139
 H    1.085711    5.246417    1.186180
 H    2.502820    5.941063    0.387099
