45 
3bjc_ligand_ani.xyz
 C   -2.459172   -4.993362    0.851055
 C   -2.621545   -3.480929    0.927600
 C   -3.472852   -2.946174   -0.229919
 C   -3.647207   -1.462205   -0.228130
 C   -2.620680   -0.470592   -0.173707
 N   -1.260612   -0.578597   -0.119860
 N   -4.836569   -0.890258   -0.286690
 N   -4.634752    0.434260   -0.265045
 C   -5.761983    1.340911   -0.317062
 C   -3.325916    0.738825   -0.195548
 C   -2.644351    2.014878   -0.135628
 O   -3.123753    3.134616   -0.138276
 N   -1.272976    1.800550   -0.067193
 C   -0.638521    0.570680   -0.070911
 C    0.821848    0.553980   -0.019899
 C    1.522163   -0.673908   -0.093456
 C    2.870921   -0.522308   -0.051027
 S    4.004542   -1.857261   -0.111184
 O    3.268494   -3.017081   -0.584538
 O    4.761695   -1.882916    1.126574
 N    5.038732   -1.364543   -1.314919
 S    3.365654    1.136405    0.080250
 C    1.690059    1.618374    0.089593
 O    1.277618    2.884073    0.184538
 C    2.166368    3.989595    0.413673
 C    1.271686    5.204018    0.549848
 H   -3.435424   -5.493378    0.864282
 H   -1.946293   -5.287575   -0.072303
 H   -1.874578   -5.375854    1.694062
 H   -1.642987   -2.986421    0.906851
 H   -3.093830   -3.204488    1.877697
 H   -4.472581   -3.393735   -0.209760
 H   -3.003049   -3.251302   -1.176854
 H   -6.312697    1.181857   -1.246351
 H   -6.419185    1.148579    0.533229
 H   -5.371163    2.357233   -0.274805
 H   -0.682471    2.624315   -0.013883
 H    1.018501   -1.629400   -0.182916
 H    4.980430   -1.977667   -2.121058
 H    5.983193   -1.272075   -0.956502
 H    2.849494    4.090544   -0.435703
 H    2.744191    3.812164    1.326669
 H    0.687403    5.356294   -0.363366
 H    0.580533    5.083797    1.390264
 H    1.873276    6.100699    0.726055
