21 
3blu_ligand_xtb.xyz
 S   -1.073463   -0.412698    0.017732
 O   -1.365624   -1.142520   -1.187496
 O   -1.363168   -1.064316    1.267728
 C   -1.995667    1.166348   -0.030750
 C    0.692878   -0.030447    0.002766
 C    1.537389   -1.125398   -0.019138
 C    2.908294   -0.933789   -0.027080
 C    3.423182    0.353087   -0.013586
 C    2.570691    1.444089    0.008236
 C    1.196399    1.254916    0.017366
 C   -3.464300    0.801502   -0.047592
 H   -1.692197    1.687533   -0.934257
 H   -1.723054    1.723025    0.861293
 H    1.101742   -2.111881   -0.030323
 H    3.572627   -1.784208   -0.043914
 H    4.491933    0.506524   -0.019875
 H    2.973515    2.445814    0.018320
 H    0.535733    2.107171    0.035768
 H   -3.674450    0.190424   -0.922159
 H   -3.701933    0.221070    0.840787
 H   -4.091379    1.690542   -0.072547
