22 
3bmn_ligand_ani.xyz
 C    3.798755   -0.526879    0.215209
 C    3.062325    0.765074    0.405137
 C    2.522352   -0.277114   -0.530024
 N    1.371786   -1.022789   -0.109166
 C    0.122100   -0.487668   -0.071530
 N    0.007152    0.843133   -0.074039
 N   -0.882988   -1.371918   -0.013295
 C   -2.093094   -0.806829    0.043092
 N   -3.152892   -1.645994    0.082422
 N   -2.361440    0.507388    0.049027
 C   -1.262902    1.265287   -0.016070
 N   -1.446635    2.610857   -0.003392
 H    3.761451   -1.245822    1.028168
 H    4.729603   -0.522860   -0.345044
 H    3.473985    1.676186   -0.020662
 H    2.509749    0.891300    1.330925
 H    2.593295   -0.067311   -1.597864
 H    1.372884   -2.019593   -0.276459
 H   -2.976786   -2.625985    0.231360
 H   -4.062379   -1.263435    0.282088
 H   -0.662962    3.186771   -0.265854
 H   -2.380937    2.954786   -0.162440
