28 
3bmo_ligand_ani.xyz
 C    1.305399   -0.631599   -0.055157
 C    1.013941    0.722670   -0.133809
 C    2.117253    1.592089   -0.089133
 N    3.370832    1.156806    0.020491
 N    2.546148   -1.101564    0.043678
 C   -1.940246   -0.608022    1.199838
 C   -3.126712    0.113610    1.244612
 C   -3.829264    0.422870    0.075644
 C   -5.114153    1.209927    0.133663
 C   -3.313138   -0.025409   -1.140186
 C   -2.125618   -0.749476   -1.196343
 C   -1.421562   -1.024460   -0.026322
 S    0.100894   -1.931987   -0.097279
 C    3.510919   -0.174657    0.074259
 N    4.785614   -0.636997    0.149404
 N    1.942187    2.943976   -0.118891
 H    0.011378    1.121030   -0.222332
 H   -1.413650   -0.848524    2.120269
 H   -3.518082    0.442127    2.205153
 H   -5.875040    0.683436    0.721524
 H   -4.959048    2.188539    0.602238
 H   -5.523558    1.379606   -0.866217
 H   -3.849297    0.193076   -2.061726
 H   -1.736052   -1.093172   -2.151819
 H    5.505073    0.024064    0.394385
 H    4.909897   -1.602296    0.406795
 H    1.085016    3.311608   -0.499203
 H    2.774678    3.491488   -0.277783
