57 
3bsc_ligand_xtb.xyz
 O    3.315490   -2.167915    2.009568
 S    2.835392   -1.742760    0.730207
 O    2.648206   -2.754529   -0.268914
 C    3.757392   -0.392174    0.070973
 C    5.136107   -0.408763    0.143025
 C    5.857079    0.624613   -0.446224
 O    7.207931    0.730967   -0.438897
 C    7.957238   -0.275571    0.203588
 C    5.158661    1.645585   -1.108505
 N    1.357365   -0.957766    0.990267
 C    0.910613   -0.072590    0.033811
 N    1.679588    0.655311   -0.680961
 C    3.044005    0.609580   -0.582955
 C    3.787612    1.639899   -1.179886
 C   -0.537181    0.091777   -0.148075
 C   -1.418803   -0.958551   -0.037069
 O   -0.983969   -2.190140    0.309649
 C   -1.022126    1.418769   -0.513958
 O   -0.373544    2.442224   -0.535103
 N   -2.380368    1.446732   -0.848268
 C   -2.984244    2.696771   -1.274147
 C   -3.996582    3.204448   -0.246625
 C   -3.401526    3.486687    1.137588
 C   -2.339651    4.582346    1.088067
 C   -4.525543    3.879808    2.095254
 N   -3.198910    0.428074   -0.789796
 C   -2.795836   -0.733643   -0.369475
 C   -3.801686   -1.808125   -0.317058
 C   -3.890423   -2.668873    0.776832
 C   -4.845137   -3.671089    0.797726
 C   -4.698642   -1.956060   -1.372860
 C   -5.648830   -2.958361   -1.345417
 C   -5.719064   -3.823570   -0.264703
 H    5.601891   -1.226744    0.667770
 H    7.721907   -0.330035    1.270651
 H    7.789788   -1.254193   -0.256012
 H    9.000105    0.010104    0.076683
 H    5.735162    2.435979   -1.563090
 H    0.667361   -1.506733    1.479084
 H    3.246576    2.423871   -1.683779
 H   -1.685643   -2.845142    0.173551
 H   -3.492758    2.519360   -2.225052
 H   -2.170740    3.407478   -1.416958
 H   -4.784457    2.454041   -0.148433
 H   -4.444787    4.119389   -0.638237
 H   -2.935566    2.568052    1.512715
 H   -1.458732    4.248552    0.547003
 H   -2.735713    5.474361    0.606978
 H   -2.030528    4.846928    2.096587
 H   -5.005152    4.796221    1.757981
 H   -5.279620    3.097418    2.150586
 H   -4.132840    4.047703    3.095135
 H   -3.248872   -2.530436    1.636612
 H   -4.908587   -4.329318    1.651217
 H   -4.634255   -1.276074   -2.207644
 H   -6.338075   -3.067127   -2.169213
 H   -6.459962   -4.608302   -0.246008
