44 
3bti_ligand_ani.xyz
 C   -0.681605    0.127030    0.018851
 C   -2.167163    0.100957    0.038240
 N   -0.061420    1.347778   -0.094333
 C    0.063351   -1.016532    0.184687
 C   -2.864017    1.264037    0.408261
 C   -2.863545   -1.079175   -0.310961
 C    1.313169    1.438551   -0.528648
 C   -0.828090    2.584411   -0.133450
 C    1.494663   -0.986155    0.158117
 C   -4.264403    1.268431    0.456371
 C   -2.065393    2.494424    0.760710
 C   -4.228719   -1.038865   -0.262587
 C    2.130077    0.222664   -0.156825
 C    2.290545   -2.125597    0.422240
 C   -4.918750    0.107542    0.121919
 O   -5.124272   -2.024228   -0.583469
 C    3.524275    0.309276   -0.202911
 C    3.662844   -2.037489    0.370100
 O   -6.263951   -0.127434    0.054369
 C   -6.393802   -1.526619   -0.175928
 C    4.303425   -0.828943    0.050501
 O    4.014973    1.523068   -0.589016
 O    5.654724   -0.700099   -0.049817
 C    5.269816    1.997902   -0.111686
 C    6.449178   -1.838396    0.204035
 H   -0.415220   -1.964420    0.396778
 H   -2.348005   -1.975450   -0.645049
 H    1.764574    2.329132   -0.070612
 H    1.378752    1.605485   -1.621981
 H   -1.137734    2.821651   -1.167928
 H   -0.177596    3.405136    0.203099
 H   -4.813876    2.160737    0.745371
 H   -1.758948    2.459900    1.815725
 H   -2.672306    3.396734    0.635526
 H    1.813864   -3.071212    0.668748
 H    4.256880   -2.921360    0.575087
 H   -6.702989   -2.024735    0.754348
 H   -7.122946   -1.696429   -0.971707
 H    5.409563    1.761387    0.949135
 H    6.096819    1.576695   -0.688277
 H    5.235780    3.081636   -0.242631
 H    6.301153   -2.206528    1.227288
 H    6.229872   -2.646402   -0.505941
 H    7.485389   -1.521593    0.080613
