44 
3bti_ligand_dft.xyz
 C   -0.655001    0.080843    0.016486
 C   -2.136259    0.073056    0.060327
 N   -0.008467    1.313225    0.135469
 C    0.081309   -1.055316   -0.061395
 C   -2.821850    1.187360    0.561055
 C   -2.855668   -1.053472   -0.397425
 C    1.298412    1.423651   -0.492873
 C   -0.800263    2.525098    0.082312
 C    1.531302   -1.007659    0.009621
 C   -4.224130    1.199337    0.648950
 C   -2.016461    2.386930    0.985197
 C   -4.221588   -1.018970   -0.295229
 C    2.160746    0.238941   -0.149070
 C    2.322941   -2.125872    0.262557
 C   -4.896374    0.081090    0.220879
 O   -5.126563   -1.983076   -0.647857
 C    3.537524    0.355576   -0.040896
 C    3.708201   -2.018846    0.367771
 O   -6.240352   -0.159388    0.209890
 C   -6.402063   -1.369604   -0.521927
 C    4.326990   -0.779391    0.225875
 O    4.121725    1.590127   -0.165730
 O    5.666763   -0.559882    0.315821
 C    4.806814    1.788887   -1.391642
 C    6.491915   -1.664816    0.599461
 H   -0.404137   -2.023414   -0.050990
 H   -2.357807   -1.909563   -0.835418
 H    1.776068    2.343870   -0.146910
 H    1.192853    1.504023   -1.594231
 H   -1.121719    2.756932   -0.949469
 H   -0.167562    3.351900    0.422046
 H   -4.754668    2.063194    1.035357
 H   -1.675497    2.274877    2.022620
 H   -2.625019    3.295829    0.934790
 H    1.853528   -3.097370    0.391944
 H    4.293598   -2.908832    0.569075
 H   -7.073365   -2.035609    0.024391
 H   -6.799850   -1.140507   -1.520140
 H    5.649250    1.096650   -1.491679
 H    4.126938    1.663262   -2.245014
 H    5.178838    2.815235   -1.374070
 H    6.237851   -2.118803    1.566096
 H    6.427778   -2.430362   -0.185277
 H    7.510631   -1.277085    0.641402
