51 
3btl_ligand_ani.xyz
 C   -0.013803    0.952047    0.884970
 C   -0.086698    2.365240    0.299236
 C   -0.871951    2.691141   -0.808196
 C   -0.866066    3.982732   -1.328297
 C   -0.076881    4.970270   -0.746431
 C    0.706709    4.659095    0.361510
 C    0.699133    3.366809    0.875935
 C    1.300656    0.241961    0.573760
 C    2.073505    0.512073   -0.554331
 C    3.224172   -0.209359   -0.838163
 C    3.668023   -1.237145    0.017404
 C    2.892877   -1.499257    1.165313
 C    1.740615   -0.774085    1.423477
 C   -1.241469    0.101169    0.570200
 C   -1.238753   -0.939108   -0.357563
 C   -2.391583   -1.650008   -0.658643
 C   -3.614837   -1.353943   -0.025923
 C   -3.613198   -0.310220    0.921915
 C   -2.450995    0.388890    1.205387
 C    5.266310   -2.966941    0.670785
 C    5.553659   -1.692890   -1.468331
 C   -4.722734   -3.137860   -1.276150
 C   -6.006400   -1.706457    0.331753
 N    4.813427   -1.954820   -0.255510
 N   -4.764441   -2.057528   -0.317674
 H   -0.023139    1.090348    1.979125
 H   -1.501323    1.922887   -1.257327
 H   -1.483857    4.217814   -2.191368
 H   -0.073907    5.978223   -1.153073
 H    1.325328    5.423742    0.825709
 H    1.318020    3.131838    1.740547
 H    1.768960    1.311455   -1.229694
 H    3.783715    0.035849   -1.732950
 H    3.188827   -2.276296    1.860836
 H    1.163725   -1.014218    2.316290
 H   -0.304991   -1.208389   -0.852061
 H   -2.334578   -2.445164   -1.392504
 H   -4.525013   -0.042014    1.442998
 H   -2.493455    1.190450    1.942435
 H    5.444050   -2.547117    1.670120
 H    4.536919   -3.782358    0.773121
 H    6.206494   -3.395309    0.311870
 H    4.929154   -1.837909   -2.360310
 H    5.943416   -0.665914   -1.493901
 H    6.402113   -2.379948   -1.533680
 H   -4.427831   -2.785379   -2.274165
 H   -4.013336   -3.919519   -0.972215
 H   -5.714015   -3.593106   -1.356107
 H   -5.943396   -1.828243    1.421833
 H   -6.289823   -0.665371    0.125293
 H   -6.806699   -2.354836   -0.036247
