79 
3bv3_ligand_ani.xyz
 C   10.190718   -3.570669    0.431512
 C    9.389050   -2.584702    0.998255
 C    9.533751   -1.247782    0.622828
 C    8.747146   -0.103397    2.749863
 C   11.146190   -3.234886   -0.524494
 C   11.296613   -1.905651   -0.906457
 C   10.495392   -0.921922   -0.333932
 C   -0.404788    2.322626   -0.422122
 C   -0.664289    3.707744   -0.341760
 C    6.394381    0.681218    0.744115
 C   -7.153108   -0.310589   -0.003008
 C   -2.783725    1.871461   -0.527784
 C   -5.934429   -0.240495   -0.671658
 N    3.479643   -0.597880   -1.065997
 N    2.847618   -1.471068   -1.857524
 C    1.590121   -1.171379   -2.059285
 N    0.872524   -0.117073   -1.572944
 C    1.532048    0.748805   -0.836120
 C    2.912913    0.550857   -0.513702
 C    3.908970    1.187168    0.244941
 C    5.076154    0.381552    0.128703
 C    4.769570   -0.696870   -0.684020
 C    3.791307    2.455685    1.035983
 O    6.697578    1.780112    1.203305
 N    7.278401   -0.353343    0.771147
 C    8.652629   -0.168030    1.222200
 N    0.940180    1.885241   -0.366959
 C   -1.991180    4.120473   -0.361873
 C   -3.060346    3.233770   -0.448873
 C   -1.462584    1.423717   -0.513043
 C    0.437766    4.730263   -0.241291
 N   -3.788603    0.889674   -0.658858
 C   -5.144475    1.026898   -0.492823
 O   -5.697458    2.072798   -0.192753
 C   -7.956240   -1.452738   -0.093330
 C   -7.523565   -2.512779   -0.903326
 C   -6.316798   -2.430672   -1.585273
 C   -5.515240   -1.300374   -1.476500
 N   -9.161696   -1.597330    0.625063
 C  -10.358100   -1.882326   -0.159753
 C  -11.467621   -2.355429    0.766591
 O  -11.735489   -1.396263    1.769779
 C  -10.580259   -1.147900    2.544067
 C   -9.436220   -0.636908    1.680120
 H   10.063787   -4.606812    0.734981
 H    8.645811   -2.870347    1.742693
 H    9.783625    0.075797    3.053500
 H    8.403899   -1.035553    3.211473
 H    8.122211    0.715918    3.113951
 H   11.769499   -4.006842   -0.968743
 H   12.038174   -1.631129   -1.653010
 H   10.615677    0.116985   -0.637652
 H   -7.463451    0.558077    0.570773
 H    1.062198   -1.875903   -2.692576
 H    5.354975   -1.518051   -1.078354
 H    3.653702    3.323237    0.377628
 H    4.703298    2.626982    1.609333
 H    2.940109    2.415241    1.728659
 H    7.007937   -1.257724    0.416224
 H    8.975458    0.803591    0.835613
 H    1.579595    2.535029    0.059310
 H   -2.205951    5.186904   -0.305084
 H   -4.085080    3.579111   -0.450729
 H   -1.239959    0.365413   -0.576795
 H    0.030663    5.739702   -0.358548
 H    1.202301    4.594069   -1.016673
 H    0.939512    4.703529    0.734673
 H   -3.442663   -0.054472   -0.746640
 H   -8.133825   -3.408959   -0.973739
 H   -5.997325   -3.261173   -2.210257
 H   -4.592315   -1.241766   -2.048959
 H  -10.697135   -0.988694   -0.712981
 H  -10.143290   -2.659460   -0.899075
 H  -11.184303   -3.315808    1.225589
 H  -12.399085   -2.498096    0.209859
 H  -10.266546   -2.066073    3.064820
 H  -10.855750   -0.400386    3.294003
 H   -8.540056   -0.518010    2.298751
 H   -9.709741    0.354514    1.275324
