58 
3bym_ligand_ani.xyz
 N    0.034126   -3.589298   -0.243676
 C    1.335713   -3.431350   -0.411092
 N    2.001877   -2.274589   -0.456602
 C    1.228848   -1.183250   -0.359731
 N   -0.085687   -1.204847   -0.147507
 C   -0.629533   -2.422342   -0.102095
 N   -1.973726   -2.538708    0.078058
 C   -4.241241   -1.794403   -0.171103
 C   -2.933946   -1.525996    0.258069
 C   -2.626463   -0.308829    0.865368
 C   -3.634752    0.641315    1.037414
 C   -4.946312    0.383905    0.624893
 C   -5.232496   -0.830601   -0.012258
 O   -5.937315    1.294670    0.861518
 O   -6.512591   -0.968826   -0.443945
 C   -6.113316    2.217501   -0.201191
 C    0.432199    3.926266   -1.073574
 C    1.754651    3.619896   -0.803938
 C    2.102781    2.276513   -0.633763
 C    1.125044    1.279516   -0.707983
 C   -0.207830    1.578415   -1.002436
 C   -0.537510    2.913482   -1.179324
 N    3.357000    1.728249   -0.398299
 C    3.173917    0.443984   -0.329254
 N    1.814388    0.071069   -0.486245
 N    4.117542   -0.519110   -0.134164
 O   -3.427157    1.872791    1.573061
 C   -6.854767   -2.180421   -1.081842
 C   -2.195207    2.101877    2.221687
 C    7.588955    0.810785    0.118141
 C    8.233086   -0.276646    0.698146
 C    7.498749   -1.420204    0.995607
 C    6.140656   -1.466932    0.709987
 C    5.490445   -0.368612    0.134421
 C    6.226205    0.779639   -0.166918
 H    1.923636   -4.338002   -0.516549
 H   -2.315251   -3.484398   -0.015611
 H   -4.461262   -2.744376   -0.644085
 H   -1.615601   -0.118177    1.196596
 H   -5.197785    2.799980   -0.365511
 H   -6.390097    1.697912   -1.127178
 H   -6.922831    2.888111    0.096140
 H    0.138468    4.963098   -1.210580
 H    2.510775    4.395568   -0.730150
 H   -0.955558    0.803247   -1.103638
 H   -1.570174    3.187340   -1.384887
 H    3.750822   -1.467845   -0.161276
 H   -6.266031   -2.331788   -1.995959
 H   -6.714886   -3.040321   -0.413694
 H   -7.910154   -2.095152   -1.343444
 H   -2.032122    1.381966    3.035441
 H   -1.356860    2.041793    1.516864
 H   -2.251744    3.110221    2.634315
 H    8.152524    1.709928   -0.118906
 H    9.296969   -0.232215    0.913923
 H    7.982634   -2.282488    1.447395
 H    5.559746   -2.359156    0.937821
 H    5.735365    1.635241   -0.616462
