19 
3c0z_ligand_xtb.xyz
 O   -2.735945   -1.304936   -0.155923
 O   -1.145875    1.812447   -0.000605
 N   -2.506758    0.054198    0.065348
 C   -1.261772    0.609404    0.009158
 C   -0.125896   -0.386874    0.039486
 C    1.232365    0.303952   -0.014812
 C    2.382186   -0.698301    0.021575
 C    3.736148   -0.001310   -0.025016
 H   -2.848272   -1.734806    0.707054
 H   -3.305780    0.642790   -0.138153
 H   -0.249181   -1.067014   -0.807284
 H   -0.211845   -0.982418    0.952826
 H    1.313835    0.992234    0.828197
 H    1.290998    0.900940   -0.926345
 H    2.295889   -1.380448   -0.827835
 H    2.314550   -1.296318    0.933935
 H    3.830924    0.585631   -0.935692
 H    3.848736    0.667944    0.824905
 H    4.543825   -0.729239    0.000840
