19 
3c0z_ligand_ani.xyz
 O   -2.738286   -1.254461   -0.266028
 O   -1.109556    1.786749   -0.023691
 N   -2.549613    0.069264    0.139303
 C   -1.261547    0.584030    0.051650
 C   -0.125576   -0.413901    0.145410
 C    1.221161    0.277493   -0.037313
 C    2.400057   -0.681414    0.101474
 C    3.747310    0.005342   -0.109744
 H   -3.033572   -1.707825    0.536030
 H   -3.247969    0.673433   -0.281109
 H   -0.281290   -1.203918   -0.598743
 H   -0.177900   -0.903254    1.128744
 H    1.299754    1.091810    0.693365
 H    1.242014    0.758841   -1.023165
 H    2.285187   -1.499286   -0.623192
 H    2.373379   -1.143638    1.097917
 H    3.806193    0.453129   -1.108855
 H    3.897258    0.808296    0.621565
 H    4.578550   -0.700036   -0.008784
