44 
3c10_ligand_xtb.xyz
 O    6.507136   -2.534141   -0.576742
 O    4.450775   -1.374135   -1.639784
 O   -2.002280    3.358120   -1.099983
 N    5.600032   -1.822548    0.216489
 N   -4.124097   -2.488545    0.166995
 C   -2.146781    1.196690   -0.190664
 C   -1.675179    0.203876    0.671734
 C   -2.322665   -1.003105    0.789407
 C   -3.484470   -1.290762    0.049772
 C   -3.959378   -0.286391   -0.813650
 C   -3.306703    0.914983   -0.922758
 C   -1.517381    2.508204   -0.380362
 C   -0.201568    2.765941    0.366211
 C    0.842830    1.818498   -0.132102
 C    1.797665    1.195725    0.577974
 C    2.723667    0.335539   -0.123633
 C    3.746960   -0.348656    0.410221
 C    4.598114   -1.178384   -0.440067
 C    0.260873    4.206725    0.123372
 C    1.970146    1.332136    2.063092
 C   -5.339602   -2.743841   -0.566508
 C   -3.595001   -3.523928    1.020108
 H    6.098826   -2.458631   -1.468614
 H    5.997276   -1.552673    1.100858
 H   -0.789596    0.367720    1.264281
 H   -1.919708   -1.733282    1.471782
 H   -4.843141   -0.449360   -1.407658
 H   -3.679979    1.676836   -1.591018
 H   -0.392157    2.628312    1.434686
 H    0.828060    1.671025   -1.204729
 H    2.573968    0.233655   -1.191284
 H    3.988431   -0.318850    1.461505
 H    1.178561    4.406258    0.671557
 H   -0.510420    4.901765    0.445448
 H    0.438772    4.366486   -0.936846
 H    2.959151    1.730765    2.284482
 H    1.233370    2.000488    2.497016
 H    1.883290    0.357776    2.543244
 H   -5.163377   -2.725696   -1.646585
 H   -6.106555   -2.002336   -0.325152
 H   -5.724944   -3.725396   -0.302318
 H   -3.600350   -3.215411    2.070536
 H   -2.570477   -3.781025    0.736533
 H   -4.204785   -4.419043    0.927077
