17 
3c2o_ligand_xtb.xyz
 N    1.663023    0.912593    0.001989
 C    0.679616    0.005640    0.000896
 C   -0.670323    0.383290   -0.002844
 C   -0.926042    1.761867   -0.010999
 C    0.099143    2.684650   -0.016197
 C    1.400502    2.200098   -0.007118
 C    1.272509   -1.383715    0.003573
 O    0.630924   -2.410749   -0.020355
 O    2.585246   -1.383519    0.029992
 C   -1.942888   -0.460197    0.007085
 O   -3.004452    0.108735    0.047925
 O   -1.868523   -1.766912   -0.033572
 H   -1.961268    2.071359   -0.012084
 H   -0.099151    3.744050   -0.025398
 H    2.260857    2.855380   -0.007435
 H    2.885518   -0.441569    0.036931
 H   -0.947784   -2.147595   -0.044231
