41 
3c4c_ligand_dft.xyz
 O   -9.085396    1.741235    4.107181
 S   -8.090592    2.458358    4.884935
 O   -7.834594    3.871987    4.674903
 C   -8.456021    2.129911    6.619408
 C   -7.432702    2.658654    7.625045
 C   -7.464767    4.172004    7.834897
 N   -6.598378    1.723824    4.606126
 C   -6.385041    0.363279    4.917094
 C   -5.341876    0.012324    5.772540
 F   -4.582712    1.004211    6.267887
 C   -7.169961   -0.659251    4.381604
 C   -6.920030   -1.984489    4.715655
 C   -5.862339   -2.283431    5.559237
 F   -5.623507   -3.566297    5.870097
 C   -5.039184   -1.301697    6.104116
 C   -3.937625   -1.604453    7.096133
 O   -3.997427   -1.137738    8.219793
 C   -2.826222   -2.430499    6.650734
 C   -2.618117   -2.954398    5.391940
 C   -1.707659   -2.851469    7.455272
 C   -1.303280   -2.673587    8.779119
 C   -0.874774   -3.622074    6.622103
 N   -1.458829   -3.663553    5.370136
 N    0.267453   -4.210644    6.950266
 C    0.636223   -4.032346    8.214364
 C   -0.112633   -3.282716    9.138956
Cl    0.492191   -3.128958   10.768348
 H   -9.448980    2.564652    6.774867
 H   -8.553829    1.041512    6.677802
 H   -7.643632    2.153073    8.574236
 H   -6.427646    2.331229    7.336153
 H   -6.741770    4.460712    8.603595
 H   -7.228265    4.712012    6.915366
 H   -8.456829    4.496277    8.168343
 H   -5.840366    2.345317    4.865650
 H   -7.981208   -0.399334    3.712014
 H   -7.531002   -2.787839    4.321109
 H   -3.227681   -2.862172    4.504241
 H   -1.890998   -2.090293    9.477582
 H    1.566686   -4.497697    8.526611
 H   -1.068682   -4.150634    4.578545
