41 
3c4c_ligand_xtb.xyz
 O    5.433549   -1.157880    1.218266
 S    5.157656   -0.781079   -0.133566
 O    5.793430   -1.483450   -1.201319
 C    5.431006    0.999159   -0.321730
 C    5.073528    1.409090   -1.734995
 C    5.441911    2.862625   -2.017008
 N    3.515072   -0.929297   -0.447311
 C    2.466023   -0.618637    0.391104
 C    1.150123   -0.781380   -0.057662
 F    0.970698   -1.227729   -1.318547
 C    2.658437   -0.129686    1.681016
 C    1.574239    0.188185    2.479010
 C    0.290584    0.023002    1.995366
 F   -0.749918    0.331705    2.797328
 C    0.043722   -0.468876    0.716121
 C   -1.348898   -0.760326    0.217131
 O   -1.654044   -1.874357   -0.144261
 C   -2.265289    0.367181    0.219819
 C   -2.004338    1.695160    0.487768
 C   -3.667197    0.289004   -0.077701
 C   -4.553902   -0.725574   -0.420497
 C   -4.175211    1.604843    0.041868
 N   -3.138090    2.427443    0.380674
 N   -5.433952    1.967138   -0.147700
 C   -6.262694    0.995700   -0.473424
 C   -5.869044   -0.341330   -0.617033
Cl   -7.056433   -1.517301   -1.047425
 H    6.484933    1.157288   -0.106746
 H    4.824456    1.493139    0.431897
 H    4.002333    1.266688   -1.891209
 H    5.604158    0.749200   -2.423175
 H    4.917457    3.529617   -1.336546
 H    6.510786    3.016518   -1.893753
 H    5.172077    3.128205   -3.035322
 H    3.287455   -1.388377   -1.314637
 H    3.661428   -0.046995    2.063528
 H    1.716898    0.554161    3.482905
 H   -1.070938    2.161063    0.741603
 H   -4.227347   -1.747511   -0.527289
 H   -7.291774    1.283673   -0.630133
 H   -3.224755    3.418606    0.537095
