22 
3c4h_ligand_xtb.xyz
 C    3.658023   -1.163003   -0.142478
 C    2.293199   -0.565746   -0.056319
 N    1.262266   -1.337252   -0.033419
 C    0.016696   -0.785672    0.035805
 C   -1.084940   -1.805211    0.029473
 C   -2.412790   -1.267664    0.528168
 S   -2.883499    0.205312   -0.430584
 C   -1.516340    1.238700    0.160199
 C   -0.185916    0.561207    0.085190
 C    0.957475    1.452978    0.075499
 O    0.932297    2.665993    0.126880
 N    2.181639    0.783476   -0.002600
 H    3.811576   -1.839946    0.694937
 H    3.738444   -1.750374   -1.054637
 H    4.428642   -0.397250   -0.136182
 H   -0.761461   -2.653977    0.636712
 H   -1.197970   -2.166843   -0.996930
 H   -2.360700   -0.977746    1.578321
 H   -3.209224   -1.996988    0.393840
 H   -1.734885    1.536770    1.190124
 H   -1.500836    2.140196   -0.453156
 H    3.004251    1.376119   -0.019803
