47 
3c6t_ligand_dft.xyz
 C    3.044115    0.493232   -1.002310
 C    4.261485    1.183599   -0.941150
 C    5.402643    0.550176   -0.473390
 C    5.342550   -0.778496   -0.070427
 C    4.147583   -1.484753   -0.109536
 C    3.010699   -0.844663   -0.573085
 C   -2.488270    0.546966    1.171731
 C   -1.977848    1.354616    2.184532
 C   -1.018364    2.293532    1.841081
 C   -0.566970    2.457426    0.533402
 C   -1.106880    1.634382   -0.453549
 C   -2.062867    0.667930   -0.142963
 C   -6.070924   -2.330299    0.068462
 C   -4.921380   -2.007272    0.777997
 C   -4.482250   -0.685815    0.787449
 C   -5.176708    0.305518    0.101035
 C   -6.322142   -0.052396   -0.613014
 C   -6.784159   -1.370746   -0.638432
Cl   -6.622395   -3.981926    0.055661
 O   -3.384493   -0.420846    1.556789
Cl   -0.350591    3.313811    3.086083
 O   -0.737199    1.672116   -1.768270
 C    0.179199    2.663131   -2.183559
 C    1.628817    2.389196   -1.771210
 N    1.864315    1.077537   -1.465507
 O    2.445719    3.289067   -1.769795
 S    6.811712   -1.596680    0.509713
 N    7.541442   -2.133883   -0.899086
 O    7.686187   -0.581304    1.072581
 O    6.387268   -2.768331    1.259447
Cl    1.502832   -1.733577   -0.602915
 C   -7.044261    0.961064   -1.333452
 N   -7.621805    1.778952   -1.916358
 H    4.290549    2.217799   -1.254199
 H    6.338288    1.094689   -0.409998
 H    4.100608   -2.511550    0.234735
 H   -2.324342    1.236750    3.203459
 H    0.192853    3.199806    0.323751
 H   -2.453169    0.032027   -0.929015
 H   -4.364586   -2.759767    1.323738
 H   -4.839361    1.335096    0.117630
 H   -7.675460   -1.635417   -1.193993
 H   -0.096895    3.659537   -1.825212
 H    0.129418    2.668132   -3.275375
 H    1.054548    0.471277   -1.512606
 H    8.476229   -1.746343   -0.979007
 H    7.544609   -3.148205   -0.936445
