70 
3c94_ligand_ani.xyz
 N   -0.052515    2.473751    0.215409
 C   -1.323390    1.929593   -0.328784
 C   -1.563730    0.616178    0.440007
 O   -0.939140    0.391653    1.469055
 C   -1.168562    1.771386   -1.852562
 C   -2.452150    1.701314   -2.645490
 O   -2.275702    2.095418   -3.912170
 O   -3.529096    1.319365   -2.231761
 N   -2.456997   -0.251117   -0.084810
 C   -2.327389   -1.671913    0.198622
 C   -1.396784   -2.282632   -0.873461
 O   -1.849679   -2.833069   -1.869303
 C   -3.696526   -2.366325    0.313700
 C   -3.500610   -3.851241    0.649913
 C   -4.613643   -2.154386   -0.897015
 C   -4.769736   -4.555546    1.125778
 N   -0.040205   -2.137807   -0.729968
 C    0.749097   -1.931639    0.477213
 C    1.407744   -0.535649    0.548802
 O    1.515614    0.210813   -0.415428
 C    1.863978   -2.982429    0.316446
 C    2.174380   -2.883307   -1.178219
 C    0.799501   -2.667219   -1.823682
 N    1.925491   -0.267497    1.779521
 C    2.876983    0.753253    2.195989
 C    2.168359    1.894002    2.919584
 O    1.040311    2.291334    2.741604
 C    3.880861    1.273529    1.122028
 C    3.617125    2.602964    0.436141
 C    3.209336    2.657588   -0.899375
 C    3.867084    3.804663    1.106776
 C    3.028614    3.880820   -1.541737
 C    3.691549    5.026764    0.466196
 C    3.270427    5.068904   -0.859563
 O    2.982093    2.457726    3.827991
 H    0.102100    3.463199   -0.021641
 H    0.721292    1.879981   -0.153033
 H   -0.050948    2.353091    1.246030
 H   -2.147468    2.612569   -0.101658
 H   -0.595910    2.623498   -2.228025
 H   -0.574109    0.876176   -2.074850
 H   -3.138768    2.012781   -4.353396
 H   -2.993520    0.043744   -0.895087
 H   -1.842557   -1.723236    1.177061
 H   -4.174974   -1.881157    1.179306
 H   -2.734587   -3.930644    1.432785
 H   -3.094611   -4.359941   -0.232553
 H   -5.587172   -2.627378   -0.724595
 H   -4.167743   -2.585414   -1.797683
 H   -4.810576   -1.091897   -1.085449
 H   -4.553632   -5.587379    1.421363
 H   -5.534329   -4.592925    0.342508
 H   -5.203731   -4.043218    1.992940
 H    0.155806   -2.097350    1.381434
 H    2.729623   -2.785081    0.955001
 H    1.465455   -3.969760    0.570357
 H    2.688702   -3.768179   -1.563393
 H    2.807087   -2.008996   -1.365987
 H    0.351771   -3.591656   -2.201561
 H    0.824043   -1.949835   -2.651556
 H    1.524363   -0.798963    2.540362
 H    3.484750    0.274599    2.969240
 H    3.993818    0.484211    0.374651
 H    4.844437    1.363693    1.639964
 H    2.998960    1.732736   -1.425675
 H    4.199436    3.772680    2.141048
 H    2.705593    3.901680   -2.580330
 H    3.889880    5.951344    1.001789
 H    3.133099    6.023601   -1.360809
 H    2.472031    3.173986    4.243894
