26 
3caj_ligand_ani.xyz
 N    4.002879    0.488691   -1.373007
 C   -0.290471    0.732975   -0.111315
 C   -0.533047   -0.652151   -0.058452
 C   -1.818754   -1.166169   -0.134381
 C   -2.887958   -0.277741   -0.252739
 C   -5.279143   -0.054588   -0.379389
 O    3.985802   -1.204834    0.482743
 O    3.925671    1.286347    1.019034
 S    3.566384    0.153415    0.191962
 C    1.777682    0.057667    0.084967
 N    1.045633    1.102269   -0.027759
 S    0.983829   -1.490345    0.107546
 C   -2.660910    1.107727   -0.301508
 C   -1.369784    1.608854   -0.236378
 O   -4.111576   -0.865423   -0.335430
 C   -5.658281    0.503604    0.983730
 H    4.584102   -0.244862   -1.764770
 H    4.397062    1.418605   -1.464074
 H   -2.027724   -2.231034   -0.106605
 H   -6.059409   -0.728025   -0.742891
 H   -5.158391    0.741365   -1.126601
 H   -3.487426    1.804466   -0.387410
 H   -1.183010    2.677345   -0.280698
 H   -5.776927   -0.312148    1.703075
 H   -4.899900    1.191288    1.371772
 H   -6.606551    1.047382    0.913444
