26 
3caj_ligand_dft.xyz
 N    4.012193    1.332380   -0.818813
 C   -0.271540    0.703188   -0.163082
 C   -0.534705   -0.680360   -0.095389
 C   -1.829848   -1.180981   -0.143374
 C   -2.883281   -0.275850   -0.260438
 C   -5.275348   -0.015881   -0.317151
 O    4.099629   -1.134605   -0.377309
 O    3.852685    0.516999    1.536645
 S    3.572382    0.093516    0.182616
 C    1.787537   -0.008717    0.007781
 N    1.068226    1.049929   -0.100579
 S    0.968768   -1.556161    0.034386
 C   -2.632657    1.111046   -0.327778
 C   -1.338276    1.596236   -0.281124
 O   -4.113632   -0.836312   -0.320744
 C   -5.595018    0.532926    1.065185
 H    3.862157    1.111925   -1.797838
 H    3.587199    2.213365   -0.545659
 H   -2.048591   -2.241434   -0.093679
 H   -6.072522   -0.681987   -0.654432
 H   -5.180877    0.783399   -1.062860
 H   -3.451057    1.815197   -0.414147
 H   -1.141063    2.661746   -0.328871
 H   -5.714895   -0.289162    1.776218
 H   -4.803678    1.191154    1.435402
 H   -6.528641    1.103656    1.033065
