37 
3ccn_ligand_xtb.xyz
 N   -1.328030    1.447791    0.235237
 N   -2.920364    2.835183   -0.398981
 C    2.197555    0.956873    0.029879
 C    2.289470   -0.429834    0.146270
 C    3.520857   -1.035704    0.300285
 C    0.875687    1.571987   -0.135233
 C    0.701497    2.797601   -0.852190
 C   -1.622433    2.634498   -0.434589
 C   -1.960428   -1.395217    0.699211
 C   -1.530295   -2.671050   -1.300993
 C   -0.259108   -3.098509    0.690986
 C   -2.232965   -1.690264   -0.632717
 C   -0.534196   -3.384091   -0.639943
 O    0.142062   -4.342021   -1.331645
 C   -0.966484   -2.108091    1.350080
 C   -2.715917   -0.290296    1.391645
 C   -2.538506    0.984065    0.650940
 N   -0.125845    0.922285    0.393133
 N   -3.470495    1.819116    0.262169
 C   -0.540983    3.333373   -1.002348
 C    3.360117    1.721954    0.082972
 C    4.589704    1.109111    0.240648
 C    4.674595   -0.269132    0.344443
 H    1.382825   -1.013677    0.108535
 H    3.584784   -2.110518    0.384732
 H    1.562528    3.274730   -1.290942
 H   -1.735535   -2.902185   -2.333956
 H    0.514219   -3.649179    1.211393
 H   -3.006127   -1.140285   -1.150002
 H    0.788571   -4.766680   -0.755183
 H   -0.732485   -1.888674    2.381341
 H   -2.347137   -0.171802    2.413863
 H   -3.785564   -0.505406    1.429142
 H   -0.728001    4.249391   -1.538322
 H    3.306586    2.799162    0.027765
 H    5.485632    1.710601    0.284758
 H    5.637351   -0.743587    0.463071
