46 
3cd8_ligand_ani.xyz
 N   -2.188126   -0.050506    0.421425
 N   -3.196046   -3.186334   -0.748100
 C   -2.420614    2.221945   -0.134991
 C   -3.094440    3.287459   -0.733535
 C   -2.730165    4.596847   -0.440786
 C   -2.746848    0.796667   -0.412303
 C   -3.578407    0.378010   -1.513261
 C   -3.203850   -1.866609   -0.833126
 C    0.971940   -1.738607    0.773478
 C    1.980162   -3.150945   -0.865123
 C    2.990708   -1.146710   -0.447848
 C    3.155215    1.303548    0.911739
 C    2.130123    0.442317    1.194234
 C    6.096395    1.560350   -1.208453
 O    5.101353    1.879882   -0.261029
 C    4.128245    0.953755   -0.062671
 C    4.050181   -0.244462   -0.729002
 C    2.018701   -0.801110    0.519469
 N    2.962765   -2.324659   -1.132797
 C    0.948826   -2.924577    0.073183
 O    0.083048   -1.383553    1.730785
 C   -1.005365   -2.263468    2.003544
 C   -1.947581   -2.421287    0.854088
 N   -2.427169   -1.340621    0.176434
 N   -2.405736   -3.520199    0.307880
 C   -3.816392   -0.942690   -1.726921
 C   -1.389194    2.487104    0.768645
 C   -1.021787    3.795843    1.058656
 C   -1.692483    4.853253    0.451922
 H   -3.914787    3.109103   -1.424267
 H   -3.257992    5.420227   -0.914871
 H   -4.006860    1.114535   -2.185164
 H    1.975780   -4.085628   -1.425947
 H    3.257882    2.261010    1.412967
 H    1.380420    0.694828    1.939399
 H    6.643133    0.652814   -0.922426
 H    5.666152    1.422530   -2.208571
 H    6.783591    2.407298   -1.223569
 H    4.768386   -0.555914   -1.477742
 H    0.168387   -3.669878    0.203612
 H   -1.514868   -1.799467    2.851224
 H   -0.640225   -3.253679    2.299412
 H   -4.435305   -1.308120   -2.535196
 H   -0.886709    1.646182    1.236226
 H   -0.213792    3.992496    1.760259
 H   -1.408423    5.877477    0.677079
