32 
3cf8_ligand_ani.xyz
 C    4.396876   -0.862126   -0.133636
 C    3.781166    0.375921   -0.015781
 C    2.366028    0.471588    0.043754
 C    1.629127   -0.712864   -0.013383
 C    2.225878   -1.960205   -0.119720
 C    3.616972   -2.017754   -0.182978
 C    1.682630    1.744634    0.166222
 C    0.227790    1.677879    0.160928
 C   -0.419736    0.486605    0.041251
 C   -1.876702    0.306983   -0.038903
 C   -2.719084    1.300695   -0.542584
 C   -4.087298    1.080162   -0.645441
 C   -4.639554   -0.124683   -0.233558
 C   -3.800088   -1.124291    0.285895
 C   -2.441072   -0.916111    0.374795
 O    0.272491   -0.697262    0.051599
 O    2.250177    2.848116    0.264761
 O   -4.439722   -2.276990    0.664715
 O   -5.972281   -0.333960   -0.332934
 O   -0.422047    2.854624    0.285623
 O    4.281522   -3.193447   -0.293539
 O    4.552689    1.461651    0.037036
 H    5.476447   -0.929411   -0.184303
 H    1.602517   -2.847655   -0.151569
 H   -2.307842    2.249364   -0.864347
 H   -4.746888    1.845414   -1.043609
 H   -1.793269   -1.697767    0.762324
 H   -3.793342   -2.913985    0.994919
 H   -6.157194   -1.225816   -0.001684
 H    0.269511    3.533204    0.369926
 H    3.642635   -3.916785   -0.314788
 H    3.967183    2.242986    0.133888
