24 
3cft_ligand_ani.xyz
 C   -0.760421    1.940064   -0.123486
 C    0.466820    2.623872   -0.115262
 C    1.642827    1.923565   -0.069311
 C    1.643994    0.501631   -0.033294
 C    0.418221   -0.213942   -0.106671
 C   -0.786726    0.567082   -0.106455
 C    1.648403   -2.294841   -0.166100
 C    0.447543   -1.631358   -0.192255
 O   -3.396548    0.845925   -0.091821
 S   -2.386332   -0.187197   -0.051621
 O   -2.334516   -0.806372    1.452636
 O   -2.481801   -1.321741   -0.954867
 C    2.864223   -1.599691   -0.040643
 C    2.880317   -0.227645    0.054179
 N    4.081041    0.477929    0.180582
 H   -1.697246    2.488472   -0.143014
 H    0.472463    3.710038   -0.136105
 H    2.591669    2.452186   -0.091538
 H    1.664592   -3.378116   -0.239947
 H   -0.475730   -2.185257   -0.294458
 H   -2.753770   -1.682647    1.406953
 H    3.801881   -2.153811   -0.009923
 H    4.042138    1.238017    0.847315
 H    4.879750   -0.114147    0.370780
