24 
3cft_ligand_dft.xyz
 C   -0.757721    1.940958   -0.016587
 C    0.470417    2.624275    0.056157
 C    1.642367    1.914945    0.074139
 C    1.654471    0.498929    0.007445
 C    0.419606   -0.216795   -0.028854
 C   -0.775099    0.568604   -0.047359
 C    1.637982   -2.297035    0.018004
 C    0.439193   -1.634581   -0.025694
 O   -3.385253    0.870225   -0.131423
 S   -2.387051   -0.177447   -0.119507
 O   -2.404620   -0.901482    1.338634
 O   -2.446845   -1.240218   -1.109462
 C    2.862820   -1.605660    0.018550
 C    2.890863   -0.228295   -0.005299
 N    4.099352    0.473851    0.013767
 H   -1.694275    2.486496   -0.030195
 H    0.479672    3.707338    0.114003
 H    2.581935    2.447791    0.177369
 H    1.648985   -3.382789    0.025097
 H   -0.485150   -2.193121   -0.072761
 H   -2.895885   -1.733351    1.236050
 H    3.795544   -2.163699    0.017301
 H    4.143435    1.255184   -0.627070
 H    4.907450   -0.121923   -0.109054
