44 
3cgf_ligand_ani.xyz
 C   -4.056674    1.499780    0.239455
 N   -2.757450    0.850043    0.333290
 C   -1.661204    1.619954    0.037227
 N   -0.442373    1.058719    0.035590
 C    0.623367    1.861077   -0.130765
 C    1.981799    1.316366    0.056700
 N    2.362452   -0.013262   -0.125425
 C    3.700166   -0.093565    0.236659
 C    4.353121   -1.354079    0.152161
 C    3.657820   -2.434706   -0.304614
 C    2.291859   -2.305257   -0.697413
 C    1.671482   -1.099410   -0.607788
 N    4.172066    1.085692    0.619837
 C    3.129336    1.935882    0.502707
 C    0.455222    3.214077   -0.435994
 C   -0.849808    3.682947   -0.474627
 N   -1.906427    2.918872   -0.219704
 C   -2.723554   -0.614213    0.288637
 C   -1.820054   -1.255363    1.351451
 C   -2.016158   -2.775801    1.360695
 C   -1.736264   -3.380738   -0.021005
 C   -2.590885   -2.715024   -1.106806
 C   -2.431899   -1.190469   -1.107228
 H   -4.820156    0.817766    0.621784
 H   -4.064007    2.411811    0.840022
 H   -4.303401    1.781618   -0.793236
 H    5.392048   -1.409160    0.453538
 H    4.143893   -3.404681   -0.374866
 H    1.754821   -3.171155   -1.071440
 H    0.644152   -0.906243   -0.883636
 H    3.235197    2.980208    0.776945
 H    1.292230    3.870943   -0.642976
 H   -1.058106    4.726765   -0.704300
 H   -3.747991   -0.924373    0.542590
 H   -2.054777   -0.822094    2.329988
 H   -0.770659   -1.030897    1.139199
 H   -3.050051   -3.007934    1.657049
 H   -1.365536   -3.233247    2.116157
 H   -1.916736   -4.462654   -0.007096
 H   -0.671197   -3.247879   -0.265040
 H   -3.648059   -2.964010   -0.934212
 H   -2.333963   -3.116888   -2.094157
 H   -1.411576   -0.921370   -1.408392
 H   -3.110036   -0.735729   -1.839750
