66 
3ckb_ligand_dft.xyz
 C   -5.696001    0.586270    1.589433
 C   -5.748694   -0.551936    0.573800
 C   -4.334772   -1.027164    0.298863
 C   -3.472964    0.150191   -0.124271
 C   -3.522908    1.245208    0.945010
 C   -2.700473    2.477720    0.574251
 O   -6.992806    1.052107    1.746490
 O   -6.480328   -1.661619    1.045732
 O   -4.292543   -2.002429   -0.727520
 O   -2.152569   -0.320904   -0.313581
 O   -4.881690    1.631991    1.116986
 O   -2.831729    2.828679   -0.779663
 C   -1.668711   -0.341361   -1.628304
 C   -0.876540   -1.633616   -1.815690
 C    0.354887   -1.606186   -0.914991
 C    1.186615   -0.358073   -1.189579
 C    0.282282    0.869777   -1.045663
 C    0.958378    2.173005   -1.405047
 O   -1.625060   -2.799678   -1.578006
 O    1.140326   -2.768046   -1.148950
 O    2.226628   -0.233548   -0.245803
 O   -0.848839    0.761516   -1.900101
 O    0.058341    3.205899   -1.038050
 C    3.457687   -0.828620   -0.571582
 C    3.912529   -1.702218    0.603962
 C    4.250277   -0.814549    1.791205
 C    5.277991    0.230676    1.394109
 C    4.762562    1.026749    0.196931
 C    5.804511    1.972026   -0.382114
 O    2.939305   -2.626042    1.022610
 O    4.791156   -1.560440    2.863802
 O    5.505136    1.143119    2.445886
 O    4.415867    0.146207   -0.878235
 O    6.908995    1.271441   -0.904401
 H   -5.285144    0.205050    2.544669
 H   -6.184178   -0.146966   -0.351640
 H   -3.921032   -1.450551    1.228252
 H   -3.858392    0.586252   -1.051635
 H   -3.134341    0.843753    1.897757
 H   -3.049163    3.299959    1.213616
 H   -1.653508    2.282471    0.830385
 H   -6.979362    1.769693    2.392295
 H   -7.379673   -1.356145    1.222116
 H   -4.956015   -2.671097   -0.506620
 H   -1.943273    2.790134   -1.168253
 H   -2.492345   -0.284232   -2.345405
 H   -0.534934   -1.661482   -2.858759
 H    0.037119   -1.579011    0.136095
 H    1.591963   -0.400720   -2.211598
 H   -0.044886    0.928020    0.000428
 H    1.163867    2.185554   -2.484464
 H    1.906602    2.251496   -0.860200
 H   -2.437488   -2.565480   -1.091167
 H    0.508602   -3.504227   -1.165493
 H    0.388890    4.047580   -1.369527
 H    3.356028   -1.431578   -1.479636
 H    4.830803   -2.220239    0.284304
 H    3.330135   -0.300947    2.108125
 H    6.211168   -0.273959    1.102957
 H    3.879681    1.599538    0.512362
 H    5.324849    2.593835   -1.154382
 H    6.175454    2.625302    0.410505
 H    2.368844   -2.859215    0.267278
 H    4.155838   -2.263653    3.053880
 H    5.682423    0.606118    3.229783
 H    6.540011    0.601329   -1.495533
