33 
3cn0_ligand_ani.xyz
 C   -4.070580    2.358623   -0.304881
 C   -3.126451    1.197813   -0.137682
 C   -1.749627    1.358066   -0.108170
 C   -3.636820   -0.101797   -0.005983
 O   -4.996934   -0.223088   -0.046811
 C   -2.801685   -1.214057    0.161243
 C   -3.373078   -2.605268    0.308044
 C   -1.428361   -1.002334    0.185230
 C   -0.875918    0.273693    0.041685
 C    0.573972    0.525120    0.039910
 C    1.538200   -0.394293   -0.103047
 C    2.993132   -0.162828   -0.039053
 C    3.548489    1.026652    0.446094
 C    4.926966    1.200395    0.476042
 C    5.773680    0.191755    0.025666
 C    5.234005   -1.000091   -0.451955
 C    3.856195   -1.173852   -0.478843
 H   -4.732123    2.458247    0.562407
 H   -3.516094    3.294442   -0.422596
 H   -4.710426    2.224061   -1.183227
 H   -1.335152    2.359237   -0.216350
 H   -5.234019   -1.154513    0.041118
 H   -4.040489   -2.689593    1.175289
 H   -3.933406   -2.918438   -0.582286
 H   -2.568174   -3.331714    0.451609
 H   -0.774910   -1.858330    0.341883
 H    0.848686    1.575525    0.135425
 H    1.255382   -1.423691   -0.319682
 H    2.904256    1.818713    0.820401
 H    5.341853    2.132003    0.853264
 H    6.850893    0.332914    0.048981
 H    5.888610   -1.794600   -0.802733
 H    3.437866   -2.105133   -0.854814
