44 
3cpc_ligand_ani.xyz
 C   -2.842412    0.397718   -0.792476
 C   -4.053993   -0.281004   -0.541462
 C   -5.038146   -0.567931   -1.526366
 N   -6.158123   -1.188013   -1.267896
 C   -6.345134   -1.553379    0.041762
 N   -7.537277   -2.163186    0.305106
 N   -5.520725   -1.362618    1.048716
 C   -4.358456   -0.720747    0.763916
 C   -3.412667   -0.490094    1.795645
 C   -2.238636    0.160205    1.527786
 C   -1.946568    0.657382    0.228666
 C   -0.729039    1.464810    0.006597
 C    0.546039    0.850340    0.382920
 O    0.658547   -0.219802    0.958854
 C   -0.791605    2.741240   -0.520147
 C   -2.094397    3.458440   -0.778184
 C    0.423885    3.411031   -0.810988
 C    1.616746    2.818587   -0.551459
 N    1.703473    1.578646    0.017784
 C    2.991925    0.996909    0.279650
 C    3.300337   -0.266024   -0.214761
 C    3.941896    1.712866    1.010087
 C    5.195339    1.161224    1.253182
 C    5.514087   -0.094342    0.745616
 C    4.564811   -0.795243    0.007411
 C    4.919891   -2.149506   -0.537561
 F    5.981723   -2.084429   -1.364201
 F    5.253719   -3.004511    0.448743
 F    3.908395   -2.705404   -1.225900
 H   -2.618224    0.712515   -1.808949
 H   -4.864633   -0.263214   -2.562618
 H   -8.035036   -2.539648   -0.485161
 H   -7.601390   -2.661450    1.179347
 H   -3.648056   -0.851536    2.791616
 H   -1.506502    0.305058    2.316872
 H   -2.548992    3.143320   -1.723674
 H   -2.821901    3.253405    0.012766
 H   -1.935930    4.538232   -0.838288
 H    0.405507    4.408604   -1.237290
 H    2.568058    3.287711   -0.783010
 H    2.548712   -0.831458   -0.753201
 H    3.680827    2.692610    1.402683
 H    5.928506    1.719086    1.827520
 H    6.491328   -0.534424    0.917791
