28 
3cqw_ligand_ani.xyz
 C    2.624448    0.986144   -0.672555
 C    1.429591    2.805827   -0.229632
 C    1.671581    0.133261   -0.003290
 C   -3.064136    0.354641   -0.108693
 N    3.724883    0.284406   -1.126056
 C   -2.633000    1.487793    0.752894
Cl    1.896043   -2.598708    0.764369
 C    2.286086   -1.122447   -0.012869
 C    3.532548   -0.934842   -0.733816
 N    2.507954    2.298864   -0.799824
 C    0.510990    0.821481    0.477513
 N    0.456856    2.150357    0.419513
 N   -0.546978    0.166051    1.044546
 C   -1.042486   -1.078675    0.455304
 C   -2.330017   -0.832467   -0.246507
 N   -2.962523   -1.668173   -1.078464
 C   -4.054897   -0.950382   -1.411908
 N   -4.171967    0.277038   -0.858724
 C   -1.568032    0.961220    1.727565
 H    1.314715    3.885261   -0.291605
 H   -3.480587    1.914749    1.298892
 H   -2.197175    2.286667    0.139699
 H    4.266708   -1.716268   -0.936501
 H   -1.161625   -1.834712    1.245458
 H   -0.293395   -1.457523   -0.247695
 H   -4.808419   -1.340549   -2.092043
 H   -2.035866    0.307852    2.473367
 H   -1.070717    1.783434    2.245196
