49 
3cr4_ligand_dft.xyz
 C   -2.890382    1.148474   -0.290746
 C   -4.237650    0.962489   -0.616217
 C   -4.835714   -0.271961   -0.424499
 C   -4.110651   -1.350779    0.096543
 C   -2.766612   -1.155669    0.409663
 C   -2.153385    0.077721    0.226092
 C   -0.994894    2.574550   -0.335344
 C   -0.679465    4.030792   -0.625942
 C   -4.720473   -2.692213    0.312425
 C    0.819504    4.347748   -0.569502
 C    2.524710    0.661512    0.282161
 C    3.863930    0.516292    0.648141
 C    4.502955   -0.701698    0.436210
 C    3.835351   -1.783538   -0.134147
 C    2.490856   -1.622490   -0.492958
 C    1.843294   -0.415309   -0.295165
 C    2.472194    2.983995    0.847681
 C    1.473085    4.129452    0.813580
 C    4.550252   -3.074833   -0.359596
 O   -2.390581    2.387670   -0.509105
 O    1.803160    1.797169    0.454604
 N   -3.963812   -3.724478    0.347271
 N   -6.108259   -2.694330    0.413935
 N    5.780018   -3.208297   -0.691701
 N    3.758818   -4.202234   -0.229484
 H   -4.791041    1.797414   -1.032983
 H   -5.872338   -0.405014   -0.720537
 H   -2.201447   -1.993897    0.803268
 H   -1.111665    0.196397    0.500071
 H   -0.702333    2.309378    0.687146
 H   -0.442017    1.914302   -1.017090
 H   -1.222604    4.659819    0.090436
 H   -1.066830    4.276764   -1.620971
 H    0.953027    5.390500   -0.875514
 H    1.340371    3.739847   -1.320171
 H    4.411519    1.331095    1.107198
 H    5.538847   -0.815234    0.744214
 H    1.958957   -2.447682   -0.956621
 H    0.808981   -0.283720   -0.596271
 H    2.887235    2.865978    1.858072
 H    3.303602    3.181037    0.155451
 H    0.706756    3.953347    1.578117
 H    2.013379    5.029637    1.127818
 H   -4.504224   -4.571454    0.535193
 H   -6.517516   -3.563067    0.729623
 H   -6.520709   -1.885719    0.858204
 H    6.193818   -2.295945   -0.877866
 H    4.289441   -5.062702   -0.268229
 H    3.057366   -4.181626    0.497016
