49 
3cr5_ligand_xtb.xyz
 C   -3.278852   -1.382899   -0.063129
 C   -2.374134   -0.522941    0.555447
 C   -2.639702    0.830563    0.620446
 C   -3.807932    1.364053    0.088361
 C   -4.715817    0.500211   -0.521096
 C   -4.454043   -0.850265   -0.597298
 C   -1.899278   -3.329037    0.146780
 C   -0.807118   -3.016927   -0.879959
 C   -4.029909    2.820011    0.168343
 C    0.553718   -3.598330   -0.504909
 C    3.359001   -1.095477   -0.044160
 C    3.025335   -0.351966    1.083879
 C    3.147664    1.025552    1.064200
 C    3.580732    1.694937   -0.072828
 C    3.913666    0.946602   -1.200437
 C    3.812475   -0.426847   -1.183616
 C    2.641220   -3.197378    0.855297
 C    1.121481   -3.016690    0.791645
 C    3.714801    3.174018   -0.065848
 O   -3.133609   -2.729744   -0.192542
 O    3.305239   -2.453853   -0.144134
 N   -3.017178    3.581655    0.230688
 N   -5.337492    3.240855    0.119625
 N    4.160062    3.879496    0.894174
 N    3.383501    3.795579   -1.238434
 H   -1.460316   -0.893231    0.992414
 H   -1.936244    1.504213    1.083156
 H   -5.618878    0.884798   -0.972282
 H   -5.146489   -1.524403   -1.076808
 H   -1.592560   -3.028266    1.154901
 H   -2.107782   -4.402502    0.157567
 H   -0.719953   -1.933751   -0.991799
 H   -1.121860   -3.419959   -1.844721
 H    1.252553   -3.372352   -1.312990
 H    0.482282   -4.684493   -0.418041
 H    2.678284   -0.828516    1.987522
 H    2.881522    1.592050    1.945792
 H    4.272938    1.448360   -2.086598
 H    4.080446   -1.015620   -2.047022
 H    2.902985   -4.237562    0.643335
 H    3.023248   -2.943030    1.851639
 H    0.676913   -3.498634    1.663349
 H    0.898219   -1.948322    0.834001
 H   -3.238918    4.573345    0.282888
 H   -5.522706    4.211639    0.315731
 H   -6.072417    2.596220    0.353631
 H    4.467464    3.342157    1.698185
 H    3.353960    4.801305   -1.184959
 H    2.692188    3.359096   -1.824557
