35 
3d04_ligand_ani.xyz
 C   18.301631   15.228622  -12.785037
 C   19.624549   15.061997  -13.165337
 C   20.577631   14.689504  -12.216212
 O   21.861025   14.541668  -12.645276
 C   20.197551   14.487447  -10.890269
 C   18.865772   14.654998  -10.526481
 C   17.903370   15.021001  -11.463594
 C   16.452849   15.142467  -11.059411
 O   15.829581   16.124988  -11.895153
 C   15.682800   13.825769  -11.172698
 C   14.227338   14.022682  -10.847941
 O   13.530050   13.100147  -10.420187
 C   13.693929   15.353335  -11.111011
 C   14.523482   16.371309  -11.623549
 C   14.031653   17.632888  -11.907790
 C   12.680187   17.900625  -11.662063
 O   12.277470   19.158899  -11.957742
 C   10.923058   19.482166  -11.727774
 C   11.826146   16.925141  -11.150962
 C   12.333680   15.649954  -10.880686
 O   11.498281   14.730028  -10.400647
 H   17.565063   15.534472  -13.522431
 H   19.941782   15.219590  -14.192546
 H   22.416559   14.285590  -11.898344
 H   20.938395   14.201821  -10.144772
 H   18.580163   14.499863   -9.487567
 H   16.400148   15.502335  -10.021789
 H   15.749923   13.465598  -12.207271
 H   16.099243   13.053554  -10.522817
 H   14.673554   18.408064  -12.307320
 H   10.659330   19.374238  -10.667941
 H   10.808601   20.525530  -12.024546
 H   10.253345   18.856577  -12.331567
 H   10.777030   17.107887  -10.954464
 H   12.017832   13.895247  -10.282805
