46 
3d14_ligand_ani.xyz
 C   -1.302978    2.581855   -0.520149
 C   -1.700116    1.293890   -0.666229
 C    8.951787   -0.130722    0.410111
 C    6.489957    0.231207    0.091123
 C    6.064472   -2.500557   -0.105527
 C    5.195169   -0.258753   -0.101281
 C   -3.081429    0.739425   -0.775963
 C    2.812883    0.466144   -0.336015
 C   -3.498882   -0.096734    0.446550
 C   -5.953144   -0.065512    0.409235
 C   -7.108206    1.841258    0.910865
 C   -7.203722   -0.707722    0.206758
 C   -8.355970    0.048953    0.389074
 C   -9.547914   -0.728345    0.149374
 C   -9.261469   -2.005124   -0.195405
 F    9.007303    1.212031    0.404456
 N    0.050698    2.812467   -0.395950
 C    0.683452    1.680518   -0.447661
 S   -0.296809    0.260400   -0.654691
 N   -8.320631    1.354817    0.749246
 N   -4.788438   -0.732826    0.266412
 N   -5.924592    1.218482    0.764106
 S   -7.563401   -2.342815   -0.250403
 F    9.447352   -0.548640    1.591444
 F    9.799283   -0.574565   -0.538705
 C    7.558565   -0.647797    0.186547
 C    7.354919   -2.021861    0.088506
 C    4.980241   -1.634895   -0.201568
 N    4.162669    0.696222   -0.183754
 N    2.065004    1.639511   -0.342949
 O    2.283434   -0.621720   -0.456024
 H   -1.979184    3.428540   -0.489627
 H    6.663051    1.301749    0.165039
 H    5.893124   -3.570398   -0.184044
 H   -3.172918    0.113192   -1.672588
 H   -3.799839    1.560217   -0.881771
 H   -3.558820    0.546524    1.330185
 H   -2.764569   -0.882473    0.636209
 H   -7.049487    2.888473    1.203416
 H  -10.549066   -0.322537    0.239596
 H   -9.967545   -2.792463   -0.427843
 H   -4.824833   -1.700815   -0.015503
 H    8.198920   -2.699316    0.164105
 H    3.977686   -2.011450   -0.351883
 H    4.477809    1.651002   -0.103404
 H    2.487436    2.550641   -0.226824
