93 
3d1e_ligand_ani.xyz
 N   -0.726101    0.696050    3.372474
 C   -1.893624    1.307954    2.674626
 C   -2.459474    0.323832    1.656315
 O   -3.425932   -0.394517    1.914770
 N   -1.815396    0.278407    0.466581
 C   -2.113477   -0.747067   -0.528420
 C   -1.445973   -2.061792   -0.050014
 O   -0.358327   -2.438683   -0.474707
 C   -1.673116   -0.322435   -1.932913
 C   -2.813756    0.213102   -2.802050
 C   -3.409448    1.531643   -2.331254
 O   -2.806570    2.338841   -1.633291
 N   -4.669586    1.784476   -2.752287
 N   -2.158052   -2.722220    0.901339
 C   -1.543408   -3.695804    1.809953
 C   -0.565600   -2.926219    2.720814
 O   -1.013641   -2.084747    3.497015
 C   -0.963524   -4.934129    1.121530
 C   -1.970309   -5.845198    0.393546
 C   -2.419025   -5.292534   -0.962627
 C   -3.172730   -6.204635    1.267130
 N    0.767218   -3.170048    2.604125
 C    1.755249   -2.324898    3.237324
 C    2.437781   -1.275638    2.357089
 O    3.275211   -0.523958    2.838810
 N    2.087683   -1.232389    1.042980
 C    2.574837   -0.173042    0.197791
 C    1.899200    1.170786    0.529925
 O    0.865545    1.273698    1.187003
 C    2.330770   -0.509027   -1.285500
 C    3.262024   -1.564108   -1.913956
 C    4.728882   -1.126885   -1.899366
 C    3.102197   -2.964585   -1.318364
 N    2.487758    2.281055    0.003581
 C    1.675727    3.487941   -0.113108
 C    0.421809    3.122243   -0.916349
 O   -0.713886    3.431845   -0.316085
 C    2.483444    4.590676   -0.811193
 C    1.772380    5.924408   -0.877115
 C    1.910840    6.852800    0.156761
 C    0.944636    6.241657   -1.956364
 C    1.237899    8.070326    0.114971
 C    0.271863    7.458783   -2.003170
 C    0.417356    8.376287   -0.966589
 O    0.506636    2.576409   -2.000377
 H   -0.499834    1.216066    4.230508
 H   -0.925478   -0.298681    3.604561
 H    0.080623    0.741821    2.727166
 H   -1.569255    2.226789    2.179250
 H   -2.687640    1.531401    3.386721
 H   -0.939450    0.780639    0.374524
 H   -3.195559   -0.908985   -0.496693
 H   -0.877531    0.431684   -1.865141
 H   -1.243630   -1.192728   -2.439702
 H   -3.613849   -0.534328   -2.875027
 H   -2.447664    0.371241   -3.824546
 H   -5.167368    1.173144   -3.377540
 H   -5.084652    2.668219   -2.501646
 H   -2.895259   -2.162536    1.325970
 H   -2.345366   -4.000874    2.490749
 H   -0.201720   -4.621509    0.401053
 H   -0.472469   -5.533012    1.901553
 H   -1.418973   -6.775869    0.193871
 H   -1.562328   -4.971481   -1.565510
 H   -2.957358   -6.063393   -1.525774
 H   -3.088252   -4.435256   -0.848416
 H   -3.798088   -6.959489    0.777250
 H   -3.805627   -5.326673    1.449707
 H   -2.860345   -6.606184    2.238861
 H    1.087455   -3.837894    1.919781
 H    2.543529   -2.929302    3.697913
 H    1.255597   -1.771782    4.038872
 H    1.300246   -1.777363    0.698871
 H    3.645403   -0.042280    0.397765
 H    1.287794   -0.841391   -1.389009
 H    2.414280    0.411184   -1.876921
 H    2.951314   -1.624037   -2.967160
 H    5.349506   -1.837717   -2.457135
 H    4.859915   -0.137662   -2.354295
 H    5.127929   -1.083224   -0.878615
 H    3.637903   -3.700854   -1.928679
 H    3.513397   -3.016919   -0.304406
 H    2.048287   -3.261803   -1.275731
 H    3.140794    2.120631   -0.752425
 H    1.371590    3.802076    0.886786
 H   -1.462662    3.090721   -0.864122
 H    2.727306    4.242652   -1.823417
 H    3.427235    4.697263   -0.264261
 H    2.558810    6.625869    1.001642
 H    0.822109    5.519644   -2.762554
 H    1.357607    8.783111    0.927540
 H   -0.366646    7.692503   -2.851533
 H   -0.107719    9.327808   -1.001312
