18 
3d1v_ligand_xtb.xyz
 O   -0.092409    2.780456   -0.002557
 C    0.095880    1.587375   -0.000961
 C   -0.950133    0.556087    0.000382
 C   -0.593452   -0.799854   -0.000945
 N    0.739232   -1.142692   -0.000831
 C    1.752418   -0.238154    0.000120
 S    3.323952   -0.710614    0.001444
 N    1.387365    1.076966   -0.000333
 C   -1.588793   -1.775793   -0.002412
 C   -2.916491   -1.399778   -0.000686
 C   -3.274814   -0.055790    0.002592
 C   -2.296225    0.915920    0.002614
 H    1.005901   -2.118411   -0.000687
 H    2.144010    1.752665   -0.000579
 H   -1.310689   -2.819153   -0.004758
 H   -3.683295   -2.159518   -0.002067
 H   -4.316592    0.223512    0.005183
 H   -2.539815    1.967082    0.004186
