18 
3d1v_ligand_ani.xyz
 O   -0.097011    2.784166   -0.006541
 C    0.086127    1.584508   -0.002258
 C   -0.966182    0.552709    0.000156
 C   -0.605911   -0.797558   -0.003440
 N    0.744271   -1.135868   -0.006049
 C    1.770047   -0.242213   -0.000034
 S    3.361122   -0.704708    0.004091
 N    1.386684    1.072084    0.001593
 C   -1.598818   -1.782698   -0.003864
 C   -2.931951   -1.406366    0.000395
 C   -3.298788   -0.055409    0.005548
 C   -2.312606    0.914651    0.005634
 H    1.018341   -2.108149   -0.010293
 H    2.131305    1.759319    0.003011
 H   -1.321774   -2.835223   -0.007035
 H   -3.701207   -2.174219    0.000087
 H   -4.348005    0.226124    0.009193
 H   -2.548696    1.974890    0.010276
