26 
3d2t_ligand_ani.xyz
 F   -1.234587   -1.620850    1.268839
 C   -2.008075   -0.750396    0.590085
 C   -3.363874   -1.022804    0.519255
 C   -4.159574   -0.125083   -0.172996
 F   -5.475432   -0.366743   -0.265455
 C   -3.639105    1.010239   -0.771698
 C   -2.275449    1.247077   -0.663302
 C   -1.416778    0.374904    0.013852
 C    0.043626    0.636657    0.088013
 C    0.973960   -0.381990   -0.107493
 C    2.347822   -0.144577   -0.100342
 C    3.303595   -1.285148   -0.307578
 O    2.915045   -2.179329   -1.250410
 O    4.320129   -1.448155    0.306463
 C    0.527464    1.930196    0.311800
 C    1.888167    2.185400    0.352420
 C    2.809042    1.153648    0.146914
 O    4.141009    1.377740    0.152965
 H   -3.778090   -1.911092    0.981862
 H   -4.295390    1.689267   -1.304658
 H   -1.855606    2.126826   -1.143311
 H    0.617206   -1.400515   -0.235372
 H    2.135727   -1.846204   -1.718211
 H   -0.172799    2.744862    0.477234
 H    2.246547    3.197430    0.533143
 H    4.298188    2.316966    0.313142
