27 
3d8w_ligand_ani.xyz
 C    2.522829    1.345344   -0.723658
 C    3.209588    2.533882   -0.497755
 C    4.371512    2.538203    0.269963
 C    4.855062    1.351151    0.815045
 C    4.177373    0.156813    0.597646
 C    3.012198    0.168629   -0.163773
 S    2.148050   -1.363908   -0.414398
 O    1.395087   -1.258066   -1.651430
 O    3.070946   -2.448206   -0.137392
 N    1.011634   -1.400791    0.808234
 C   -0.273751   -0.887069    0.758928
 S   -1.122572   -0.505973   -0.712044
 N   -0.955647   -0.702326    1.849797
 N   -2.204725   -0.223146    1.594025
 C   -2.431274   -0.077057    0.334010
 S   -3.988563    0.581598   -0.253502
 O   -3.785387    1.997521   -0.462993
 O   -4.442376   -0.301639   -1.305683
 N   -5.021788    0.397283    1.014101
 H    1.629082    1.330836   -1.341412
 H    2.837506    3.460207   -0.926686
 H    4.904910    3.470148    0.441241
 H    5.765179    1.354430    1.408406
 H    4.543362   -0.784631    0.998352
 H    1.326179   -1.702811    1.722655
 H   -4.701164    0.865433    1.857552
 H   -5.269393   -0.574491    1.173460
