27 
3dbu_ligand_ani.xyz
 C    2.527650    1.336619   -0.732946
 C    3.217211    2.525641   -0.518196
 C    4.385580    2.532769    0.239816
 C    4.873616    1.347883    0.785630
 C    4.193118    0.153148    0.579753
 C    3.020867    0.162517   -0.170957
 S    2.149428   -1.369156   -0.398600
 O    1.396051   -1.278911   -1.636651
 O    3.066949   -2.453778   -0.106293
 N    1.013924   -1.379377    0.826058
 C   -0.267713   -0.858312    0.769203
 S   -1.129232   -0.532720   -0.705745
 N   -0.937328   -0.627639    1.860081
 N   -2.188489   -0.160463    1.599142
 C   -2.429711   -0.066780    0.338056
 S   -3.981215    0.590145   -0.240126
 O   -3.880402    2.035033   -0.179838
 O   -4.318262   -0.105362   -1.464850
 N   -5.016220    0.033894    0.925196
 H    1.629348    1.320178   -1.343958
 H    2.842220    3.450290   -0.947985
 H    4.920448    3.465288    0.403106
 H    5.788827    1.353049    1.370886
 H    4.561154   -0.786947    0.981748
 H    1.333285   -1.649132    1.748934
 H   -5.164651    0.706467    1.671297
 H   -5.875938   -0.313173    0.513067
