19 
3dc3_ligand_dft.xyz
 C   -0.986297    0.279682    0.006131
 C    1.308127    0.716223   -0.001234
 C    3.514247   -0.329701    0.006486
 C    4.988302   -0.009568   -0.015648
 N   -3.573731    0.934972    0.511036
 N    0.600773    1.813845   -0.010845
 N   -0.734707    1.548173   -0.009483
 N    2.683085    0.776583   -0.002761
 O   -3.007358   -0.502330   -1.455208
 O   -2.755103   -1.400557    0.903945
 O    3.054443   -1.453600    0.028071
 S   -2.673506   -0.322862   -0.059707
 S    0.401399   -0.765152    0.025493
 H    5.548245   -0.942981    0.030792
 H    5.250997    0.524334   -0.934945
 H    5.262181    0.621858    0.835875
 H   -3.479742    1.769104   -0.060839
 H   -3.402793    1.119763    1.494139
 H    3.064757    1.713211   -0.022090
