58 
3dct_ligand_ani.xyz
 C   -4.763616   -0.092489   -0.027726
 N   -6.021039    0.015747   -0.366243
 C   -5.095959    2.039537   -0.431042
 C   -2.651556    1.465551    0.166216
 C   -3.761389   -1.606085    1.710095
 C   -4.127517   -2.499580   -0.468550
 C   -5.133328    3.509096   -0.710778
 C   -5.002448    3.775202   -2.217176
 C   -6.396030    4.166545   -0.147886
 C   -0.544843    0.365902   -0.076338
 C   -3.147508   -3.870181    1.240695
 C    0.123856   -0.805892   -0.440756
 C    0.181129    1.480092    0.335961
 C    1.504107   -0.851749   -0.381981
 C    1.566639    1.402284    0.392635
 C    2.270354    0.242921    0.051889
 C    3.734717    0.169489    0.136595
 C    4.526488    1.006034    0.822375
 C    6.001907    0.986928    0.809132
 C    6.732914    0.403728   -0.230307
 C    6.703311    1.573024    1.870809
 C    8.093481    1.556232    1.902363
 C   -4.098800    1.175929   -0.076952
 C   -4.222479   -1.407084    0.401679
 O   -6.229118    1.347695   -0.620076
 O   -1.897330    0.306655   -0.157432
 C   -3.229613   -2.814591    2.138676
Cl   -3.846032   -0.304129    2.865146
 C   -3.594252   -3.718768   -0.063863
Cl   -4.658180   -2.365816   -2.120135
Cl    2.271108   -2.341935   -0.856984
 C    8.122918    0.364218   -0.194278
 C    8.807187    0.948945    0.872824
 C    8.819513   -0.272920   -1.363118
 O   10.066017   -0.745611   -1.144472
 O    8.317499   -0.373028   -2.451941
 H   -2.477054    1.740804    1.215789
 H   -2.323722    2.308719   -0.459696
 H   -4.264161    3.954614   -0.210571
 H   -5.846635    3.334295   -2.758815
 H   -4.991923    4.851938   -2.417128
 H   -4.077943    3.341057   -2.612299
 H   -6.358055    5.249387   -0.308964
 H   -7.290394    3.776100   -0.642528
 H   -6.490172    3.978950    0.925867
 H   -2.734026   -4.821798    1.561169
 H   -0.448115   -1.670010   -0.765047
 H   -0.307563    2.406193    0.618662
 H    2.117784    2.288852    0.693653
 H    4.190485   -0.664840   -0.388775
 H    4.084427    1.747859    1.487372
 H    6.236611   -0.003998   -1.108436
 H    6.150033    2.039098    2.682807
 H    8.625603    2.010097    2.734786
 H   -2.885415   -2.921102    3.162691
 H   -3.538307   -4.538258   -0.773727
 H    9.895879    0.974870    0.894527
 H   10.271055   -0.730696   -0.199880
