26 
3dcw_ligand_ani.xyz
 N   -4.039688   -1.140115   -1.015331
 C    0.277365   -0.706155   -0.140117
 C    0.530303    0.676693   -0.078705
 C    1.820704    1.181572   -0.129411
 C    2.884708    0.285415   -0.234785
 C    5.273502    0.039950   -0.349919
 O   -3.900241   -0.747175    1.444318
 O   -4.042526    1.213633   -0.164919
 S   -3.578341   -0.112118    0.185788
 C   -1.788078   -0.013190    0.042162
 N   -1.063913   -1.063314   -0.080500
 S   -0.984780    1.529145    0.053980
 C    2.646703   -1.097638   -0.298284
 C    1.351520   -1.589707   -0.254419
 O    4.114849    0.862474   -0.287565
 C    5.641471   -0.561294    0.997977
 H   -3.636848   -2.067969   -0.916241
 H   -3.933884   -0.741690   -1.942726
 H    2.037119    2.244641   -0.091983
 H    6.063389    0.714075   -0.690789
 H    5.146003   -0.732922   -1.119857
 H    3.469259   -1.799579   -0.379443
 H    1.158797   -2.656669   -0.306500
 H    5.784885    0.232621    1.737016
 H    4.866437   -1.237276    1.372837
 H    6.574144   -1.129001    0.910540
