26 
3dd0_ligand_xtb.xyz
 N    3.915553    1.676653   -0.038632
 C   -0.268485    0.710742   -0.146438
 C   -0.528661   -0.678787   -0.071358
 C   -1.817285   -1.168868   -0.113306
 C   -2.877665   -0.270790   -0.233773
 C   -5.270861   -0.042475   -0.347999
 O    3.973864   -0.381571    1.380000
 O    4.081637   -0.591535   -1.078341
 S    3.574905    0.063067    0.083982
 C    1.788864   -0.008501    0.008104
 N    1.057541    1.035471   -0.096954
 S    0.979955   -1.546781    0.064907
 C   -2.621415    1.107446   -0.306231
 C   -1.334680    1.595921   -0.264351
 O   -4.102999   -0.841554   -0.292601
 C   -5.647880    0.540057    1.010392
 H    3.567227    2.206247    0.742581
 H    3.637984    2.065323   -0.924226
 H   -2.025149   -2.224154   -0.060663
 H   -6.049428   -0.733226   -0.682915
 H   -5.165427    0.747293   -1.101165
 H   -3.433431    1.809807   -0.401732
 H   -1.141160    2.654804   -0.322023
 H   -5.778451   -0.263347    1.730833
 H   -4.873628    1.208502    1.378694
 H   -6.579579    1.092111    0.924788
