18 
3deh_ligand_xtb.xyz
 O   -3.256878   -0.493710    0.001539
 C   -2.092897   -0.188252    0.001586
 N   -1.697905    1.129681    0.004764
 C   -0.969011   -1.230789   -0.001796
 O   -1.241485   -2.406979   -0.008684
 C    0.409011   -0.712231    0.002087
 C    0.673179    0.663053   -0.001040
 C    1.989080    1.113415   -0.003884
 C   -0.418477    1.657009   -0.000068
 O   -0.250924    2.853035   -0.001824
 C    1.473035   -1.613649    0.005672
 C    2.777597   -1.155624    0.003947
 C    3.036005    0.208030   -0.001976
 H   -2.450768    1.814862    0.007401
 H    2.166396    2.178265   -0.007699
 H    1.249075   -2.669869    0.009731
 H    3.595129   -1.860482    0.006572
 H    4.054674    0.564915   -0.004767
