18 
3deh_ligand_ani.xyz
 O   -3.282118   -0.493442    0.001067
 C   -2.117022   -0.184614    0.001398
 N   -1.697233    1.137350    0.004486
 C   -0.981468   -1.223104   -0.001928
 O   -1.259837   -2.398684   -0.007542
 C    0.417282   -0.710400    0.001436
 C    0.691688    0.660237   -0.001051
 C    2.009813    1.107960   -0.004104
 C   -0.405181    1.670028    0.000400
 O   -0.235819    2.870662   -0.001301
 C    1.469091   -1.628374    0.005364
 C    2.775540   -1.178615    0.003729
 C    3.049689    0.194108   -0.001760
 H   -2.440288    1.826625    0.006617
 H    2.186748    2.178866   -0.008281
 H    1.225070   -2.686095    0.009337
 H    3.595135   -1.892507    0.006063
 H    4.079561    0.540017   -0.003839
