32 
3dg8_ligand_dft.xyz
 C   -2.321994   -1.137481   -0.218593
 C   -3.042706    0.051089   -0.154951
 C   -2.364547    1.257959   -0.008255
 C   -0.971894    1.283848    0.099819
 C   -0.264167    0.082331    0.033205
 C   -0.925941   -1.135066   -0.138875
 O   -3.062046   -2.261622   -0.375783
 C   -2.391115   -3.501405   -0.427313
 O   -3.146412    2.364788    0.037123
 C   -2.520078    3.618405    0.185592
 N    1.139825    0.144991    0.086241
 C    1.969012   -0.757771    0.716580
 N    3.344841   -0.554378    0.495140
 C    4.007639    0.338453   -0.347594
 N    3.475414    1.636114   -0.325340
 N    1.673724   -1.755581    1.459483
 N    5.022206    0.084453   -1.075383
 H   -4.123687    0.038181   -0.223208
 H   -0.427892    2.208589    0.250298
 H   -0.349855   -2.043118   -0.256932
 H   -1.722220   -3.562772   -1.295017
 H   -1.814094   -3.685918    0.487738
 H   -3.170004   -4.258903   -0.520966
 H   -1.970499    3.685089    1.133457
 H   -1.834930    3.828017   -0.645937
 H   -3.322763    4.356714    0.184114
 H    1.587979    0.956313   -0.326860
 H    3.871317   -1.363551    0.792739
 H    4.030684    2.242749   -0.918068
 H    3.392925    2.009074    0.615018
 H    0.671625   -1.810970    1.618359
 H    5.211760   -0.916189   -1.104132
