23 
3dnd_ligand_ani.xyz
 C   -2.287233   -0.615040    1.030952
 C   -3.353756   -1.168234    0.327397
 C   -3.735938   -0.625831   -0.895042
 C   -3.047724    0.470185   -1.408479
 C   -1.980014    1.015976   -0.703555
 C   -1.588377    0.477138    0.521621
 C   -0.399832    1.059878    1.262685
 C    0.910781    0.726929    0.615346
 S    1.459841   -0.920521    0.469978
 C    1.829293    1.541126    0.039303
 N    2.945059    0.951154   -0.514194
 C    2.876974   -0.334919   -0.364893
 N    3.859196   -1.206670   -0.772888
 H   -1.993143   -1.039906    1.989607
 H   -3.887068   -2.023198    0.736627
 H   -4.568322   -1.054641   -1.447455
 H   -3.343592    0.901476   -2.362090
 H   -1.449785    1.875581   -1.108132
 H   -0.408326    0.704997    2.301510
 H   -0.486773    2.151621    1.305998
 H    1.732820    2.619576   -0.009806
 H    3.552880   -2.124643   -1.060964
 H    4.519038   -0.777172   -1.407382
