23 
3dnd_ligand_dft.xyz
 C   -2.626833    0.618901    0.980890
 C   -3.725325   -0.224684    0.830180
 C   -3.816709   -1.058078   -0.279328
 C   -2.803229   -1.044194   -1.235817
 C   -1.708569   -0.201866   -1.081609
 C   -1.610054    0.641894    0.027424
 C   -0.424950    1.579765    0.178316
 C    0.907694    0.927533   -0.030619
 S    1.503613   -0.352094    1.007135
 C    1.827674    1.159176   -0.999490
 N    2.972982    0.391674   -0.992001
 C    2.939560   -0.440945    0.002413
 N    3.971193   -1.295330    0.319556
 H   -2.560012    1.266785    1.851859
 H   -4.507485   -0.231420    1.583793
 H   -4.670797   -1.718208   -0.398086
 H   -2.865328   -1.694480   -2.103631
 H   -0.912195   -0.201081   -1.821849
 H   -0.465515    2.059160    1.164106
 H   -0.504566    2.389770   -0.558263
 H    1.706647    1.905706   -1.777340
 H    3.713408   -2.181257    0.729810
 H    4.643257   -1.380900   -0.431614
