54 
3dnj_ligand_xtb.xyz
 N   -1.105206    0.728808    0.246612
 C   -1.160821   -0.544214    1.026466
 C    0.319308   -0.807530    1.383801
 O    0.776429   -0.393924    2.420490
 C   -1.902214   -1.595605    0.198501
 C   -3.306184   -1.108663   -0.057638
 C   -4.315164   -1.329417    0.870727
 C   -3.597430   -0.365472   -1.200414
 C   -5.585840   -0.828737    0.666275
 C   -4.864362    0.140731   -1.412597
 C   -5.872421   -0.083870   -0.476005
 O   -7.089169    0.435859   -0.721870
 N    1.055088   -1.377397    0.401594
 C    2.404679   -0.871839    0.204378
 C    2.198854    0.555900   -0.326157
 O    1.227411    0.800795   -1.041844
 C    3.174805   -1.723773   -0.801839
 C    3.330137   -3.187538   -0.365496
 C    4.200172   -3.312810    0.881985
 C    3.935086   -3.990876   -1.514600
 N    3.079103    1.471026    0.073131
 C    2.939684    2.896964   -0.170356
 C    1.652070    3.440731    0.450853
 O    0.709580    2.778885    0.811695
 C    2.953869    3.231664   -1.666778
 O    1.695445    4.755504    0.526812
 H   -0.850420    1.533938    0.839678
 H   -0.312889    0.695858   -0.462515
 H   -2.013402    0.875840   -0.223059
 H   -1.703838   -0.360289    1.958495
 H   -1.401036   -1.766207   -0.755746
 H   -1.918859   -2.533891    0.752273
 H   -4.108375   -1.908419    1.758041
 H   -2.845490   -0.223642   -1.966145
 H   -6.363688   -1.019460    1.391738
 H   -5.100445    0.702631   -2.301227
 H   -7.720268    0.190806   -0.033398
 H    0.596451   -1.660337   -0.452680
 H    2.902180   -0.851115    1.175767
 H    4.163593   -1.284572   -0.946927
 H    2.651476   -1.685031   -1.760987
 H    2.337813   -3.591540   -0.139058
 H    4.353815   -4.361449    1.120680
 H    5.174398   -2.858079    0.716718
 H    3.733209   -2.843001    1.743835
 H    4.928273   -3.620019   -1.756123
 H    3.316850   -3.924071   -2.406833
 H    4.020811   -5.037855   -1.238284
 H    3.825522    1.179329    0.684986
 H    3.774813    3.406124    0.317136
 H    2.874744    4.306029   -1.801313
 H    3.886729    2.889249   -2.105959
 H    2.125939    2.742394   -2.171940
 H    0.886249    5.138906    0.904594
