53 
3ds6_ligand_xtb.xyz
 C    1.944233    1.651885    0.901590
 C    2.622611    0.599172    0.244922
 C    1.912687   -0.223086   -0.650295
 C    0.580457   -0.004089   -0.863371
 C    2.733104    2.451781    1.768184
 C   -2.372152    0.104876   -0.284386
 C   -3.745084    0.181830   -0.473063
 C   -2.108134    2.424468   -0.876278
 O   -4.079621   -2.170721   -0.472730
 C   -3.481280    2.485288   -1.087344
 C   -0.105372    1.044161   -0.211464
 C    0.575580    1.858702    0.662849
 N    4.003356    2.259225    1.961133
 N    4.636591    1.265661    1.361927
 C    4.009990    0.455987    0.548946
 C   -1.549666    1.211282   -0.460354
 C   -4.298671    1.390497   -0.883317
 C   -1.274329    3.642667   -1.135952
 C   -4.541615   -1.063532   -0.271142
 C   -6.710360   -1.938087    0.419019
 C   -8.179631   -1.740125    0.206861
 C   -7.630870   -1.874825    1.599686
 C    4.793430   -0.633543   -0.071695
 C    5.626869   -0.348582   -1.144512
 C    6.348302   -1.357880   -1.756195
 C    6.241041   -2.656356   -1.290508
 C    5.421934   -2.938649   -0.211052
 C    4.689777   -1.939439    0.413439
 C    3.814336   -2.243784    1.591732
 N   -5.810336   -0.863569    0.162500
 H    2.434744   -1.018583   -1.161389
 H    0.029213   -0.629617   -1.550323
 H    2.290836    3.279560    2.306920
 H   -1.950122   -0.841266    0.021472
 H   -3.915625    3.414495   -1.428317
 H    0.067348    2.653137    1.188970
 H   -5.356903    1.475334   -1.085400
 H   -1.703843    4.225670   -1.947947
 H   -1.246358    4.279642   -0.251443
 H   -0.252565    3.376355   -1.394960
 H   -6.254789   -2.881974    0.150553
 H   -8.753301   -2.554925   -0.205341
 H   -8.520755   -0.765524   -0.109143
 H   -7.602788   -0.990924    2.219419
 H   -7.825656   -2.782923    2.147646
 H    5.703813    0.669800   -1.496302
 H    6.992923   -1.129853   -2.591864
 H    6.800249   -3.450263   -1.763358
 H    5.350492   -3.952671    0.156379
 H    4.019675   -1.548065    2.404154
 H    2.761009   -2.145049    1.326427
 H    3.984909   -3.257135    1.946240
 H   -6.125937    0.067629    0.382729
