82 
3duy_ligand_ani.xyz
 S   -4.246283    1.467515   -3.020028
 C   -2.538914    1.922180   -2.603413
 C   -1.543316    0.765466   -2.688157
 C   -0.251328    1.047217   -1.921869
 N    0.739240    0.008640   -2.171296
 C    2.070329    0.297685   -2.127945
 O    2.474863    1.437230   -1.912157
 C    2.998938   -0.882808   -2.378949
 C    4.480331   -0.522794   -2.253238
 C    4.983076   -0.210999   -0.837034
 C    6.392859    0.380491   -0.902251
 C    4.966393   -1.440794    0.070397
 C   -0.507730    1.147048   -0.401502
 O   -1.590579    0.807824    0.088266
 N    0.533925    1.595693    0.326368
 C    0.684618    1.472866    1.790292
 C    0.646199    0.005181    2.296850
 O   -0.660664   -0.538542    2.289117
 C    1.666412   -0.872214    1.555525
 C    1.391270   -2.389749    1.541907
 C    1.117547   -2.975654    2.925150
 C    0.345804   -2.720815    0.471178
 O    0.636603   -2.638146   -0.721177
 N   -0.879288   -3.111654    0.909549
 C   -1.946374   -3.488752    0.004475
 C   -3.034734   -2.425571   -0.168766
 C   -3.830568   -2.066060    1.090812
 C   -4.540635   -3.251246    1.743948
 C   -0.318669    2.340330    2.555895
 C   -0.293793    3.839336    2.230367
 C   -1.358330    4.552206    3.065431
 C    1.078131    4.473240    2.465204
 C   -4.628908    0.467937   -1.560303
 H   -2.259850    2.729373   -3.289832
 H   -2.557530    2.342449   -1.594324
 H   -1.999501   -0.143782   -2.275170
 H   -1.298981    0.553798   -3.733842
 H    0.203193    1.987721   -2.257520
 H    0.473118   -0.958678   -2.001135
 H    2.702237   -1.701699   -1.710521
 H    2.796747   -1.248064   -3.396382
 H    4.665532    0.353491   -2.886279
 H    5.083722   -1.343630   -2.667284
 H    4.320138    0.552271   -0.407839
 H    7.098172   -0.338764   -1.338972
 H    6.757850    0.642139    0.097111
 H    6.414865    1.287245   -1.517370
 H    3.967954   -1.885833    0.160220
 H    5.638064   -2.218587   -0.316334
 H    5.301699   -1.178429    1.080882
 H    1.369431    1.833551   -0.198778
 H    1.698355    1.842131    1.988164
 H    0.939573    0.032179    3.355653
 H   -1.144055   -0.125732    1.548898
 H    1.771282   -0.559477    0.512380
 H    2.645645   -0.693401    2.021943
 H    2.302383   -2.859850    1.148680
 H    0.903246   -4.046596    2.861376
 H    2.001949   -2.849313    3.558714
 H    0.281114   -2.473464    3.417250
 H   -1.132007   -2.856426    1.854030
 H   -1.472249   -3.684490   -0.959128
 H   -2.383308   -4.434104    0.348159
 H   -2.570309   -1.512286   -0.565374
 H   -3.728169   -2.790640   -0.941136
 H   -3.171280   -1.581160    1.824814
 H   -4.574650   -1.306452    0.814315
 H   -3.826759   -3.981115    2.141695
 H   -5.184705   -3.773253    1.026767
 H   -5.168011   -2.921597    2.578374
 H   -1.327391    1.955438    2.373886
 H   -0.126089    2.205482    3.631263
 H   -0.555281    3.963329    1.170907
 H   -1.131462    4.468304    4.136194
 H   -1.407898    5.618339    2.817512
 H   -2.351456    4.119960    2.897429
 H    1.847900    4.054570    1.807786
 H    1.404369    4.328159    3.503779
 H    1.039709    5.552009    2.276120
 H   -4.528412   -0.599438   -1.778633
 H   -3.942639    0.726830   -0.745860
 H   -5.656307    0.659205   -1.240902
