51 
3dy6_ligand_dft.xyz
 N    3.574714   -0.706836   -0.240769
 S    2.854822   -2.093085   -0.825176
 C    3.037025    0.553668   -0.751580
 C    3.893612   -0.675189    1.187525
 C    1.222541   -2.106003   -0.096908
 O    3.587683   -3.214365   -0.263384
 O    2.699902   -1.908381   -2.256294
 C    3.867255    1.733991   -0.296225
 C    5.059643    0.284048    1.389798
 C    0.188133   -1.431891   -0.732737
 C    1.028626   -2.734119    1.131785
 C    4.806021    1.620431    0.731930
 C    3.654469    2.972683   -0.904809
 C   -1.064677   -1.359859   -0.122538
 C   -0.226720   -2.679397    1.725383
 C    5.518732    2.754747    1.128291
 C    4.367196    4.094129   -0.503854
 C   -2.130516   -0.606796   -0.874649
 C   -1.267820   -1.993233    1.106940
 C    5.306723    3.984122    0.519441
 N   -3.227949   -0.266711   -0.123819
 O   -1.985860   -0.324904   -2.052218
 C   -4.402391    0.360681   -0.535500
 C   -5.356463    0.726444    0.447500
 C   -4.677200    0.632639   -1.883437
 C   -6.575133    1.284654    0.038242
 C   -5.090850    0.504193    1.899071
 C   -5.883981    1.208798   -2.248841
 C   -6.849820    1.525969   -1.296684
 O   -4.293510   -0.300539    2.339047
 O   -5.783847    1.255463    2.770441
 H    1.995701    0.698899   -0.412226
 H    3.026769    0.498832   -1.841937
 H    4.170853   -1.681809    1.502657
 H    3.017079   -0.349885    1.772144
 H    5.961712   -0.170906    0.963402
 H    5.239304    0.417927    2.462549
 H    0.331996   -0.977990   -1.707496
 H    1.845677   -3.277319    1.594527
 H    2.922094    3.053438   -1.704928
 H   -0.400498   -3.180236    2.672033
 H    6.249749    2.665522    1.928592
 H    4.193622    5.049922   -0.988789
 H   -2.239200   -1.986103    1.592841
 H    5.869963    4.854768    0.841591
 H   -3.220726   -0.487333    0.866768
 H   -3.934815    0.380804   -2.626764
 H   -7.349931    1.492986    0.772283
 H   -6.076176    1.398968   -3.300330
 H   -7.804111    1.948478   -1.591690
 H   -6.244949    1.968772    2.310113
