33 
3dyo_ligand_xtb.xyz
 C    0.234211   -0.220444   -1.034320
 C   -0.212849   -1.466988   -0.265337
 O    0.255258   -2.648095   -0.862484
 C   -1.745374   -1.503186   -0.249673
 O   -2.218439   -2.557981    0.550594
 C   -2.268317   -0.188209    0.349964
 O   -1.912860   -0.100262    1.704195
 C   -1.677780    1.002856   -0.415826
 O   -0.260936    0.950645   -0.463078
 C   -2.026734    2.337467    0.251804
 O   -1.585021    3.425335   -0.509953
 S    2.051292   -0.108757   -1.087115
 C    2.425368    0.359917    0.663515
 C    3.157688   -0.774200    1.360786
 C    3.230913    1.647532    0.660798
 H   -0.074622   -0.318071   -2.088593
 H    0.138077   -1.391250    0.777041
 H    1.184741   -2.515666   -1.100655
 H   -2.105591   -1.613411   -1.284394
 H   -1.753373   -3.357477    0.274986
 H   -3.364534   -0.165335    0.243627
 H   -2.138068   -0.953365    2.101800
 H   -2.070668    0.984226   -1.445839
 H   -1.581097    2.341344    1.253840
 H   -3.109956    2.431588    0.339201
 H   -0.643163    3.298507   -0.677755
 H    1.449177    0.535576    1.117735
 H    4.106705   -0.968863    0.865945
 H    3.353646   -0.502990    2.396539
 H    2.570607   -1.689926    1.349790
 H    4.185212    1.496817    0.160740
 H    3.417578    1.969402    1.683534
 H    2.687889    2.433410    0.141841
