85 
3e37_ligand_ani.xyz
 O   -5.511388    2.393186   -1.134696
 C   -4.959745    2.086885   -0.094582
 O   -5.506350    1.354145    0.894294
 C   -6.902112    0.934043    0.809176
 C   -7.819355    2.148977    0.712155
 C   -7.094500   -0.016937   -0.367276
 C   -7.134407    0.200031    2.124517
 N   -3.677117    2.468723    0.218586
 C   -2.881219    3.029778   -0.863913
 C   -2.109684    1.928077   -1.590689
 C   -2.890748    1.739357    1.206069
 C   -2.154982    0.579017    0.542733
 C   -1.277968    1.085224   -0.612608
 C   -0.615637   -0.072104   -1.370980
 N    0.249714   -0.899377   -0.519900
 S    0.255132   -2.549015   -0.892091
 O    1.225413   -3.186811   -0.013976
 O    0.370470   -2.726438   -2.334036
 C   -1.394443   -3.032270   -0.424228
 C   -2.278619   -3.375487   -1.443458
 C   -3.619520   -3.596250   -1.154720
 C   -4.066349   -3.476500    0.156017
 C   -3.161186   -3.175183    1.170427
 C   -1.801338   -2.974127    0.916989
 C   -0.852941   -2.698875    2.052415
 C    1.572456   -0.342278   -0.204530
 C    2.541528   -0.250335   -1.397570
 N    3.858874    0.227024   -1.039876
 C    4.057193    1.547203   -0.652064
 C    5.220176    1.932240    0.042306
 C    5.425555    3.249326    0.418243
 C    3.114751    2.548701   -0.949065
 C    3.324775    3.866209   -0.575624
 C    4.481366    4.233420    0.114350
 C    4.697628    5.601835    0.507587
 N    4.871604    6.702628    0.825132
 C    4.931461   -0.736220   -0.929113
 C    5.161008   -1.288413    0.447515
 C    4.676192   -0.930894    1.680053
 N    5.193795   -1.726387    2.669573
 C    5.991299   -2.552773    2.041124
 N    6.019551   -2.337938    0.693235
 C    6.830625   -3.053314   -0.272510
 H   -8.862188    1.825316    0.797868
 H   -7.603830    2.849559    1.525026
 H   -7.683972    2.662302   -0.242058
 H   -6.391287   -0.853795   -0.295934
 H   -8.113580   -0.417992   -0.347012
 H   -6.934668    0.501622   -1.314716
 H   -8.163196   -0.170839    2.175334
 H   -6.457125   -0.654995    2.214268
 H   -6.967687    0.870448    2.973579
 H   -2.183930    3.760151   -0.432880
 H   -3.555832    3.556077   -1.540320
 H   -1.459561    2.365932   -2.359447
 H   -2.826662    1.277156   -2.110170
 H   -3.542850    1.405334    2.011961
 H   -2.167487    2.447141    1.630983
 H   -2.891593   -0.142104    0.164006
 H   -1.544526    0.045484    1.281640
 H   -0.494910    1.736745   -0.188382
 H   -0.038764    0.316420   -2.221689
 H   -1.399135   -0.706601   -1.800425
 H   -1.905979   -3.445620   -2.462006
 H   -4.310729   -3.845065   -1.954488
 H   -5.119173   -3.614134    0.392845
 H   -3.507169   -3.089971    2.197609
 H   -0.119798   -3.503035    2.162251
 H   -0.284107   -1.779457    1.879901
 H   -1.408146   -2.593654    2.988604
 H    2.014952   -0.964816    0.577064
 H    1.403637    0.650866    0.225807
 H    2.121936    0.397211   -2.179682
 H    2.642839   -1.242548   -1.852345
 H    5.956985    1.184743    0.321991
 H    6.330325    3.523705    0.952730
 H    2.201707    2.304333   -1.479872
 H    2.583519    4.621706   -0.818801
 H    5.857541   -0.274753   -1.307366
 H    4.703616   -1.560230   -1.622934
 H    4.005666   -0.115899    1.914811
 H    6.582518   -3.335341    2.502447
 H    6.210365   -3.513765   -1.049080
 H    7.567323   -2.393482   -0.744417
 H    7.365190   -3.845454    0.254344
