48 
3e3b_ligand_dft.xyz
 N    1.327159   -4.312907    0.070455
 C    2.294265   -3.421736   -0.083950
 C    1.998632   -2.045557   -0.089206
 N    0.760553   -1.604910    0.079126
 C   -0.195799   -2.511085    0.242642
 C    0.074862   -3.875303    0.225780
 N    2.987804   -1.086774   -0.257815
 N   -1.491733   -1.992270    0.418894
 C    2.887956    0.293523   -0.190194
 C    4.184125    0.774935   -0.431738
 C    4.978603   -0.395868   -0.628317
 N    4.274162   -1.491172   -0.523965
 C   -1.869612   -0.719664    0.052757
 C   -3.179871   -0.531339    0.412058
 C   -3.619710   -1.750558    1.023583
 C   -2.566681   -2.621803    1.013480
 C    4.410711    2.160586   -0.421151
 C    3.356601    3.005824   -0.170194
 C    2.043082    2.509938    0.079548
 C    1.803792    1.134883    0.070238
 N    1.036218    3.410910    0.336210
 C   -0.373740    3.060767    0.421173
 C   -1.213384    4.291611    0.089454
 C   -0.735613    2.499139    1.799902
 C   -3.988543    0.706878    0.172058
 C   -5.012172    0.623624   -0.966368
 O   -5.888019    1.435593   -1.104160
 O   -4.857246   -0.390355   -1.833211
 H    3.310622   -3.773514   -0.212055
 H   -0.705230   -4.623715    0.320098
 H    6.037344   -0.462123   -0.841919
 H   -1.171039   -0.063450   -0.442913
 H   -4.600976   -1.946754    1.433543
 H   -2.478768   -3.621105    1.411343
 H    5.402222    2.562429   -0.605951
 H    3.519004    4.080499   -0.155639
 H    0.830683    0.720285    0.270740
 H    1.245662    4.377442    0.141000
 H   -0.585463    2.294188   -0.341172
 H   -1.015898    5.097218    0.807008
 H   -0.997617    4.659016   -0.919181
 H   -2.279783    4.053794    0.144247
 H   -0.094895    1.656043    2.071893
 H   -0.614407    3.274965    2.563317
 H   -1.774852    2.152500    1.815925
 H   -3.328082    1.546898   -0.076606
 H   -4.543474    1.006954    1.065673
 H   -4.117103   -0.946385   -1.540054
