48 
3e3b_ligand_xtb.xyz
 N    1.854680   -4.211570   -0.209232
 C    2.668009   -3.181865   -0.150289
 C    2.169954   -1.870375   -0.029172
 N    0.861653   -1.646125    0.052865
 C    0.049363   -2.698455   -0.002419
 C    0.547996   -3.991860   -0.144089
 N    3.016299   -0.797600    0.005772
 N   -1.307368   -2.413886    0.102844
 C    2.720880    0.550609   -0.020151
 C    3.965264    1.218374    0.026523
 C    4.927853    0.176171    0.075458
 N    4.361084   -0.996531    0.057121
 C   -1.809832   -1.251600    0.617770
 C   -3.175372   -1.302490    0.568520
 C   -3.515524   -2.547729   -0.028404
 C   -2.348935   -3.206361   -0.288601
 C    3.993582    2.614260    0.004967
 C    2.803324    3.285672   -0.070279
 C    1.554180    2.617491   -0.131178
 C    1.515404    1.222438   -0.097736
 N    0.433033    3.378509   -0.272801
 C   -0.933760    2.925258   -0.120342
 C   -1.861726    3.923671   -0.802818
 C   -1.307739    2.765178    1.355991
 C   -4.123476   -0.227415    0.986606
 C   -4.360719    0.771012   -0.141725
 O   -4.452464    1.953573    0.027926
 O   -4.472454    0.229845   -1.359091
 H    3.728795   -3.368976   -0.198388
 H   -0.085506   -4.864200   -0.186432
 H    5.996227    0.257935    0.120812
 H   -1.157690   -0.497771    1.006856
 H   -4.505833   -2.920399   -0.209416
 H   -2.192542   -4.163115   -0.743127
 H    4.932236    3.145561    0.044922
 H    2.799571    4.366709   -0.092063
 H    0.592489    0.675203   -0.147019
 H    0.560283    4.370483   -0.138240
 H   -1.030043    1.959347   -0.626779
 H   -1.797326    4.895932   -0.317783
 H   -1.594239    4.036108   -1.850619
 H   -2.887614    3.572717   -0.736438
 H   -0.671832    2.024916    1.836987
 H   -1.185831    3.712866    1.876818
 H   -2.346261    2.458907    1.437461
 H   -3.749059    0.318076    1.852885
 H   -5.094530   -0.659373    1.245236
 H   -4.319960   -0.729764   -1.334128
