51 
3e3u_ligand_dft.xyz
 O   20.543763   53.937641   15.538264
 C   20.250585   55.119939   15.684099
 C   18.790897   55.560044   15.697918
 C   18.150000   55.115893   17.023762
 C   18.757165   55.786178   18.257322
 C   18.221462   55.214424   19.569362
 C   18.828121   55.907227   20.788007
 C   18.115286   54.901509   14.482236
 N   16.692663   55.109411   14.436600
 O   16.324655   56.450176   14.404168
 C   15.737276   54.269257   14.881427
 O   14.596175   54.654297   15.109012
 N   21.218064   56.059608   15.856136
 C   22.602426   55.619581   15.949520
 C   23.388206   56.942541   15.919659
 C   22.439644   57.917208   16.623638
 C   21.055399   57.491651   16.123181
 C   22.831444   54.855233   17.222854
 O   23.796775   53.899187   17.185199
 C   23.823141   53.401070   18.458728
 C   22.868072   54.096297   19.198119
 N   22.256782   55.032658   18.363366
 C   24.619316   52.394435   18.976444
 C   24.413694   52.098712   20.320790
 C   23.457449   52.783311   21.087881
 C   22.669939   53.790351   20.542492
 H   18.698731   56.645150   15.597332
 H   17.076325   55.336402   16.987573
 H   18.258711   54.026207   17.105558
 H   19.848835   55.673574   18.254380
 H   18.544694   56.865128   18.222261
 H   17.127070   55.301976   19.596670
 H   18.448901   54.141086   19.607093
 H   19.921973   55.838269   20.764693
 H   18.565620   56.971449   20.807187
 H   18.476761   55.458676   21.722990
 H   18.551193   55.283098   13.552912
 H   18.286516   53.821870   14.513106
 H   15.381125   56.390014   14.669028
 H   16.079542   53.229211   14.982291
 H   22.852855   54.960316   15.115139
 H   24.364352   56.857620   16.402932
 H   23.546538   57.238832   14.877243
 H   22.495671   57.771998   17.706537
 H   22.657560   58.964186   16.400663
 H   20.778629   58.022235   15.203280
 H   20.282632   57.669577   16.873276
 H   25.350878   51.870580   18.372108
 H   25.005958   51.317386   20.786488
 H   23.331388   52.515665   22.132282
 H   21.928143   54.318657   21.131794
