61 
3e5a_ligand_dft.xyz
 N    6.066918   -0.599018    1.301994
 C    6.832245    0.499589    0.614629
 C    6.011399    1.090754   -0.551842
 N    5.167170    0.085157   -1.171568
 C    5.743802   -1.239638   -1.107893
 C    5.805195   -1.756243    0.336487
 C    4.846419   -0.100741    2.020350
 C    3.766548    0.176316   -0.989702
 C    3.108064    1.381342   -1.055252
 C    1.716618    1.366558   -0.723172
 N    1.100758    0.191454   -0.425586
 C    1.846279   -0.882948   -0.437053
 N    3.161428   -0.987348   -0.685100
 N    1.019888    2.491632   -0.680170
 C   -0.311230    2.739419   -0.270200
 C   -1.441475    1.928292   -0.200252
 C   -2.397141    2.836997    0.274115
 N   -1.859190    4.061217    0.448574
 N   -0.558190    4.002976    0.104626
 C   -3.840877    2.598755    0.602801
 S    1.140219   -2.456090    0.025477
 C   -0.572417   -2.044853    0.270495
 C   -1.525447   -2.481452   -0.646815
 C   -2.862301   -2.123627   -0.515071
 C   -3.245951   -1.287022    0.536829
 C   -2.295064   -0.880159    1.479847
 C   -0.971665   -1.259441    1.351408
 N   -4.543064   -0.769444    0.679019
 C   -5.664715   -1.058589   -0.056742
 O   -5.734492   -1.966459   -0.871337
 C   -6.821513   -0.154588    0.227019
 C   -7.709923    0.189943   -0.949230
 C   -8.206181   -0.748945    0.097082
 H    6.680077   -0.966812    2.029973
 H    7.763120    0.043891    0.268269
 H    7.075598    1.259063    1.360955
 H    6.722094    1.523687   -1.266704
 H    5.381739    1.902661   -0.184269
 H    6.743082   -1.205947   -1.556231
 H    5.131279   -1.932586   -1.683751
 H    4.842023   -2.185996    0.608455
 H    6.611586   -2.478938    0.485425
 H    4.165375    0.377701    1.319148
 H    4.347820   -0.952273    2.483069
 H    5.171729    0.610856    2.781275
 H    3.592056    2.298279   -1.372068
 H    1.519499    3.362405   -0.814687
 H   -1.543019    0.887633   -0.463823
 H   -4.344932    1.990044   -0.159007
 H   -3.969890    2.095420    1.577450
 H   -4.359601    3.559750    0.675248
 H   -1.219215   -3.090138   -1.491896
 H   -3.599717   -2.453679   -1.233034
 H   -2.585643   -0.215224    2.288282
 H   -0.237435   -0.897676    2.062415
 H   -4.601070    0.046606    1.271622
 H   -6.675926    0.619002    0.975963
 H   -7.417239   -0.234701   -1.903715
 H   -8.109356    1.198074   -0.984295
 H   -8.960369   -0.403583    0.796838
 H   -8.245259   -1.803107   -0.157400
