19 
3e5u_ligand_xtb.xyz
 O    3.869219   -1.186312    0.267246
 C    3.039339   -0.327918    0.231050
 O    2.790976    0.455382    1.287641
 C    2.206957   -0.016936   -1.016344
 C    0.784653    0.313177   -0.671367
 C    0.376946    1.628604   -0.468940
 C   -0.921848    1.923560   -0.099716
 C   -1.852410    0.906445    0.086151
 O   -3.110458    1.214761    0.447229
Cl   -2.596479   -1.691824    0.115604
 C   -1.435076   -0.412914   -0.114914
 C   -0.139188   -0.709593   -0.484988
 H    2.063904    1.075762    1.119730
 H    2.268808   -0.881263   -1.677204
 H    2.687820    0.829598   -1.513801
 H    1.074241    2.440146   -0.624285
 H   -1.242181    2.941801    0.048760
 H   -3.623236    0.394600    0.530006
 H    0.156656   -1.736827   -0.630995
