19 
3e5u_ligand_ani.xyz
 O    3.973407   -1.065484   -0.007877
 C    3.053624   -0.320094    0.191878
 O    2.720398    0.044675    1.445795
 C    2.229820    0.310332   -0.933192
 C    0.774567    0.507434   -0.597132
 C    0.254836    1.777859   -0.347318
 C   -1.076574    1.954343    0.002048
 C   -1.928331    0.853364    0.110116
 O   -3.217520    1.073506    0.449966
Cl   -2.462061   -1.800278    0.002326
 C   -1.402947   -0.418562   -0.138217
 C   -0.070422   -0.595944   -0.485104
 H    1.934695    0.613048    1.428380
 H    2.361321   -0.333551   -1.806154
 H    2.696033    1.274962   -1.177835
 H    0.904221    2.647201   -0.430659
 H   -1.482352    2.941071    0.200055
 H   -3.687447    0.226789    0.481041
 H    0.310855   -1.598776   -0.655914
