19 
3e5u_ligand_dft.xyz
 O    4.253990   -0.721103    0.075247
 C    3.142965   -0.287653    0.219563
 O    2.678281    0.040669    1.436989
 C    2.202248   -0.057794   -0.971738
 C    0.773417    0.283356   -0.630787
 C    0.374025    1.609750   -0.426375
 C   -0.929747    1.925488   -0.074908
 C   -1.883949    0.919067    0.082667
 O   -3.136485    1.278423    0.421209
Cl   -2.670609   -1.680582    0.073423
 C   -1.484277   -0.407356   -0.119867
 C   -0.178882   -0.723725   -0.468223
 H    1.762260    0.350395    1.366270
 H    2.261112   -0.961806   -1.584405
 H    2.658211    0.742098   -1.565851
 H    1.097699    2.411191   -0.550597
 H   -1.239577    2.953428    0.078578
 H   -3.692082    0.488851    0.493558
 H    0.091651   -1.764982   -0.615277
