40 
3e7o_ligand_ani.xyz
 C   -3.298412    0.010662   -0.015814
 C   -2.377172    1.042925    0.203257
 C   -2.808999    2.386575    0.139616
 C    0.033077    0.175772    0.693855
 C    2.032175   -1.744399    1.072894
 C   -0.297619   -1.094365    1.168897
 C   -5.558129   -0.745046   -0.451463
 C   -6.340799   -2.646293   -0.664540
 C    4.761882   -0.891241    0.055170
 C    5.977476   -0.147913   -0.352386
 C    7.673829    1.199856   -0.895070
 O    4.743654   -2.106649    0.118802
 O    6.999025   -0.920089   -0.800329
 C    8.010643   -0.095313   -1.126606
 C    6.338751    1.170201   -0.386103
 N    3.693230   -0.079602    0.336479
 C    2.363981   -0.465507    0.618189
 C    1.366590    0.491076    0.451984
 C    0.701031   -2.039384    1.353304
 C   -0.981527    1.180231    0.466980
 N   -0.671299    2.513817    0.493189
 N   -1.736342    3.246740    0.317964
 C   -4.153115    2.718907   -0.088569
 C   -5.050561    1.704214   -0.273711
 C   -4.615766    0.352660   -0.240303
 N   -5.177130   -2.032714   -0.425090
 N   -7.368367   -1.808421   -0.827866
 N   -6.858766   -0.579866   -0.689539
 H   -3.054622   -1.044552   -0.047810
 H    2.811307   -2.485018    1.196280
 H   -1.334691   -1.320743    1.401387
 H   -6.461255   -3.720348   -0.724905
 H    8.296562    2.067312   -1.065209
 H    8.902007   -0.571537   -1.509950
 H    5.761278    2.029874   -0.072963
 H    3.812311    0.910194    0.177048
 H    1.588418    1.508400    0.139061
 H    0.444770   -3.029989    1.718102
 H   -4.439408    3.762321   -0.117642
 H   -6.101408    1.906612   -0.454623
