28 
3e85_ligand_ani.xyz
 N    1.148696    0.763232   -0.175695
 C    0.001796   -0.008759   -0.108358
 N   -1.149598    0.756132   -0.172383
 O    0.006959   -1.222317   -0.008328
 C    2.484355    0.322860   -0.068366
 C    3.469461    1.300761    0.110504
 C    4.807152    0.943381    0.217677
 C    5.182459   -0.394268    0.140362
 C    4.201426   -1.363284   -0.043850
 C    2.857087   -1.022278   -0.149090
 C   -2.484772    0.315856   -0.062816
 C   -3.480528    1.299109   -0.032284
 C   -4.818950    0.945674    0.077440
 C   -5.184518   -0.394687    0.154591
 C   -4.192996   -1.369745    0.119175
 C   -2.847831   -1.032518    0.010743
 H    1.044631    1.766250   -0.207384
 H   -1.049998    1.755988   -0.262654
 H    3.185484    2.349028    0.172606
 H    5.558357    1.716070    0.360961
 H    6.227253   -0.680274    0.222548
 H    4.480267   -2.412828   -0.104810
 H    2.099533   -1.781342   -0.287608
 H   -3.204689    2.349688   -0.091512
 H   -5.578138    1.723415    0.102231
 H   -6.229690   -0.677955    0.241224
 H   -4.464172   -2.421404    0.178457
 H   -2.083043   -1.796254   -0.015249
