60 
3e8r_ligand_ani.xyz
 C    0.356763   -1.019722   -0.049091
 C   -8.179250    3.043098   -0.070584
 C   -3.983269   -4.195804    0.021357
 C    5.048122    1.052570   -0.456684
 C    1.022148   -0.730567   -1.238427
 N    8.376575    0.699466   -0.679044
 O    8.283750    1.399588    1.469536
 O    5.624494    1.364781   -1.488935
 C    7.864553    0.655059    0.592489
 C   -7.447996    1.865632   -0.176795
 C   -7.551362    4.224188    0.315542
 N   -5.959405   -0.529378    0.165406
 C    4.660673   -1.424844   -0.268231
 O   -0.994139   -0.944322    0.123341
 C    3.152811   -1.294299   -0.204760
 C    2.465279   -1.556305    0.984048
 C    1.088721   -1.427510    1.070291
 C    2.406811   -0.873309   -1.304865
 C   -1.786549   -0.548365   -0.988664
 C   -3.229232   -0.558668   -0.555568
 C   -5.307479    0.589114   -0.058596
 C   -3.938340    0.606486   -0.445379
 C   -5.269566   -1.703305    0.099153
 C   -3.893162   -1.783150   -0.238016
 C   -3.267817   -3.059550   -0.257439
 C   -5.358844   -4.112641    0.338702
 C   -5.986991   -2.897897    0.377204
 C   -6.076923    1.859520    0.082130
 C    6.822344   -0.415532    0.764785
 C    5.393139   -0.211453    0.302477
 C    5.735748   -0.159558    1.764165
 O    9.286028    1.731802   -0.892586
 N    4.031389    1.794538    0.068019
 C   -5.454153    3.046927    0.475650
 C   -6.187476    4.221824    0.595295
 H   -9.244925    3.035905   -0.284656
 H   -3.495357   -5.166676   -0.000556
 H    0.480079   -0.397788   -2.117707
 H    7.654766    0.713779   -1.402107
 H   -7.929743    0.934365   -0.460921
 H   -8.124729    5.143144    0.402411
 H    4.977832   -2.321640    0.279093
 H    4.974700   -1.559358   -1.311008
 H    3.017579   -1.888094    1.863756
 H    0.557932   -1.643837    1.992130
 H    2.914349   -0.644403   -2.241552
 H   -1.492860    0.460670   -1.305887
 H   -1.625899   -1.237092   -1.831392
 H   -3.468260    1.558107   -0.681155
 H   -2.208721   -3.127829   -0.484399
 H   -5.915615   -5.021204    0.555492
 H   -7.040700   -2.796465    0.620749
 H    7.205290   -1.429131    0.655541
 H    5.780550    0.818943    2.233226
 H    5.395324   -0.977153    2.396433
 H    9.298864    2.186019   -0.024691
 H    3.670400    2.530742   -0.521254
 H    3.368073    1.320262    0.664540
 H   -4.392094    3.051534    0.709650
 H   -5.690038    5.138395    0.901594
