30 
3ed0_ligand_ani.xyz
 C    2.538605    1.226318    0.003525
 O    2.628835    2.554843    0.006622
 C    3.718521    0.496543    0.003601
 C    3.680579   -0.898034   -0.000504
 O    4.881798   -1.535578   -0.001497
 C    2.470269   -1.578640   -0.003074
 C    1.282571   -0.858024   -0.001559
 C   -0.004217   -1.626480   -0.001738
 O   -0.014320   -2.843956   -0.003101
 C   -1.272810   -0.828986   -0.000068
 C   -2.481461   -1.512952    0.002960
 C   -3.686689   -0.821371    0.002439
 C   -4.998500   -1.567926    0.006043
 C   -3.669924    0.573932   -0.001608
 C   -2.473811    1.284858   -0.003335
 O   -2.533143    2.616978   -0.006616
 C   -1.240191    0.584135   -0.001613
 C    0.031923    1.322192   -0.000812
 O    0.045880    2.576697   -0.001023
 C    1.283357    0.554550    0.000381
 H    1.712008    2.902931    0.004443
 H    4.670146    1.014530    0.006621
 H    4.729307   -2.488948   -0.005694
 H    2.419482   -2.663350   -0.005952
 H   -2.454448   -2.598048    0.005608
 H   -5.084521   -2.215237   -0.873794
 H   -5.084367   -2.206940    0.891958
 H   -5.845169   -0.877505    0.002913
 H   -4.597111    1.139362   -0.003392
 H   -1.607049    2.940647   -0.005620
