61 
3efj_ligand_ani.xyz
 N   -5.073218   -1.204202    0.167409
 N    5.197754    2.908110   -0.040525
 C   -9.428608    1.681788   -1.559286
 C   -9.871777    0.482221   -1.011960
 C   -9.097834   -0.177464   -0.060001
 C   -2.846860   -0.417011    0.661617
 C   -3.699535   -1.277526   -0.143113
 C   -3.464256    0.413254    1.558783
 C   -0.781985   -0.659894   -0.744274
 C   -0.551556   -0.235382    1.616019
 C    4.910307    0.492373   -0.003339
 C    7.703095    0.259522   -0.122008
 C    7.126714    1.500627   -0.113889
 C    5.714319    1.649185   -0.050922
 C    2.980009    1.940539    0.055530
 C    6.786950   -3.274746    0.022557
 C   -7.037512   -0.348393    1.415601
 C    9.871060    1.162577   -0.254352
 O    9.034365    0.028800   -0.183447
 C    6.877450   -0.922900   -0.060372
 O    7.554604   -2.095380   -0.063328
 C    5.513526   -0.796503   -0.006324
 C    3.891651    3.021076    0.011746
 C    3.503702    0.672382    0.048228
 O    2.770670   -0.483090    0.072662
 C    1.410434   -0.425724    0.244761
 C    0.590651   -0.639669   -0.858696
 F    1.167218   -0.842081   -2.051047
 C    0.830800   -0.231277    1.489533
 C   -1.381102   -0.445482    0.505245
 O   -3.340539   -2.043410   -1.024481
 C   -5.917478   -2.120199   -0.613215
 N   -4.796480    0.473398    1.790835
 C   -5.555173   -0.356344    1.124637
 C   -7.873689    0.346760    0.353394
 C   -7.444829    1.559479   -0.190333
 C   -8.214199    2.219609   -1.142188
 H  -10.028998    2.198547   -2.303571
 H  -10.819208    0.053167   -1.329546
 H   -9.460133   -1.111508    0.367442
 H   -2.866999    1.114567    2.135830
 H   -1.384634   -0.852230   -1.623279
 H   -0.984900   -0.103086    2.602448
 H    7.705573    2.415499   -0.153754
 H    1.910049    2.125609    0.088718
 H    6.199891   -3.300260    0.949516
 H    6.111800   -3.373617   -0.837025
 H    7.499606   -4.100415    0.021339
 H   -7.133923    0.188739    2.361952
 H   -7.398457   -1.366682    1.590724
 H    9.662855    1.757092   -1.153380
 H    9.761026    1.796520    0.635018
 H   10.891569    0.780774   -0.301995
 H    4.854091   -1.657520    0.036045
 H    3.499908    4.037861    0.018533
 H    1.471148   -0.061569    2.349081
 H   -5.673387   -1.991079   -1.666264
 H   -5.697177   -3.152809   -0.334793
 H   -6.970570   -1.903200   -0.455609
 H   -6.502763    1.989664    0.146339
 H   -7.866165    3.160885   -1.559908
