61 
3efj_ligand_xtb.xyz
 N   -5.033434   -0.955693    0.813228
 N    5.421097    2.863838   -0.234578
 C   -9.284214    0.558909   -2.019083
 C   -9.676189   -0.273409   -0.985194
 C   -8.926456   -0.338065    0.176982
 C   -2.843448    0.027161    0.686208
 C   -3.673884   -1.144996    0.480957
 C   -3.434331    1.165760    1.153236
 C   -0.927590   -0.802351   -0.668535
 C   -0.495174    0.663214    1.178784
 C    4.901115    0.495560   -0.208033
 C    7.644695    0.014048    0.081342
 C    7.188846    1.302133   -0.002474
 C    5.813187    1.579141   -0.151472
 C    3.151880    2.129934   -0.455538
 C    6.440456   -3.433101    0.030773
 C   -6.957666    0.382517    1.584477
 C    9.916063    0.659053    0.282030
 O    8.941209   -0.353467    0.222481
 C    6.717613   -1.078979    0.019672
 O    7.282832   -2.309002    0.108735
 C    5.379651   -0.827661   -0.119258
 C    4.148190    3.110886   -0.386129
 C    3.527612    0.807676   -0.355615
 O    2.670548   -0.249842   -0.457533
 C    1.344045   -0.110541   -0.167448
 C    0.423742   -0.827316   -0.934806
 F    0.874855   -1.559006   -1.972815
 C    0.857458    0.626176    0.908311
 C   -1.409442   -0.040034    0.394000
 O   -3.301583   -2.229086    0.075911
 C   -5.908439   -2.093979    0.631222
 N   -4.742960    1.267375    1.448186
 C   -5.498636    0.226985    1.278086
 C   -7.780855    0.433523    0.318594
 C   -7.397700    1.273264   -0.720388
 C   -8.143839    1.333298   -1.883382
 H   -9.866577    0.605965   -2.926894
 H  -10.566380   -0.876908   -1.082680
 H   -9.237890   -0.991153    0.980307
 H   -2.871108    2.077853    1.295557
 H   -1.594518   -1.377728   -1.288393
 H   -0.843476    1.226352    2.030825
 H    7.852494    2.149341    0.035261
 H    2.119833    2.410525   -0.599432
 H    5.722408   -3.455232    0.857080
 H    5.898533   -3.463946   -0.919821
 H    7.097647   -4.298242    0.100608
 H   -7.065900    1.327609    2.121245
 H   -7.306939   -0.427268    2.227094
 H    9.930013    1.256008   -0.635353
 H    9.756454    1.319343    1.140372
 H   10.868472    0.143515    0.393588
 H    4.657108   -1.625241   -0.171920
 H    3.876220    4.155914   -0.462122
 H    1.553356    1.158353    1.539654
 H   -5.299031   -2.902548    0.226986
 H   -6.333493   -2.407946    1.584970
 H   -6.710169   -1.853080   -0.065968
 H   -6.512319    1.882060   -0.608719
 H   -7.835536    1.987202   -2.685444
