32 
3efr_ligand_dft.xyz
 C   32.591511   18.096263   14.074638
 O   33.215490   17.575182   13.180410
 O   32.763044   19.388862   14.413254
 C   31.567895   17.422146   14.957873
 C   31.191666   16.021971   14.481147
 C   30.372753   16.025256   13.189953
 C   30.019304   14.611129   12.728784
 C   29.247059   14.569398   11.414100
 S   27.569260   15.291342   11.547603
 C   27.155598   14.557381    9.938428
 C   27.774337   13.147868    9.917752
 N   26.944266   12.132829   10.527328
 C   27.449538   11.657353   11.723037
 O   26.885417   10.936329   12.518425
 N   28.744035   12.125460   11.798047
 C   29.051791   13.149220   10.828823
 H   33.445646   19.738029   13.818024
 H   31.994030   17.390666   15.968427
 H   30.688939   18.074030   15.024228
 H   32.107860   15.438969   14.332274
 H   30.619462   15.525602   15.274411
 H   29.452056   16.603838   13.343464
 H   30.941065   16.531773   12.401272
 H   30.949194   14.038962   12.595680
 H   29.436786   14.105290   13.509187
 H   29.797126   15.155776   10.665765
 H   26.070565   14.527720    9.809973
 H   27.577523   15.166826    9.131794
 H   28.021466   12.873702    8.885775
 H   25.945543   12.111335   10.397682
 H   29.256061   12.003571   12.655379
 H   29.949714   12.880923   10.259062
