32 
3efr_ligand_xtb.xyz
 C    2.630610    0.737729   -0.197388
 O    2.522644    1.028473    0.973372
 O    2.156470    1.479046   -1.179934
 C    3.258417   -0.544571   -0.696461
 C    2.938379   -1.750424    0.203708
 C    1.521300   -1.765323    0.791777
 C    0.428417   -1.521976   -0.248057
 C   -0.969355   -1.414489    0.356014
 S   -2.179837   -1.471861   -1.023674
 C   -3.384739   -0.476229   -0.107868
 C   -2.571271    0.537621    0.680778
 N   -2.073989    1.617785   -0.135276
 C   -0.752268    1.868725    0.076508
 O   -0.086725    2.754393   -0.428304
 N   -0.306832    0.936190    0.955328
 C   -1.254216   -0.118461    1.173899
 H    1.551440    2.205168   -0.864103
 H    4.340610   -0.405257   -0.734755
 H    2.907624   -0.709169   -1.715304
 H    3.638563   -1.767721    1.040243
 H    3.098064   -2.655480   -0.385125
 H    1.463173   -1.014375    1.579421
 H    1.356744   -2.737870    1.262270
 H    0.624132   -0.610621   -0.812768
 H    0.422183   -2.349370   -0.961965
 H   -1.172647   -2.284523    0.987327
 H   -3.954705   -1.124247    0.559332
 H   -4.055115   -0.002664   -0.821141
 H   -3.172933    0.923372    1.518560
 H   -2.673528    2.257280   -0.623621
 H    0.658451    0.912402    1.254654
 H   -1.299679   -0.375886    2.236856
