31 
3ej1_ligand_dft.xyz
 N    3.468701    1.399328    0.102064
 C    1.762947   -0.099569   -0.027970
 C    1.311593   -1.436588   -0.112141
 C    2.255472   -2.421200   -0.137431
 C    3.630601   -2.061202   -0.079591
 C   -0.230210    1.499430    0.004609
 C   -0.699285    2.813736    0.085170
 C   -2.865516   -1.635569   -0.451045
 C    2.300849    2.036213    0.103943
 C    1.191349    1.176105    0.025486
 N    4.077856   -0.835238   -0.001530
 N    3.130673    0.106143    0.022190
 N   -1.076986    0.464841   -0.099559
 C   -2.382584    0.751568   -0.113840
 N   -2.939127    1.975337   -0.055040
 C   -2.076181    2.981447    0.044115
 N   -3.260003   -0.291311   -0.186795
 C   -2.349602   -2.473387    0.687737
 C   -3.724673   -2.721642    0.130992
 H    0.243885   -1.613907   -0.151330
 H    1.980847   -3.467918   -0.200394
 H    4.405621   -2.820449   -0.098303
 H   -0.031826    3.662286    0.169044
 H   -2.424508   -1.814956   -1.431325
 H    2.303269    3.116437    0.162036
 H   -2.511866    3.977795    0.092550
 H   -4.215387   -0.020838   -0.366760
 H   -2.272207   -1.986158    1.653533
 H   -1.569028   -3.197348    0.473828
 H   -3.892494   -3.610906   -0.467774
 H   -4.572651   -2.413793    0.735381
