20 
3eka_ligand_dft.xyz
 C   33.758593   31.806705   56.794520
 C   34.076948   32.690595   57.928400
 C   35.334416   33.125860   57.784862
 C   35.894362   32.586760   56.498124
 C   37.196305   31.807238   56.684498
 C   37.053280   30.578487   57.571159
 O   32.760006   31.193244   56.550050
 O   33.162528   32.907456   58.897158
 O   36.030194   33.926413   58.608484
 O   34.873054   31.749757   55.979592
 O   38.104148   32.727340   57.282532
 O   38.384357   30.144237   57.807507
 H   36.080534   33.401828   55.787704
 H   37.576700   31.491272   55.704185
 H   36.552894   30.849856   58.511334
 H   36.455206   29.815682   57.059326
 H   33.557186   33.493908   59.555814
 H   36.972464   33.805486   58.376997
 H   38.815081   32.181048   57.654097
 H   38.372744   29.450829   58.475659
