69 
3ekn_ligand_ani.xyz
 C   -2.074088   -5.190032   -0.504248
 O   -0.966402   -4.382863   -0.162843
 C   -1.206794   -3.065064    0.093314
 C   -2.464393   -2.489594    0.070861
 C   -2.631032   -1.129382    0.376548
 C   -1.496133   -0.377968    0.698978
 C   -0.232424   -0.958650    0.711733
 C   -0.057870   -2.297549    0.381153
 N    1.176708   -2.963618    0.351597
 C    2.426706   -2.430310    0.189109
 N    2.508175   -1.109473   -0.053486
 C    3.708921   -0.580090   -0.218231
 N    3.876768    0.739943   -0.487358
 C    2.930325    1.757476   -0.505519
 C    1.605337    1.490719   -0.858063
 C    0.658592    2.502103   -0.837585
 C    1.023038    3.798507   -0.499751
 C    2.348913    4.045017   -0.199261
 F    2.655162    5.335630    0.099146
 C    3.355993    3.075830   -0.195442
 C    4.808375    3.370966    0.094425
 O    5.708652    2.571573   -0.186126
 N    5.111658    4.534726    0.712945
 C    4.875210   -1.371975   -0.105848
 C    6.245726   -1.203957   -0.162250
 C    6.746834   -2.555886    0.049768
 N    5.823387   -3.462873    0.221355
 C    4.637750   -2.779905    0.139703
 N    3.435361   -3.306450    0.272683
 N   -3.932544   -0.597091    0.396105
 C   -4.104665    0.741356    0.938364
 C   -5.572165    1.032782    1.212618
 N   -6.394067    0.885319   -0.034179
 C   -6.196753   -0.511543   -0.549398
 C   -4.724712   -0.773645   -0.817345
 C   -7.833573    1.292925    0.127877
 C   -7.919887    2.741846    0.600458
 C   -8.590638    1.096851   -1.182711
 H   -2.789981   -5.255849    0.324918
 H   -2.586537   -4.805685   -1.395496
 H   -1.673401   -6.182090   -0.715413
 H   -3.349184   -3.080556   -0.144557
 H   -1.588657    0.677927    0.928248
 H    0.623663   -0.360299    0.995729
 H    1.145396   -3.974206    0.373205
 H    4.833969    1.097187   -0.464485
 H    1.334311    0.481744   -1.140678
 H   -0.375359    2.276277   -1.084783
 H    0.309549    4.615510   -0.471173
 H    6.093931    4.732617    0.824723
 H    4.437039    5.273233    0.809952
 H    6.810758   -0.287613   -0.310228
 H    7.798490   -2.842323    0.073544
 H   -3.719482    1.514873    0.244200
 H   -3.552831    0.824765    1.878842
 H   -5.674338    2.047456    1.597877
 H   -5.961542    0.336170    1.963299
 H   -5.996856    1.534026   -0.744990
 H   -6.766717   -0.641433   -1.469954
 H   -6.581522   -1.211187    0.200755
 H   -4.596294   -1.790284   -1.192814
 H   -4.386139   -0.085256   -1.615387
 H   -8.270458    0.638956    0.893750
 H   -7.606626    2.855783    1.642246
 H   -7.282278    3.376076   -0.028102
 H   -8.947091    3.108912    0.524787
 H   -8.026145    1.545427   -2.009678
 H   -8.758302    0.039438   -1.406845
 H   -9.569507    1.581709   -1.135228
