69 
3ekn_ligand_dft.xyz
 C   -1.989759   -5.456317   -0.370088
 O   -0.934601   -4.538424   -0.245424
 C   -1.239401   -3.217655   -0.100954
 C   -2.525405   -2.708673   -0.081491
 C   -2.727767   -1.331717    0.075300
 C   -1.634389   -0.489562    0.218756
 C   -0.339405   -0.992769    0.205027
 C   -0.102073   -2.366081    0.032639
 N    1.122460   -2.955385   -0.005764
 C    2.424815   -2.404440    0.031647
 N    2.530012   -1.068959   -0.033872
 C    3.772231   -0.571605   -0.023125
 N    3.945625    0.822721   -0.047048
 C    3.081706    1.804391   -0.424721
 C    1.916629    1.510525   -1.177198
 C    1.055320    2.506686   -1.577514
 C    1.296474    3.846988   -1.266185
 C    2.434531    4.127523   -0.545407
 F    2.651059    5.446259   -0.281824
 C    3.356365    3.173312   -0.091349
 C    4.579647    3.530042    0.692356
 O    5.532575    2.760800    0.814277
 N    4.610575    4.731965    1.335241
 C    4.886507   -1.390565    0.060448
 C    6.301166   -1.267866    0.101922
 C    6.742726   -2.578228    0.193055
 N    5.756574   -3.526624    0.212786
 C    4.628476   -2.813846    0.134670
 N    3.367860   -3.316660    0.115389
 N   -4.083543   -0.827422    0.083017
 C   -4.453900   -0.200362    1.332023
 C   -5.946219    0.088315    1.357948
 N   -6.333711    0.978858    0.200680
 C   -5.857592    0.358859   -1.092048
 C   -4.368851    0.058814   -1.023082
 C   -7.813236    1.343173    0.187375
 C   -8.217198    1.988942    1.510917
 C   -8.127438    2.262674   -0.990664
 H   -2.639248   -5.445191    0.515984
 H   -2.596327   -5.252693   -1.263253
 H   -1.527619   -6.439420   -0.465770
 H   -3.390325   -3.353997   -0.187678
 H   -1.768826    0.583295    0.347617
 H    0.515782   -0.342719    0.322032
 H    1.142333   -3.964150   -0.044692
 H    4.835993    1.159286    0.309468
 H    1.725650    0.478789   -1.432939
 H    0.180786    2.240772   -2.165629
 H    0.649467    4.655014   -1.586125
 H    5.495900    4.969782    1.755308
 H    3.960637    5.465268    1.112943
 H    6.899551   -0.366413    0.062601
 H    7.781477   -2.895173    0.245459
 H   -3.899695    0.739872    1.526399
 H   -4.224534   -0.879317    2.156881
 H   -6.223743    0.596910    2.280129
 H   -6.527946   -0.829989    1.246087
 H   -5.808530    1.853607    0.316331
 H   -6.072041    1.058412   -1.898722
 H   -6.438896   -0.556892   -1.225006
 H   -4.076624   -0.426954   -1.957259
 H   -3.808286    1.013845   -0.968483
 H   -8.329016    0.385515    0.064056
 H   -8.187704    1.297749    2.354736
 H   -7.590378    2.859033    1.739456
 H   -9.246918    2.343266    1.424514
 H   -7.492884    3.156795   -0.980791
 H   -8.032618    1.769780   -1.959551
 H   -9.163462    2.597776   -0.903064
