70 
3ekp_ligand_xtb.xyz
 C    6.557511    0.887063    0.912995
 C    6.822647   -0.376984   -1.133038
 C    3.559277    0.692641    0.089403
 C    5.787906   -0.042572   -0.051761
 C    1.242906    1.407773   -0.068684
 C    0.495892    0.166281   -0.612762
 C    0.576967    2.730517   -0.465649
 C   -0.811910    2.860539    0.088221
 C   -1.915736    2.823175   -0.754130
 C   -1.018929    3.005849    1.455039
 C   -3.197668    2.923534   -0.242839
 C   -2.300058    3.094483    1.969052
 C   -3.393680    3.051418    1.120912
 C   -0.700856   -0.227311    0.277317
 C   -0.696520   -2.517270    1.274454
 C    0.788117   -2.909145    1.311999
 C   -3.585391   -1.048755   -0.522642
 C   -4.217996   -0.299447   -1.497488
 C   -5.333042    0.444409   -1.173906
 C   -5.821502    0.455221    0.137714
 C   -5.164172   -0.307467    1.110821
 C   -4.058468   -1.059824    0.777388
 C    1.161015   -3.655065    0.034574
 C    1.058262   -3.772721    2.541251
 C    8.118819    0.223361   -0.573706
 N    2.608209    1.408489   -0.552159
 N   -1.010901   -1.631513    0.181412
 N   -6.953138    1.154403    0.452299
 O    4.680974    0.611479   -0.662942
 O    3.446716    0.218575    1.194603
 O    0.114975    0.416999   -1.938389
 O   -2.460590   -3.426291   -0.784045
 O   -1.685450   -1.596125   -2.230624
 O    7.716621    1.306126    0.232866
 S   -2.157075   -2.035183   -0.938545
 H    6.824145    0.334462    1.824580
 H    5.978549    1.770023    1.183153
 H    6.528320    0.129088   -2.051427
 H    6.905244   -1.444290   -1.319739
 H    5.412687   -0.922343    0.480906
 H    1.313244    1.319379    1.019775
 H    1.210594   -0.673337   -0.580287
 H    0.542623    2.776239   -1.553985
 H    1.204200    3.544391   -0.094743
 H   -1.766663    2.704703   -1.816713
 H   -0.168892    3.052319    2.120501
 H   -4.044601    2.899996   -0.912023
 H   -2.446291    3.203723    3.033886
 H   -4.393853    3.126195    1.522164
 H   -1.577569    0.348101   -0.037379
 H   -0.485457    0.015746    1.320494
 H   -0.983095   -2.052624    2.228300
 H   -1.300209   -3.412929    1.115982
 H    1.389075   -1.996317    1.386704
 H   -3.819589   -0.311129   -2.499228
 H   -5.840275    1.023177   -1.931831
 H   -5.536433   -0.305201    2.124463
 H   -3.553163   -1.658589    1.518672
 H    2.231228   -3.846592    0.001667
 H    0.632897   -4.604839   -0.012809
 H    0.879530   -3.073763   -0.840390
 H    2.107381   -4.054414    2.578459
 H    0.457919   -4.679345    2.506508
 H    0.817685   -3.232640    3.454217
 H    8.653137   -0.523258    0.033866
 H    8.788851    0.609734   -1.341147
 H    2.743174    1.580528   -1.536927
 H   -7.283174    1.846345   -0.197467
 H   -7.163177    1.310679    1.422504
 H   -0.480324   -0.304260   -2.223836
