75 
3ekt_ligand_xtb.xyz
 N   -6.992474    2.254338   -0.937544
 C   -6.101163    1.216313   -0.997862
 C   -6.080787    0.238387    0.004449
 C   -5.136843   -0.765814   -0.020751
 C   -4.205374   -0.807261   -1.042872
 C   -4.207909    0.149622   -2.042271
 C   -5.151475    1.155008   -2.024412
 S   -2.976272   -2.099527   -1.035252
 O   -3.596900   -3.368491   -0.802216
 O   -2.178077   -1.956297   -2.228998
 N   -1.990725   -1.764287    0.258256
 C   -2.163523   -2.490391    1.492831
 C   -0.842566   -3.094913    1.989148
 C   -0.322173   -4.106808    0.973289
 C   -1.051423   -3.748069    3.352396
 C   -1.466470   -0.419727    0.307587
 C   -0.091945   -0.298408   -0.376205
 O   -0.195792   -0.183556   -1.771305
 C    0.692770    0.928385    0.130906
 N    2.031698    0.851754   -0.408642
 C    3.130289    0.958226    0.357438
 O    3.138918    1.166371    1.545627
 O    4.251227    0.808904   -0.399810
 C    5.475112    0.942903    0.299667
 C    5.857536   -0.303462    1.119608
 O    7.260307   -0.209229    1.255497
 C    7.775665    0.253355    0.048120
 O    8.105343   -0.814263   -0.810580
 C    7.753884   -0.456349   -2.129629
 C    6.477433    0.379613   -2.007713
 C    6.666520    1.083956   -0.659920
 C    0.043628    2.263560   -0.279513
 C   -1.026993    2.830102    1.916427
 C   -2.130776    3.137150    2.691144
 C   -3.382440    3.243503    2.107621
 C   -3.521184    3.054501    0.743778
 C   -2.415040    2.746191   -0.029137
 C   -1.157790    2.618516    0.548214
 H   -7.794203    2.147205   -0.339465
 H   -7.139788    2.792151   -1.774949
 H   -6.812880    0.279084    0.797118
 H   -5.118659   -1.532449    0.737485
 H   -3.470726    0.083233   -2.826777
 H   -5.163946    1.904522   -2.801915
 H   -2.592542   -1.834511    2.263437
 H   -2.867550   -3.295054    1.275381
 H   -0.112195   -2.284839    2.093870
 H   -0.258358   -3.651520   -0.011973
 H   -1.000865   -4.953962    0.907510
 H    0.662326   -4.468496    1.260825
 H   -1.792022   -4.541335    3.281238
 H   -1.395135   -3.019011    4.082961
 H   -0.119498   -4.178173    3.710197
 H   -2.165263    0.256244   -0.194874
 H   -1.385093   -0.108757    1.351378
 H    0.492232   -1.198169   -0.117916
 H   -0.820332   -0.866844   -2.088608
 H    0.796592    0.877630    1.218926
 H    2.117927    0.660622   -1.394223
 H    5.409913    1.808009    0.970577
 H    5.572087   -1.209858    0.569318
 H    5.417745   -0.316639    2.115227
 H    8.681360    0.831101    0.285190
 H    7.623668   -1.378186   -2.696855
 H    8.563093    0.135728   -2.582989
 H    6.362130    1.080362   -2.830527
 H    5.601946   -0.266170   -1.969729
 H    6.960966    2.124805   -0.785545
 H   -0.223547    2.200766   -1.334578
 H    0.801818    3.041225   -0.156390
 H   -0.051152    2.758182    2.374477
 H   -2.014092    3.297704    3.752999
 H   -4.244683    3.481557    2.712799
 H   -4.492148    3.145679    0.280331
 H   -2.530275    2.601914   -1.094132
