86 
3ekx_ligand_ani.xyz
 C    3.448551   -2.066047   -0.947864
 C    3.060927   -3.554583   -0.889706
 C    4.246507   -4.403133   -0.405688
 C    4.825480   -3.903657    0.923120
 C    5.213397   -2.424563    0.839773
 C    4.028427   -1.569751    0.383608
 N    1.026351   -1.438886   -0.613743
 C    0.646124   -2.901932   -0.544361
 C    1.805458   -3.758477   -0.035150
 C    2.261101   -1.240104   -1.438669
 C   -0.584119   -3.081237    0.347129
 N   -1.595692   -3.788018   -0.205427
 C   -2.932997   -3.965272    0.389956
 C   -3.750238   -4.774514   -0.616807
 C   -3.603038   -2.605740    0.624949
 C   -2.833681   -4.727485    1.715229
 O   -0.633891   -2.614151    1.484612
 C   -0.102368   -0.557371   -1.068170
 C   -0.834319    0.116845    0.125038
 C   -1.289270    1.572769   -0.141012
 O   -0.015091    0.108054    1.286246
 N   -0.252174    2.573449    0.052471
 C   -1.990503    1.760892   -1.485276
 C    0.888393    2.714485   -0.693453
 O    1.093952    2.142659   -1.758685
 C    1.906285    3.621855   -0.085193
 C    1.569739    4.818102    0.482240
 C    2.566087    5.710171    0.924011
 C    3.897140    5.414629    0.796577
 C    4.344457    4.152308    0.230222
 C    3.283902    3.092995   -0.071212
 O    5.526121    3.908893    0.042230
 C    3.440639    1.962892    0.965314
 S   -3.496246    0.758814   -1.667575
 C   -4.547096    1.616382   -0.503798
 C   -5.013111    2.901675   -0.788276
 C   -5.841579    3.560440    0.113691
 C   -6.204765    2.948784    1.310168
 C   -5.737014    1.670709    1.597520
 C   -4.913789    1.005403    0.695596
 H    4.241750   -1.954858   -1.700402
 H    2.806294   -3.868640   -1.913939
 H    5.036222   -4.371609   -1.169788
 H    3.936842   -5.452501   -0.318209
 H    4.084002   -4.041696    1.722614
 H    5.693874   -4.511421    1.204834
 H    5.588031   -2.070255    1.807480
 H    6.036614   -2.307971    0.120953
 H    4.327289   -0.518202    0.283353
 H    3.251427   -1.590223    1.162084
 H    1.225590   -1.093072    0.344905
 H    0.400232   -3.203986   -1.569002
 H    1.504816   -4.812711   -0.052543
 H    1.999564   -3.509106    1.013637
 H    2.493163   -0.169756   -1.447876
 H    2.024768   -1.529237   -2.473308
 H   -1.468960   -4.138092   -1.144559
 H   -3.827873   -4.243402   -1.573025
 H   -4.766472   -4.946904   -0.246085
 H   -3.288057   -5.752153   -0.796218
 H   -4.627999   -2.751590    0.985995
 H   -3.645842   -2.022385   -0.305144
 H   -3.052307   -2.032161    1.377335
 H   -2.354036   -5.700222    1.561412
 H   -3.838228   -4.896270    2.121257
 H   -2.252279   -4.163873    2.447487
 H   -0.814160   -1.140719   -1.660940
 H    0.318708    0.205194   -1.721864
 H   -1.750448   -0.461138    0.318213
 H   -2.024434    1.784421    0.643397
 H   -0.210911   -0.739928    1.725578
 H   -0.173929    2.903168    1.003912
 H   -1.326344    1.517636   -2.315091
 H   -2.260616    2.814804   -1.588001
 H    0.522004    5.101703    0.563351
 H    2.270593    6.659008    1.365803
 H    4.681742    6.101108    1.088079
 H    3.515487    2.664341   -1.058205
 H    4.472150    1.595225    0.946937
 H    2.751424    1.134918    0.749395
 H    3.220873    2.329269    1.972968
 H   -4.721826    3.383852   -1.718866
 H   -6.198985    4.559902   -0.118947
 H   -6.848979    3.467004    2.015567
 H   -6.012192    1.185227    2.529302
 H   -4.545137    0.012009    0.932017
