53 
3el8_ligand_xtb.xyz
 C    5.948134    0.825160    0.033517
 C    4.573829    1.072174   -0.209381
 C    4.273582    2.384700   -0.631828
 N    5.250803    3.289939   -0.682361
 N    6.924656    1.735835   -0.032383
 C    7.495370   -2.342861   -0.312429
 C    7.281870   -1.191068    0.665926
 C    7.190244   -1.690379    2.106069
 N    6.070481   -0.483998    0.321760
 N    4.880476   -1.096758    0.288377
 C    6.487365    2.927779   -0.371516
 N    3.040674    2.798167   -0.987779
 C    3.960891   -0.200404   -0.015892
 C    2.555350   -0.567929   -0.102452
 C    2.191716   -1.814746   -0.608487
 C    0.863983   -2.171492   -0.701274
 C    1.551595    0.292097    0.338269
 C    0.218757   -0.059148    0.246449
 C   -0.137495   -1.293332   -0.287410
 N   -1.465825   -1.719397   -0.410969
 C   -2.609968   -0.991172   -0.200569
 O   -2.636234    0.173203    0.116175
 N   -3.742210   -1.764497   -0.403076
 C   -5.074552   -1.384636   -0.284657
 C   -5.467661   -0.094083    0.059362
 C   -6.052536   -2.351566   -0.527144
 C   -7.393576   -2.039661   -0.430232
 C   -7.792654   -0.758247   -0.090282
 C   -6.819490    0.199701    0.154989
 C   -7.220796    1.607242    0.496108
 F   -7.163757    2.420980   -0.577927
 F   -8.477958    1.696356    0.959625
 F   -6.434526    2.164257    1.428380
 H    8.408471   -2.877468   -0.066652
 H    6.653976   -3.028861   -0.255257
 H    7.573030   -1.967207   -1.330102
 H    8.086175   -0.453893    0.570390
 H    7.056762   -0.854332    2.788599
 H    6.341389   -2.362474    2.205826
 H    8.098886   -2.220593    2.376871
 H    7.230535    3.712624   -0.425890
 H    2.301230    2.134430   -1.135577
 H    2.961230    3.726499   -1.365262
 H    2.966056   -2.494357   -0.927375
 H    0.594887   -3.140700   -1.099522
 H    1.816438    1.233697    0.796456
 H   -0.546416    0.615891    0.589522
 H   -1.559150   -2.672506   -0.733041
 H   -3.611023   -2.734413   -0.653704
 H   -4.725811    0.662608    0.253645
 H   -5.754246   -3.356033   -0.793742
 H   -8.135320   -2.799446   -0.621322
 H   -8.838169   -0.507231   -0.011768
