50 
3eoc_ligand_dft.xyz
 N   -2.548492   -0.925201   -0.015789
 C   -2.623318   -3.269639   -0.346951
 C   -3.328423   -2.062310   -0.204347
 C   -4.647344   -1.609671   -0.174290
 C   -2.989063    1.523127    0.368259
 C   -2.399523    4.216392    0.856127
 C   -1.722158    1.895800    0.835934
 C    2.598223    0.909982   -0.472546
 C    3.841481    0.501461    0.022726
 C    4.016086   -0.830064    0.418551
 N   -1.186072   -0.929373   -0.024489
 C   -0.661848   -2.119017   -0.183071
 N   -1.320399   -3.327658   -0.332076
 N   -4.654185   -0.281796    0.025169
 C   -3.378038    0.129554    0.126130
 C   -3.957343    2.513424    0.156497
 C   -3.661974    3.848471    0.395118
 C   -1.437301    3.236475    1.079237
 C   -5.902782   -2.406425   -0.323924
 N    0.694141   -2.265476   -0.208479
 C    1.712003   -1.297658   -0.121772
 C    1.525632    0.017719   -0.543339
 C    2.951855   -1.729528    0.355657
 O    5.259631   -1.147643    0.851776
 C    5.490186   -2.465300    1.292455
 O    4.867815    1.393517    0.143420
 C    5.660230    1.507434   -1.026113
 O    2.532134    2.200587   -0.874531
 C    1.341549    2.642697   -1.492794
 H   -3.166626   -4.204256   -0.473770
 H   -2.169708    5.260719    1.045656
 H   -0.964688    1.141635    1.012407
 H   -4.940793    2.215085   -0.190494
 H   -4.421355    4.605338    0.222572
 H   -0.454231    3.511293    1.451150
 H   -5.945297   -2.914121   -1.293831
 H   -5.990875   -3.170168    0.456651
 H   -6.760500   -1.735144   -0.247318
 H    0.978365   -3.233068   -0.238204
 H    0.561302    0.329123   -0.914889
 H    3.067929   -2.756152    0.683752
 H    4.853749   -2.720642    2.149533
 H    5.325953   -3.195755    0.489170
 H    6.535999   -2.499312    1.599862
 H    6.130008    0.548275   -1.277644
 H    5.060858    1.857673   -1.875258
 H    6.436571    2.242409   -0.804001
 H    1.120997    2.061348   -2.397168
 H    0.483457    2.589324   -0.813254
 H    1.518518    3.683701   -1.765855
