43 
3exo_ligand_ani.xyz
 C    3.994542    1.968194   -0.262483
 C    3.172197    3.074630   -0.449253
 C    1.796618    3.016263   -0.255103
 C    1.208145    1.812091    0.137689
 C    2.015422    0.711381    0.404395
 C    3.381032    0.774530    0.154582
 N   -0.186340    1.744275    0.297637
 C   -1.017296    0.686984    0.006748
 C   -2.406574    0.849853    0.129024
 C   -3.220000   -0.225724   -0.185189
 N   -2.700868   -1.382602   -0.647045
 C   -1.383394   -1.433076   -0.705627
 N   -0.497695   -0.478870   -0.393246
 C   -4.701638   -0.146521   -0.034205
 C   -5.552098   -0.780538   -0.943367
 C   -6.931566   -0.682439   -0.802310
 C   -7.479951    0.036475    0.256887
 C   -6.639944    0.660225    1.174733
 C   -5.260204    0.573077    1.025648
 C    5.479707    2.044393   -0.502015
 N    4.189051   -0.370828    0.313754
 S    3.670526   -1.950293    0.380275
 C    2.659717   -2.171233   -1.073557
 O    4.892029   -2.711582    0.194644
 O    2.826444   -2.142755    1.545513
 H    3.621298    4.015353   -0.763848
 H    1.183277    3.898853   -0.422930
 H    1.576505   -0.190442    0.811788
 H   -0.646118    2.633374    0.426866
 H   -2.824021    1.801580    0.443061
 H   -0.970054   -2.378159   -1.056261
 H   -5.123539   -1.352661   -1.761591
 H   -7.581882   -1.175572   -1.520402
 H   -8.558626    0.107007    0.367600
 H   -7.057996    1.222288    2.005789
 H   -4.610717    1.054792    1.753401
 H    5.766252    3.060832   -0.790410
 H    6.057834    1.786554    0.394943
 H    5.803505    1.376043   -1.311621
 H    5.161703   -0.313700    0.040497
 H    3.192856   -1.762034   -1.934270
 H    2.533120   -3.249323   -1.196410
 H    1.683088   -1.690609   -0.949135
