44 
3f0r_ligand_ani.xyz
 O    7.011914   -2.312461   -0.592275
 O    5.107361   -0.936869   -1.668974
 O   -1.509117    3.155508   -1.269089
 N    5.912632   -1.940601    0.167923
 N   -4.788568   -2.151928    0.078360
 C   -2.164122    1.121448   -0.273228
 C   -1.804166   -0.008855    0.461956
 C   -2.660739   -1.092018    0.578949
 C   -3.924962   -1.086508   -0.046355
 C   -4.271432    0.050602   -0.806259
 C   -3.404735    1.122496   -0.915981
 C   -1.283973    2.320086   -0.415563
 C   -0.073258    2.473870    0.525337
 C    1.081910    1.666934   -0.017771
 C    1.955877    0.915456    0.671147
 C    3.040148    0.267753   -0.079444
 C    3.983946   -0.536483    0.421020
 C    5.022522   -1.111680   -0.455197
 C    0.327149    3.946503    0.633973
 C    1.909012    0.690790    2.158009
 C   -6.077471   -2.114650   -0.573583
 C   -4.394833   -3.310133    0.847568
 H    6.766427   -1.954687   -1.471776
 H    6.189572   -1.764114    1.123374
 H   -0.828985   -0.060407    0.944268
 H   -2.342084   -1.944506    1.166732
 H   -5.225944    0.097631   -1.318536
 H   -3.685585    1.989060   -1.508957
 H   -0.366778    2.095138    1.513120
 H    1.243491    1.773904   -1.090066
 H    3.072799    0.471957   -1.151025
 H    4.021712   -0.807427    1.474388
 H    1.196412    4.053170    1.290762
 H   -0.492403    4.549820    1.034842
 H    0.584167    4.332865   -0.355171
 H    2.862836    0.963840    2.620565
 H    1.131683    1.284792    2.644562
 H    1.726988   -0.364170    2.389879
 H   -5.978914   -2.043052   -1.665469
 H   -6.676303   -1.259382   -0.232873
 H   -6.630483   -3.029123   -0.341317
 H   -4.191348   -3.049761    1.895150
 H   -3.491689   -3.781501    0.436423
 H   -5.200524   -4.049436    0.832379
