25 
3f1a_ligand_dft.xyz
 O    1.598037    1.448881    1.543247
 C    2.041687    0.674823    0.703336
 N    2.431390    1.113969   -0.521360
 O    2.054680    2.416620   -0.831202
 C    2.206680   -0.821348    0.923905
 N    0.941780   -1.543140    0.974903
 S   -0.033486   -1.608309   -0.383628
 O    0.854402   -1.311990   -1.503148
 O   -0.782195   -2.846374   -0.307034
 C   -1.210477   -0.277757   -0.208543
 C   -0.943217    0.972828   -0.757426
 C   -2.375724   -0.519352    0.517130
 C   -3.278725    0.519995    0.708669
 C   -3.017370    1.779654    0.174218
 C   -1.856376    2.003216   -0.560484
 H    2.308248    0.498293   -1.318785
 H    1.675273    2.715150    0.022865
 H    2.698788   -0.971904    1.887356
 H    2.831472   -1.270098    0.149609
 H    0.410189   -1.429362    1.831079
 H   -0.045773    1.146222   -1.339077
 H   -2.577607   -1.512716    0.904206
 H   -4.191324    0.342977    1.268693
 H   -3.725892    2.588198    0.325155
 H   -1.658032    2.980911   -0.987594
