31 
3f33_ligand_xtb.xyz
 O   -0.402140   -1.620902   -0.257162
 C   -0.156442   -0.284690   -0.104103
 C   -1.257353    0.568955    0.040170
 C    1.151150    0.218716   -0.088437
 C   -1.022663    1.922179    0.227480
 C   -2.680185    0.062273    0.002530
 C    0.261766    2.429097    0.274605
 C    1.337670    1.578519    0.115136
 C    2.332741   -0.719018   -0.251275
 C   -2.957626   -0.905143    1.154783
 C   -3.002803   -0.586174   -1.344893
 C    2.686945   -1.342633    1.104867
 C    3.564740   -0.043212   -0.853335
 H    0.430133   -2.102785   -0.317232
 H   -1.865366    2.588415    0.343896
 H   -3.338045    0.930692    0.125478
 H    0.424769    3.484676    0.432180
 H    2.336137    1.983030    0.149910
 H    2.056195   -1.522334   -0.950067
 H   -4.006999   -1.192102    1.156456
 H   -2.352985   -1.800494    1.049442
 H   -2.724272   -0.434619    2.107775
 H   -2.398749   -1.476517   -1.489314
 H   -4.052871   -0.868257   -1.381676
 H   -2.800901    0.109533   -2.156870
 H    3.499108   -2.058921    0.995883
 H    3.003396   -0.563821    1.795302
 H    1.831647   -1.852154    1.544984
 H    4.026934    0.638505   -0.144291
 H    4.302570   -0.798191   -1.118288
 H    3.298769    0.509348   -1.751442
