25 
3f34_ligand_dft.xyz
 C    2.860866   -1.244257    0.856118
 C    2.527773   -0.415310   -0.390841
 C    1.230721    0.343691   -0.251165
 C    1.209412    1.700125    0.063076
 C    0.010977    2.390237    0.217661
 C   -1.190194    1.712170    0.057094
 C   -1.217978    0.352215   -0.255014
 C   -2.532270   -0.386387   -0.376470
 C   -2.857229   -1.232213    0.863517
 C    0.004402   -0.316648   -0.403705
 O    0.068815   -1.650262   -0.703327
 H    2.942228   -0.601301    1.739013
 H    2.078619   -1.985251    1.044547
 H    3.811000   -1.774119    0.729388
 H    2.472452   -1.080029   -1.259613
 H    3.337612    0.297864   -0.583135
 H    2.155423    2.222742    0.183631
 H    0.014608    3.448768    0.457902
 H   -2.133081    2.241216    0.174517
 H   -2.544825   -1.021518   -1.275852
 H   -3.333962    0.342282   -0.535412
 H   -2.074397   -1.972623    1.061372
 H   -2.929801   -0.592518    1.748228
 H   -3.807222   -1.762900    0.742317
 H   -0.818052   -1.982256   -0.881908
