25 
3f34_ligand_ani.xyz
 C    2.815609   -1.287615    0.848380
 C    2.517447   -0.430982   -0.385483
 C    1.235514    0.352748   -0.250995
 C    1.226257    1.708701    0.062885
 C    0.030450    2.401858    0.226503
 C   -1.176062    1.726262    0.072239
 C   -1.214329    0.368619   -0.240019
 C   -2.533435   -0.361323   -0.367102
 C   -2.846965   -1.265637    0.829353
 C    0.007341   -0.301129   -0.397818
 O    0.069834   -1.631522   -0.720839
 H    2.912212   -0.661830    1.741753
 H    2.008557   -2.004916    1.021705
 H    3.748887   -1.844628    0.716629
 H    2.452104   -1.077272   -1.267919
 H    3.345936    0.266067   -0.558454
 H    2.175438    2.228474    0.177949
 H    0.038755    3.461130    0.469295
 H   -2.115592    2.261757    0.194575
 H   -2.556855   -0.948340   -1.296583
 H   -3.334057    0.377291   -0.472333
 H   -2.060631   -2.010487    0.996645
 H   -2.931156   -0.672698    1.745109
 H   -3.789853   -1.799248    0.676527
 H   -0.823375   -1.992147   -0.765842
