19 
3f37_ligand_ani.xyz
 C   -2.536314   -0.747873   -0.000073
 C   -1.233263    0.010091   -0.001865
 C   -1.214777    1.402414   -0.000118
 C   -0.016182    2.107507    0.000997
 C    1.184537    1.409545    0.000285
 C    1.217061    0.015031   -0.000564
 C    2.554261   -0.688579   -0.000565
 C   -0.006352   -0.670292   -0.000809
 O   -0.073342   -2.037906   -0.001020
 H   -3.111650   -0.528523    0.907454
 H   -3.156402   -0.454671   -0.855285
 H   -2.372324   -1.824191   -0.047206
 H   -2.161301    1.938795    0.000950
 H   -0.019116    3.194077    0.002357
 H    2.127532    1.951953    0.000163
 H    3.138792   -0.404774   -0.881495
 H    3.133667   -0.415473    0.887212
 H    2.493090   -1.782631   -0.008117
 H    0.820620   -2.398376    0.018401
