19 
3f38_ligand_ani.xyz
 C    2.536007   -0.749060   -0.000283
 C    1.233060    0.009063   -0.000160
 C    1.215932    1.401414    0.000084
 C    0.017932    2.107476    0.000193
 C   -1.183326    1.410369    0.000125
 C   -1.217248    0.015896   -0.000205
 C   -2.554822   -0.686929   -0.000352
 C    0.005637   -0.670441    0.000077
 O    0.071511   -2.038142    0.000280
 H    3.133805   -0.492073   -0.882812
 H    3.134291   -0.491661    0.881818
 H    2.372035   -1.826372   -0.000017
 H    2.162942    1.936999    0.000016
 H    0.021659    3.194055    0.000464
 H   -2.125759    1.953560    0.000227
 H   -3.134825   -0.412483    0.886547
 H   -3.138504   -0.404533   -0.882270
 H   -2.493924   -1.780950   -0.005661
 H   -0.822836   -2.398135    0.002570
