68 
3f3w_ligand_ani.xyz
 C    8.143364    1.063692   -0.401846
 C    7.168659    0.154743    0.056642
 C    5.848221    0.337842   -0.501380
 N    5.576593    1.329387   -1.321149
 N    7.859357    2.059822   -1.293912
 C   -4.462154   -4.940576    0.636453
 C   -5.332483   -3.795018    0.185677
 C   -4.883873   -2.479622    0.324614
 C   -6.583013   -4.018746   -0.383901
 C   -7.384215   -2.952353   -0.787866
 C   -6.942548   -1.647050   -0.637075
 C   -5.675392   -1.417567   -0.106885
 N   -5.256234   -0.064223    0.010210
 N   -6.187921    0.876017    0.308786
 C   -5.523783    2.017834    0.406722
 C   -6.208542    3.316592    0.757819
 C   -7.689372    3.073016    1.048410
 C   -5.529405    3.918340    1.999314
 C   -6.062629    4.296395   -0.418588
 C   -4.147746    1.839758    0.134637
 C   -4.018995    0.495072   -0.137769
 N   -2.930985   -0.277082   -0.547624
 C   -1.622457    0.191563   -0.477244
 O   -1.347248    1.311438   -0.096055
 N   -0.703670   -0.763414   -0.864463
 C    0.696183   -0.659798   -0.715443
 C    1.442037   -1.834331   -0.596162
 C    2.815800   -1.779140   -0.428127
 C    1.362092    0.566074   -0.707556
 C    2.740339    0.619246   -0.561566
 C    3.485476   -0.551406   -0.407365
 N    4.873347   -0.564806   -0.163345
 C    7.517694   -0.828347    1.015261
 C    8.812342   -0.933317    1.479745
 N    9.152863   -1.870617    2.457485
 C    9.791577   -0.030368    0.995524
 C    9.464489    0.936917    0.086619
 C    6.615165    2.123354   -1.682417
 H   -3.496958   -4.927536    0.116441
 H   -4.255262   -4.880040    1.711333
 H   -4.936353   -5.905902    0.439373
 H   -3.917653   -2.282245    0.781957
 H   -6.940477   -5.039099   -0.505725
 H   -8.365771   -3.141756   -1.215888
 H   -7.556324   -0.796865   -0.919101
 H   -8.195451    2.655419    0.173514
 H   -7.811607    2.371161    1.878322
 H   -8.177028    4.017477    1.315793
 H   -5.636718    3.253965    2.863658
 H   -4.460695    4.069428    1.816030
 H   -5.977206    4.886497    2.250126
 H   -5.005131    4.454920   -0.654331
 H   -6.558749    3.908678   -1.314974
 H   -6.510461    5.264604   -0.167847
 H   -3.347256    2.559648    0.127368
 H   -3.141974   -1.082541   -1.123006
 H   -1.042312   -1.708631   -0.970815
 H    0.945322   -2.801793   -0.614716
 H    3.378442   -2.703679   -0.317432
 H    0.795588    1.481994   -0.808491
 H    3.241866    1.580422   -0.558285
 H    5.218594   -1.430939    0.219261
 H    6.764443   -1.493375    1.435883
 H    8.551808   -2.683132    2.485556
 H   10.127505   -2.134782    2.461623
 H   10.811253   -0.109592    1.367655
 H   10.208161    1.636524   -0.280656
 H    6.363971    2.917273   -2.383581
