12 
3f78_ligand_ani.xyz
 F    0.532329   -1.911909   -0.216110
 C    1.207426   -0.763988   -0.005105
 F    1.667902   -0.774351    1.240059
 F    2.236962   -0.726221   -0.852507
 C    0.258756    0.412089   -0.275549
Cl    1.085696    1.944383    0.048802
 O   -0.858914    0.319053    0.542795
 C   -1.943704   -0.350937   -0.000024
 F   -2.968218   -0.118436    0.817771
 F   -2.240120    0.157936   -1.217360
 H   -0.004620    0.394147   -1.336674
 H   -1.775468   -1.427235   -0.097927
