47 
3f7b_ligand_xtb.xyz
 O   -0.242047   -2.885108   -0.219575
 C    0.409091   -1.923381   -0.593442
 N    1.622112   -2.032379   -1.174888
 C    2.415367   -3.235921   -1.069120
 C    3.188772   -3.270017    0.265744
 C    3.835050   -1.936182    0.515624
 C    3.178260   -0.977210    1.278535
 C    3.710846    0.290790    1.435162
 C    4.913773    0.614308    0.830877
 C    5.582601   -0.337490    0.079103
 C    5.044605   -1.602516   -0.081015
 C   -0.127884   -0.545343   -0.455110
 C    0.639489    0.607157   -0.502609
 C   -1.506813   -0.391813   -0.170558
 N   -2.077568    0.800986   -0.008083
 C   -1.335424    1.883489   -0.078374
 C    0.029056    1.832478   -0.306570
 S    1.049162    3.280729   -0.323971
 O    2.195321    3.032320   -1.148388
 O    0.240327    4.439822   -0.560653
 N    1.591114    3.305892    1.271649
 S   -2.514088   -1.788635    0.002057
 C   -4.110451   -0.972591    0.136768
 C   -4.624463   -0.259886   -0.933497
 C   -5.867594    0.335426   -0.820546
 C   -6.598538    0.205126    0.349312
 C   -6.085985   -0.523079    1.409233
 C   -4.838701   -1.115096    1.304945
 H    2.128780   -1.189667   -1.393650
 H    3.107795   -3.259447   -1.912840
 H    1.737202   -4.089198   -1.127053
 H    3.934423   -4.064365    0.220533
 H    2.484990   -3.494298    1.068246
 H    2.237272   -1.225716    1.749697
 H    3.178634    1.024771    2.022422
 H    5.331132    1.603303    0.944835
 H    6.524021   -0.091105   -0.389225
 H    5.567486   -2.339349   -0.674237
 H    1.705835    0.606629   -0.671627
 H   -1.839696    2.829682    0.055009
 H    2.590931    3.425033    1.306829
 H    1.121176    4.016566    1.809255
 H   -4.052389   -0.167254   -1.843781
 H   -6.269472    0.898303   -1.649879
 H   -7.569960    0.669591    0.432811
 H   -6.656100   -0.629398    2.320302
 H   -4.428000   -1.684845    2.124369
