38 
3f7z_ligand_xtb.xyz
 C   -4.858939    0.202924   -0.979031
 C    0.617645   -1.756848   -0.044041
 C   -3.511150   -1.148050    0.153205
 C   -2.743623   -0.440179   -0.778701
 C   -1.391894   -0.625166   -0.891945
 C   -2.945347   -2.070469    1.003690
 C   -1.574632   -2.266241    0.904405
 C   -0.809934   -1.559920   -0.020618
 F    0.124870    3.007916   -1.033518
 C    0.771853    2.223656   -0.133575
 C    0.129139    1.733229    1.004451
 O   -1.157869    1.922190    1.378426
 C   -1.999061    2.775124    0.627550
 C    0.895314    0.941464    1.866243
 C    2.212496    0.640251    1.598319
 C    2.089722    1.917201   -0.414698
 C    2.828902    1.116104    0.443410
 C    4.190080    0.651896    0.060334
 S    4.041669   -0.692570   -1.221317
 C    2.649463   -1.465139   -0.514689
 N    2.610164   -2.340735    0.433960
 N    1.320137   -2.530778    0.736868
 O    1.412702   -1.059124   -0.883416
 O   -4.814007   -0.763472    0.050221
 O   -3.555385    0.408590   -1.480167
 H   -5.254630    1.149587   -0.579104
 H   -5.515107   -0.152165   -1.789539
 H   -0.800402   -0.080653   -1.608758
 H   -3.545454   -2.609800    1.716389
 H   -1.072842   -2.968652    1.549176
 H   -1.596296    3.789499    0.571421
 H   -2.168286    2.395442   -0.382779
 H   -2.942435    2.793326    1.171521
 H    0.409149    0.556069    2.747823
 H    2.762502    0.009166    2.280378
 H    2.521807    2.295095   -1.328729
 H    4.733293    0.227197    0.902284
 H    4.782327    1.421851   -0.429503
