35 
3f88_ligand_ani.xyz
 C    4.314893   -0.336162    1.066531
 C    3.427842    0.724352    1.012309
 C    2.414503    0.748846    0.051781
 C    2.306529   -0.301493   -0.853314
 C    3.203980   -1.366336   -0.811858
 C    1.862251    3.189835   -0.050264
 C   -1.621035    3.513334   -0.169652
 C   -2.137602    1.141737   -0.057797
 C    0.128669    1.829850   -0.040957
 C   -3.930110   -1.949090    0.116764
 S   -4.004843   -3.577036    0.253917
 N   -4.908533   -1.032579   -0.009805
 N   -4.448840    0.251937   -0.095307
 O   -2.788921   -1.193590    0.107478
 C   -3.169825    0.108175   -0.021784
 C   -2.544477    2.488822   -0.143693
 C   -0.792054    0.790494   -0.003840
 C   -0.262198    3.180169   -0.113511
 N    0.851234    4.004587   -0.118247
 N    1.521866    1.854619   -0.000312
 C    4.211208   -1.387327    0.150480
 O    5.133440   -2.378934    0.279790
 C    5.059811   -3.455019   -0.629129
 H    5.105988   -0.373604    1.809499
 H    3.500971    1.537072    1.730528
 H    1.516626   -0.283909   -1.600249
 H    3.100402   -2.168752   -1.534003
 H    2.902723    3.494811   -0.053336
 H   -1.926509    4.553363   -0.230220
 H   -5.894966   -1.236495   -0.040457
 H   -3.608419    2.701002   -0.186245
 H   -0.488105   -0.248504    0.070845
 H    4.102823   -3.986927   -0.545310
 H    5.191422   -3.115621   -1.665112
 H    5.873984   -4.130755   -0.363453
