35 
3f88_ligand_dft.xyz
 C    4.276044   -0.331649    1.053223
 C    3.405460    0.741876    0.994183
 C    2.404100    0.775612    0.021743
 C    2.277549   -0.275812   -0.877737
 C    3.134760   -1.370511   -0.807992
 C    1.861914    3.211158   -0.107596
 C   -1.620123    3.533498   -0.154134
 C   -2.123896    1.157028   -0.025109
 C    0.133382    1.855140   -0.060154
 C   -3.861889   -1.964661    0.103670
 S   -3.902130   -3.605583    0.153306
 N   -4.858113   -1.056538    0.088846
 N   -4.417880    0.238983    0.041722
 O   -2.733913   -1.193546    0.063811
 C   -3.134104    0.109262    0.027716
 C   -2.540606    2.505823   -0.104322
 C   -0.776717    0.807066    0.001728
 C   -0.259319    3.205950   -0.129838
 N    0.848945    4.031161   -0.157916
 N    1.517176    1.883494   -0.046371
 C    4.143225   -1.399942    0.157803
 O    5.033099   -2.406448    0.310708
 C    4.931758   -3.523288   -0.547618
 H    5.060448   -0.376137    1.800792
 H    3.488529    1.553437    1.710618
 H    1.509540   -0.239612   -1.644125
 H    3.009684   -2.180912   -1.515955
 H    2.904258    3.504184   -0.125290
 H   -1.931439    4.570760   -0.209540
 H   -5.843189   -1.266025    0.110013
 H   -3.603633    2.720906   -0.124142
 H   -0.461820   -0.228127    0.072089
 H    3.961013   -4.023246   -0.441227
 H    5.082580   -3.238062   -1.596349
 H    5.724499   -4.206871   -0.243300
