16 
3fa3_ligand_ani.xyz
 O   -2.439895   -1.152684    0.439744
 C   -1.946233   -0.036180   -0.075582
 O   -2.532975    0.671656   -0.852884
 C   -0.534127    0.352093    0.410468
 O   -0.351802   -0.042486    1.733124
 O   -0.396754    1.744352    0.281881
 C    0.547813   -0.356992   -0.428195
 F    0.460479    0.104233   -1.708058
 F    0.337268   -1.688254   -0.428992
 C    1.978797   -0.076172    0.065878
 O    2.267031    1.223588    0.161939
 O    2.760298   -0.952001    0.287327
 H   -1.823149   -1.455701    1.128867
 H   -0.549466    0.738827    2.267304
 H   -0.982938    1.986705   -0.462241
 H    1.451099    1.750471    0.055063
