42 
3faa_ligand_ani.xyz
 C   56.528129   50.802017  132.194223
 C   56.167110   51.966874  131.461967
 N   56.240773   52.029510  130.156854
 C   56.687895   50.905472  129.527840
 C   57.051090   49.746872  130.255780
 N   56.960864   49.711682  131.617433
 C   56.792967   50.888742  128.113042
 C   57.240055   49.766959  127.468473
 C   57.607162   48.599008  128.190184
 C   57.505536   48.603011  129.567158
 C   58.065117   47.404979  127.477672
 C   58.794030   47.175996  126.313593
 N   58.809399   45.840748  126.010233
 C   58.155019   45.265832  126.978683
 N   57.703638   46.144847  127.903206
 C   59.550417   48.120315  125.489722
 C   60.096124   49.286444  126.033896
 C   60.799459   50.155872  125.209547
 C   60.918217   49.807288  123.882611
 C   60.365823   48.620911  123.394757
 N   59.713248   47.791864  124.197168
 N   57.942807   43.890452  127.061294
 C   60.512661   48.247581  121.941826
 F   61.579169   50.603029  123.023000
 C   57.192598   43.259806  128.026310
 O   56.648961   43.875990  128.930024
 C   57.114305   41.757573  127.870804
 H   56.447162   50.798120  133.281340
 H   55.812344   52.852155  131.989296
 H   56.512021   51.785041  127.573781
 H   57.330392   49.763543  126.386280
 H   57.778914   47.742046  130.168458
 H   59.958716   49.514957  127.084985
 H   61.240052   51.076185  125.576891
 H   58.359263   43.354398  126.312659
 H   60.094928   49.025188  121.293740
 H   61.568601   48.136563  121.673289
 H   59.992687   47.304593  121.758061
 H   56.767951   41.481819  126.869402
 H   58.100841   41.306249  128.019524
 H   56.423633   41.366452  128.617382
 H   57.098918   45.864012  128.669608
