39 
3fcf_ligand_ani.xyz
 O    4.950518   -2.191472    1.607807
 C    4.945017   -1.943690    0.279611
 O    5.520960   -2.679664   -0.476902
 C    4.194262   -0.723006   -0.175052
 C    4.558429   -0.158642   -1.397667
 C    3.898114    0.969754   -1.871863
 C    3.132681   -0.172241    0.544670
 C    2.457282    0.949634    0.067895
 C    2.854114    1.528376   -1.142477
 C    1.342781    1.502092    0.852101
 N    0.737922    2.558903    0.475039
 O   -0.278865    2.895058    1.333143
 C   -0.930935    4.066778    0.863894
 C   -1.669229    3.882368   -0.449834
 O   -2.838065    3.077680   -0.346115
 N   -2.486017    1.757045   -0.172011
 C   -3.503542    1.000885   -0.288374
 C   -3.341924   -0.451275   -0.157031
 N   -2.157050   -0.906865    0.101661
 C   -4.593148   -1.258199   -0.344509
 C   -4.386785   -2.750317   -0.225428
 O   -5.276149   -3.562024   -0.362367
 N   -3.094207   -3.105618    0.056686
 C   -1.966100   -2.276592    0.230259
 O   -0.899847   -2.792765    0.477042
 H    4.578211   -1.440044    2.088721
 H    5.362782   -0.621635   -1.961486
 H    4.195915    1.412233   -2.818647
 H    2.793523   -0.640065    1.470379
 H    2.328963    2.408498   -1.498715
 H    1.025315    0.984998    1.761221
 H   -0.195613    4.874857    0.758188
 H   -1.635947    4.321203    1.658844
 H   -0.995347    3.463304   -1.202697
 H   -2.037169    4.852611   -0.791975
 H   -4.489801    1.430375   -0.485432
 H   -5.043080   -1.068674   -1.328153
 H   -5.359450   -0.975124    0.389885
 H   -2.907344   -4.096849    0.152210
