24 
3fcq_ligand_xtb.xyz
 O   -2.079360   -0.303215    1.400434
 C   -2.134759    0.323745    0.384482
 O   -1.134371    0.356846   -0.535027
 C    0.047671   -0.357173   -0.276136
 C    0.023438   -1.750832   -0.272473
 C   -1.242199   -2.505601   -0.534170
 C    1.211262   -2.426419   -0.018697
 C    2.388740   -1.744051    0.227817
 C    2.399075   -0.364263    0.208234
 C    1.232384    0.351609   -0.050937
 C    1.356431    1.845255   -0.055574
 O    0.377977    2.544271   -0.646541
 O    2.304734    2.403328    0.425389
 C   -3.267730    1.200307   -0.065041
 H   -1.844203   -2.544083    0.374127
 H   -1.833083   -2.021115   -1.310289
 H   -1.019305   -3.523118   -0.843425
 H    1.202281   -3.506204   -0.011995
 H    3.297117   -2.289514    0.431660
 H    3.301434    0.197216    0.394449
 H   -0.334430    1.967056   -0.968879
 H   -4.163796    0.950130    0.494496
 H   -3.005972    2.238824    0.132853
 H   -3.437759    1.085504   -1.132076
