24 
3fcq_ligand_ani.xyz
 O   -1.451389   -0.464322    1.567288
 C   -1.617126   -1.084813    0.552163
 O   -0.652169   -1.173172   -0.428058
 C    0.484781   -0.395585   -0.219532
 C    1.725151   -1.042448   -0.183384
 C    1.837794   -2.521730   -0.453450
 C    2.836423   -0.265589    0.135247
 C    2.725919    1.103545    0.382657
 C    1.490559    1.724017    0.269570
 C    0.363580    0.990353   -0.089367
 C   -0.903345    1.771169   -0.341719
 O   -1.778918    1.258335   -1.229510
 O   -1.109764    2.831574    0.183351
 C   -2.859064   -1.801483    0.127255
 H    1.273708   -3.104362    0.283179
 H    1.443162   -2.776209   -1.442842
 H    2.883316   -2.838662   -0.409930
 H    3.809147   -0.748871    0.198229
 H    3.606149    1.682609    0.646859
 H    1.364252    2.789171    0.436457
 H   -1.450345    0.413360   -1.573249
 H   -3.569757   -1.813521    0.953270
 H   -3.301635   -1.267002   -0.720737
 H   -2.628110   -2.820444   -0.192452
