51 
3fei_ligand_ani.xyz
 N    3.184971   -0.120900    0.280536
 C    4.278017   -0.729148   -0.070640
 S    4.044618   -2.384364   -0.567258
 C    2.103271   -0.955051    0.168146
 C    2.362237   -2.213046   -0.275160
 C   -7.839808    0.437827   -0.209568
 C   -4.269005   -0.636201    0.765564
 C   -5.744498   -0.364936    0.960580
 C    5.602622   -0.085436   -0.062005
 C   -3.824332   -1.792770    0.095827
 C   -6.315529    0.523979   -0.161157
 C   -2.461392   -2.005136   -0.068585
 O   -8.624818    1.315067    0.047494
 C   -3.327934    0.290988    1.196386
 C    5.686718    1.267361    0.279177
 C    6.769755   -0.782405   -0.385816
 C    0.756689   -0.429898    0.544340
 C   -1.527755   -1.076179    0.399023
 O   -0.217933   -1.393573    0.194680
 O   -8.221420   -0.793280   -0.606678
 C    8.059700    1.210369   -0.032953
 C   -1.960426    0.085011    1.028387
 C    6.910386    1.921392    0.294542
 C    7.999197   -0.136948   -0.371921
Cl    9.598915    2.020615   -0.017931
 O   -5.876179    1.833430    0.059668
 C   -4.805861   -2.803267   -0.445743
 C   -6.104550    2.722560   -1.021743
 C   -5.459496    4.046218   -0.662156
 H    1.655520   -3.013406   -0.437162
 H   -6.315023   -1.297733    1.006728
 H   -5.907198    0.164785    1.905057
 H   -5.962277    0.155273   -1.138592
 H   -2.102974   -2.900670   -0.570833
 H   -3.670881    1.207602    1.670864
 H    4.775280    1.799133    0.532448
 H    6.731115   -1.835118   -0.650541
 H    0.577000    0.518626    0.020363
 H    0.727011   -0.222857    1.624322
 H   -9.193404   -0.793428   -0.609605
 H   -1.256733    0.828377    1.388064
 H    6.976718    2.972469    0.557237
 H    8.906994   -0.675319   -0.623045
 H   -5.340929   -3.315015    0.363213
 H   -5.563452   -2.329016   -1.081911
 H   -4.294468   -3.564915   -1.039960
 H   -5.661809    2.305138   -1.940388
 H   -7.181976    2.840330   -1.191947
 H   -5.913760    4.455032    0.244931
 H   -4.387777    3.912503   -0.486620
 H   -5.592436    4.769023   -1.473901
