17 
3fhb_ligand_dft.xyz
 C    1.990654   -0.402855   -0.038109
 O    2.939143    0.462087    0.383525
 O    2.296302   -1.514235   -0.384870
 C    0.579040    0.106175   -0.035363
 C   -0.435797   -0.841324    0.055618
 C   -1.778313   -0.450108    0.064375
 C   -2.079070    0.916657   -0.035464
 C   -1.063708    1.855610   -0.148026
 C    0.271790    1.464790   -0.146030
 N   -2.788818   -1.389949    0.220869
 H    2.520907    1.242078    0.771607
 H   -0.163060   -1.890450    0.121475
 H   -3.117331    1.238400   -0.027772
 H   -1.318510    2.906405   -0.246778
 H    1.048134    2.212292   -0.285534
 H   -2.544740   -2.335561   -0.036439
 H   -3.694815   -1.120001   -0.133883
