17 
3fhb_ligand_ani.xyz
 C    1.991375   -0.403586   -0.031077
 O    2.960278    0.457270    0.352283
 O    2.280180   -1.525002   -0.358113
 C    0.579329    0.113696   -0.022328
 C   -0.435794   -0.835730    0.041149
 C   -1.778778   -0.448216    0.044543
 C   -2.084745    0.915783   -0.041525
 C   -1.068030    1.858540   -0.133968
 C    0.266516    1.470381   -0.124303
 N   -2.792170   -1.406671    0.063723
 H    2.575253    1.261196    0.725845
 H   -0.161603   -1.887700    0.076609
 H   -3.126205    1.229038   -0.048746
 H   -1.321805    2.913389   -0.206104
 H    1.043804    2.224538   -0.235086
 H   -2.530304   -2.295482    0.467011
 H   -3.676850   -1.081639    0.426101
