63 
3fi3_ligand_ani.xyz
 C    3.717676    1.947521   -0.343952
 C    2.500175   -0.432489    2.035080
 C   -5.280335    0.163341   -1.127360
 C   -0.600907    1.649207    0.351575
 C   -2.987754    2.011468   -0.435573
 C    5.626282    0.482229    0.091846
 C   -4.587200    0.168057    0.078287
 C    7.521781   -1.060169   -0.456875
 C    3.567604    0.102691    1.253457
 C    2.986299    1.191270    0.585664
 F    9.589718    0.051557   -0.488993
 C    8.915898   -1.119766   -0.598338
 C    9.603470   -2.287493   -0.843571
 C    8.879463   -3.471814   -0.976208
 C    6.814902   -2.254963   -0.619555
 C    7.494062   -3.445382   -0.869737
 N    6.964173    0.185680   -0.212094
 C    5.030629    1.592724   -0.560701
 C    4.910527   -0.250227    1.018461
 N    1.677427    1.252298    1.007815
 N    1.385902    0.240437    1.863342
 C    0.665765    2.155521    0.617637
 C    0.914017    3.526019    0.520755
 C   -0.104861    4.378158    0.108656
 C   -1.614036    2.506240   -0.072641
 C   -1.358888    3.871208   -0.208575
 O   -3.683245    2.597671   -1.245939
 N   -3.380998    0.881828    0.240111
 C   -5.043773   -0.594796    1.161719
 C   -6.200807   -1.360014    1.036091
 O   -6.710125   -2.150492    2.011511
 C   -6.058969   -2.133951    3.262520
 C   -6.912025   -1.362256   -0.177910
 O   -8.065775   -2.091689   -0.289741
 C   -7.884952   -3.313187   -0.993058
 C   -6.424901   -0.616392   -1.250491
 O   -7.047642   -0.680389   -2.469810
 C   -8.335302   -0.073563   -2.503293
 H    3.259918    2.769681   -0.881646
 H    2.520686   -1.289016    2.695551
 H   -4.936803    0.748705   -1.969655
 H   -0.751932    0.576435    0.441319
 H   10.685492   -2.256814   -0.933238
 H    9.398461   -4.405482   -1.170590
 H    5.729448   -2.256788   -0.575264
 H    6.921538   -4.361694   -0.984023
 H    7.583751    0.960856   -0.390763
 H    5.626460    2.164388   -1.267774
 H    5.387679   -1.072216    1.540833
 H    1.898621    3.908942    0.770985
 H    0.090614    5.443324    0.024764
 H   -2.158046    4.515682   -0.562813
 H   -2.812836    0.608945    1.028267
 H   -4.491601   -0.584134    2.095233
 H   -5.025931   -2.497091    3.181630
 H   -6.054352   -1.126321    3.699179
 H   -6.627739   -2.804501    3.908072
 H   -7.494763   -3.127153   -2.000802
 H   -7.198925   -3.970469   -0.444492
 H   -8.866774   -3.787251   -1.057275
 H   -9.016395   -0.555205   -1.795032
 H   -8.261362    0.997372   -2.275108
 H   -8.706932   -0.201862   -3.522242
