28 
3fl5_ligand_ani.xyz
 O    0.642719   -2.856630    0.077978
 C    0.465566   -1.658959    0.033628
 C    1.590062   -0.665365   -0.001853
 C    2.924422   -1.106666   -0.040885
 O    3.204675   -2.427398   -0.089479
 C    3.952739   -0.168390   -0.030038
 C    3.687868    1.189714    0.005576
 C    2.377593    1.659255    0.022556
 O    2.203343    2.982663    0.049430
 C    1.313789    0.725187    0.010774
 C   -0.090845    1.249636    0.015131
 O   -0.296884    2.454805    0.037053
 C   -0.938677   -1.118067    0.020558
 C   -1.210109    0.264092   -0.001654
 C   -1.974606   -2.045684    0.038421
 C   -3.292102   -1.625442    0.026594
 C   -3.574427   -0.268224   -0.008824
 O   -4.844261    0.248772   -0.028096
 C   -2.550716    0.688661   -0.030459
 O   -2.883529    1.989478   -0.079940
 H    4.164100   -2.527836   -0.126361
 H    4.987619   -0.509224   -0.049153
 H    4.493242    1.916689    0.017280
 H    1.233742    3.145997    0.053103
 H   -1.727687   -3.099890    0.062499
 H   -4.103578   -2.350428    0.042330
 H   -5.487600   -0.468966    0.005292
 H   -3.851701    2.041644   -0.097702
