39 
3fl9_ligand_ani.xyz
 C    2.196630   -0.158972   -0.855531
 N    3.206661   -0.122090   -1.727506
 C    4.427155   -0.079084   -1.173769
 N    5.492424   -0.085363   -2.025272
 N    4.718907   -0.050115    0.132977
 C    3.681970   -0.095581    0.964858
 N    3.969749   -0.029415    2.303045
 C    2.340024   -0.156035    0.517964
 C    1.210671   -0.200351    1.527548
 C   -0.174902   -0.152380    0.927217
 C   -0.787084    1.075339    0.657974
 C   -2.047025    1.116336    0.064851
 O   -2.699133    2.269209   -0.249700
 C   -2.043508    3.489069    0.019846
 C   -2.732699   -0.071769   -0.258492
 O   -3.932202   -0.059732   -0.918662
 C   -5.016240    0.626666   -0.300744
 C   -2.120894   -1.299075    0.023452
 O   -2.651379   -2.510146   -0.295740
 C   -4.043085   -2.731191   -0.112563
 C   -0.851308   -1.322457    0.607186
 H    1.202151   -0.190595   -1.299737
 H    5.300985    0.151068   -2.985828
 H    6.377726    0.200457   -1.636258
 H    4.944760   -0.170284    2.527812
 H    3.318133   -0.432862    2.959206
 H    1.329744    0.635891    2.232906
 H    1.297076   -1.115743    2.133738
 H   -0.277759    1.996166    0.921535
 H   -1.855385    3.611731    1.093990
 H   -1.093520    3.562646   -0.525172
 H   -2.715245    4.278696   -0.320490
 H   -4.971446    0.521888    0.790782
 H   -5.007177    1.687089   -0.564419
 H   -5.932397    0.159107   -0.672807
 H   -4.402797   -2.262720    0.812955
 H   -4.620601   -2.347555   -0.958686
 H   -4.166569   -3.814207   -0.040687
 H   -0.418382   -2.299625    0.802482
