54 
3fqk_ligand_xtb.xyz
 C   -3.060020    3.395854    0.705622
 C   -3.125896    2.036194    0.056600
 C   -3.127272    3.289987   -0.779309
 C    3.724672   -0.834640   -0.075641
 C    4.707136   -0.092839   -0.736358
 C    5.999097   -0.569986   -0.830372
 C    6.302791   -1.798528   -0.268260
 C    5.345871   -2.564592    0.374008
 C    4.056685   -2.078924    0.464535
 C   -1.952226    1.141944    0.056470
 C   -2.148903   -0.257096    0.122454
 C   -1.085638   -1.148212    0.141414
 C   -0.662733    1.645195    0.007747
 C    0.412647    0.765826    0.028471
 C    0.191354   -0.620184    0.099672
 O    1.369102   -1.287440    0.097589
 C    2.357864   -0.348941    0.022319
 C    1.837531    0.923218    0.000956
 C    2.518409    2.238585   -0.000041
 O    2.130964    3.181979   -0.658627
 N    3.578063    2.311196    0.844352
 C    4.385900    3.498877    0.966933
 N   -3.476545   -0.741310    0.136329
 S   -4.222822   -0.874154   -1.345918
 O   -5.629656   -0.991415   -1.106813
 O   -3.751019    0.177975   -2.187621
 C   -3.626887   -2.448752   -2.028134
 F    7.564136   -2.263965   -0.356166
 C   -3.899596   -1.664864    1.157845
 C   -3.959821   -0.971557    2.521478
 O   -4.264992   -1.950768    3.487006
 H   -2.128817    3.696544    1.161160
 H   -3.933875    3.736831    1.240145
 H   -4.066574    1.508102    0.126016
 H   -2.240905    3.506784   -1.354007
 H   -4.045833    3.549998   -1.280392
 H    4.448222    0.847941   -1.195893
 H    6.766853   -0.010880   -1.341120
 H    5.616060   -3.522249    0.789743
 H    3.292933   -2.658705    0.958780
 H   -1.241534   -2.214222    0.190041
 H   -0.468997    2.703058   -0.061021
 H    3.856431    1.494742    1.363736
 H    5.412297    3.304894    0.647879
 H    3.944017    4.258581    0.323876
 H    4.393381    3.856620    1.997842
 H   -3.898202   -3.246758   -1.350357
 H   -4.109480   -2.583124   -2.986979
 H   -2.555301   -2.366416   -2.150161
 H   -3.241698   -2.538001    1.248532
 H   -4.899392   -2.000082    0.879923
 H   -4.723430   -0.184659    2.494148
 H   -2.985552   -0.505169    2.731176
 H   -4.394281   -1.522934    4.339633
