54 
3fql_ligand_ani.xyz
 C   -3.044632    3.516691    0.520220
 C   -3.149582    2.147366   -0.093002
 C   -3.084638    3.366499   -0.968864
 C    3.699923   -0.839366   -0.063711
 C    4.674997   -0.245030   -0.866342
 C    5.958314   -0.776147   -0.937664
 C    6.243428   -1.913663   -0.200819
 C    5.289768   -2.546383    0.583603
 C    4.012133   -2.010535    0.637994
 C   -1.990200    1.206594   -0.035207
 C   -2.172413   -0.197680    0.084634
 C   -1.100253   -1.075563    0.183198
 C   -0.694297    1.706942   -0.086326
 C    0.389155    0.833795   -0.010830
 C    0.176589   -0.531518    0.115995
 O    1.353694   -1.196338    0.164118
 C    2.352121   -0.269963    0.029345
 C    1.821469    1.006175   -0.016259
 C    2.465091    2.338657    0.034278
 O    1.872398    3.356666   -0.305885
 N    3.739904    2.364123    0.511591
 C    4.484472    3.593547    0.658151
 N   -3.506442   -0.739978    0.143060
 S   -4.247181   -1.157413   -1.317301
 O   -5.575652   -1.636602   -0.978091
 O   -4.060422   -0.059715   -2.245862
 C   -3.311911   -2.549465   -1.933134
 F    7.482745   -2.429180   -0.255665
 C   -3.826935   -1.554965    1.318497
 C   -3.793447   -0.707272    2.580666
 O   -4.164354   -1.560120    3.644825
 H   -2.099024    3.795622    0.982014
 H   -3.922548    3.913312    1.020805
 H   -4.120503    1.662757   -0.015159
 H   -2.166576    3.540351   -1.527651
 H   -3.989612    3.657189   -1.494822
 H    4.430548    0.631213   -1.458604
 H    6.731395   -0.321829   -1.546139
 H    5.556783   -3.445103    1.131469
 H    3.246102   -2.496446    1.235232
 H   -1.261072   -2.146533    0.265863
 H   -0.497853    2.770491   -0.187875
 H    4.141100    1.496881    0.836293
 H    5.395204    3.579229    0.048564
 H    3.842410    4.407324    0.317987
 H    4.756679    3.769508    1.704544
 H   -3.352092   -3.361542   -1.202600
 H   -3.791720   -2.866537   -2.862523
 H   -2.280936   -2.244908   -2.133622
 H   -3.126814   -2.394505    1.422487
 H   -4.827716   -1.966566    1.175670
 H   -4.502658    0.126748    2.466314
 H   -2.786379   -0.280875    2.723761
 H   -4.198983   -1.036978    4.453868
