38 
3fr2_ligand_ani.xyz
 O    1.076084   -2.580985    0.320010
 C   -0.012289   -2.880615   -0.095089
 O   -0.198830   -4.076336   -0.704524
 C   -1.246692   -2.036433    0.019876
 C   -2.447115   -2.646692    0.392193
 C   -3.602220   -1.908052    0.673981
 C   -3.587029   -0.527351    0.581176
 C   -2.406894    0.103610    0.195337
 C   -2.067053    1.495164    0.022402
 C   -2.768640    2.688809    0.203305
 C   -2.117718    3.886706   -0.028357
 C   -0.770642    3.908736   -0.431990
 C   -0.062670    2.733308   -0.620423
 C   -0.735083    1.528658   -0.405801
 N   -0.246270    0.234576   -0.522692
 C   -1.245867   -0.642446   -0.121086
 C    0.991729   -0.054237   -1.207356
 C    2.251479    0.144676   -0.378769
 C    2.230626    0.629039    0.927405
 C    3.417608    0.806140    1.635000
 C    4.638538    0.494697    1.044493
 C    4.667942    0.001670   -0.256049
 C    3.479883   -0.172591   -0.959346
 H   -1.084501   -4.104152   -1.091691
 H   -2.471984   -3.728462    0.512822
 H   -4.512582   -2.424667    0.966062
 H   -4.477454    0.055324    0.806134
 H   -3.808440    2.679547    0.522840
 H   -2.649638    4.824508    0.108424
 H   -0.279739    4.864008   -0.598883
 H    0.987746    2.736662   -0.902142
 H    1.045718    0.600670   -2.086541
 H    0.959856   -1.074026   -1.593141
 H    1.277804    0.861673    1.396715
 H    3.384348    1.187586    2.652563
 H    5.564303    0.633221    1.597464
 H    5.616474   -0.248514   -0.725280
 H    3.506590   -0.563614   -1.975804
