45 
3fr4_ligand_ani.xyz
 F   -4.827633    0.066361   -1.237389
 C   -3.485776    0.025450   -1.192778
 F   -3.103243   -0.970288   -2.024850
 F   -3.044260    1.175354   -1.750340
 C   -2.963871   -0.177883    0.206293
 C   -3.885795   -0.407724    1.224648
 C   -3.457918   -0.658199    2.524135
 C   -2.099191   -0.690485    2.802695
 C   -1.176232   -0.452167    1.783684
 C   -1.587880   -0.174495    0.477381
 C   -0.590272    0.111486   -0.645329
 N    0.798222   -0.114898   -0.284791
 C    1.355298   -1.381528   -0.262344
 C    0.565853   -2.646623   -0.370402
 C    1.425825   -3.830318    0.081519
 C    2.826774   -3.765539   -0.537315
 C    3.592215   -2.523152   -0.064889
 C    2.712868   -1.308601   -0.140915
 C    1.827335    0.803897   -0.120032
 C    3.050400    0.076504   -0.067990
 C    4.279439    0.748142    0.008710
 C    4.287334    2.126696    0.036337
 C    3.082169    2.841304    0.022606
 C    1.845437    2.204516    0.008666
 C    0.656142    3.107416    0.144834
 O    0.633334    4.213782   -0.328988
 O   -0.388483    2.673713    0.880412
 H   -4.944697   -0.389416    0.986584
 H   -4.184192   -0.836787    3.311212
 H   -1.749944   -0.891735    3.811939
 H   -0.112955   -0.507689    2.004149
 H   -0.696723    1.138982   -0.991590
 H   -0.836704   -0.521335   -1.503065
 H    0.255999   -2.796818   -1.416692
 H   -0.360358   -2.582379    0.218715
 H    0.933901   -4.773118   -0.183138
 H    1.515034   -3.818906    1.176516
 H    2.733411   -3.742172   -1.631759
 H    3.394067   -4.670667   -0.291463
 H    4.506638   -2.392094   -0.658826
 H    3.931642   -2.675338    0.972825
 H    5.210147    0.183771    0.036824
 H    5.229773    2.665195    0.075541
 H    3.083707    3.926759    0.046740
 H   -0.239819    1.773053    1.213741
