49 
3fr5_ligand_ani.xyz
 O    0.847965   -3.489513   -1.354070
 C    1.394139   -3.281021   -0.300351
 O    1.263565   -4.173105    0.704765
 C    2.293354   -2.120618    0.003213
 C    2.025539   -0.782087   -0.323678
 C    2.992282    0.224003   -0.050576
 C    2.426994    1.476425   -0.441110
 C    3.023325    2.843582   -0.285668
 C    2.236852    3.762706    0.666125
 C    0.905936    4.281154    0.111304
 C   -0.168563    3.224050   -0.170534
 C    0.164579    2.250239   -1.316893
 C    1.169682    1.214286   -0.915334
 C    4.225518   -0.103953    0.529320
 C    4.484831   -1.421036    0.844250
 C    3.523466   -2.408974    0.596580
 N    0.915406   -0.147090   -0.860230
 C   -0.378580   -0.706022   -1.181989
 C   -1.468532   -0.433369   -0.156453
 C   -2.797219   -0.506137   -0.565942
 C   -3.840506   -0.242900    0.318553
 C   -5.240386   -0.328726   -0.216628
 N   -6.189667    0.378718    0.477681
 O   -5.522801   -0.997666   -1.194857
 C   -3.554255    0.054838    1.650880
 C   -2.232372    0.110540    2.075087
 C   -1.193839   -0.126533    1.177492
 H    1.671018   -3.817798    1.507280
 H    3.094623    3.337170   -1.267385
 H    4.055471    2.752188    0.074552
 H    2.864031    4.627675    0.915203
 H    2.059583    3.229640    1.610014
 H    1.103050    4.832004   -0.820811
 H    0.498114    5.015915    0.816987
 H   -1.101090    3.745644   -0.417126
 H   -0.376876    2.638734    0.737443
 H    0.563036    2.827100   -2.164062
 H   -0.762017    1.789514   -1.675656
 H    4.957527    0.677171    0.726475
 H    5.431502   -1.694909    1.302771
 H    3.753933   -3.443299    0.842310
 H   -0.255539   -1.773629   -1.352921
 H   -0.691236   -0.286176   -2.145666
 H   -3.062422   -0.776164   -1.586306
 H   -7.094652    0.421138    0.031103
 H   -5.919809    1.185203    1.019670
 H   -4.362149    0.212107    2.361715
 H   -2.006110    0.344411    3.112474
 H   -0.163457   -0.065442    1.517182
