43 
3frg_ligand_xtb.xyz
 O   -3.200143   -0.883163   -1.445443
 S   -3.016149   -1.913664   -0.459448
 O   -3.678617   -3.173735   -0.659806
 C   -3.521836   -1.245337    1.154019
 C   -1.260845   -2.191112   -0.232954
 C   -0.775328   -3.469226    0.046203
 C    0.574000   -3.651006    0.187114
 C    1.457848   -2.554729    0.096470
 N    2.783545   -2.805863    0.139707
 C    3.606740   -1.809211   -0.012118
 C    3.239548   -0.455043   -0.116977
 C    4.244389    0.622967   -0.220398
 O    3.968665    1.758924   -0.596911
 N    5.514184    0.320758    0.127173
 C    0.940025   -1.243481   -0.089055
 C   -0.439982   -1.102260   -0.311882
 C    1.863619   -0.145070   -0.106746
 N    1.453831    1.139129   -0.166366
 C    0.296688    1.704819    0.375396
 C   -0.245923    2.819530   -0.259459
 C   -1.379107    3.432825    0.259105
 O   -1.991765    4.512495   -0.285480
 C   -1.483188    5.047234   -1.485140
 C   -1.956792    2.930269    1.428191
 C   -1.397782    1.841399    2.063618
 C   -0.270387    1.222823    1.551546
 H   -2.983715   -0.319458    1.314519
 H   -4.589068   -1.066435    1.119415
 H   -3.283443   -1.982115    1.909916
 H   -1.477721   -4.286013    0.100355
 H    1.003934   -4.626675    0.347704
 H    4.649828   -2.098901   -0.051774
 H    6.201395    1.052914    0.057540
 H    5.787724   -0.567249    0.503855
 H   -0.872989   -0.154294   -0.585701
 H    2.205238    1.783912   -0.436400
 H    0.230075    3.178201   -1.158025
 H   -0.461090    5.417811   -1.358119
 H   -1.508194    4.310524   -2.293908
 H   -2.138563    5.879459   -1.736225
 H   -2.835160    3.418362    1.817236
 H   -1.836729    1.474697    2.979847
 H    0.170698    0.377205    2.056852
