43 
3frg_ligand_dft.xyz
 O   -3.114656   -1.094386   -1.402353
 S   -2.820576   -2.078893   -0.365130
 O   -3.354323   -3.435850   -0.441811
 C   -3.323141   -1.369419    1.202271
 C   -1.046758   -2.198501   -0.192104
 C   -0.445300   -3.443310    0.082131
 C    0.920394   -3.508670    0.179060
 C    1.719461   -2.344744    0.046025
 N    3.075219   -2.509473    0.067437
 C    3.797458   -1.431150   -0.087599
 C    3.311537   -0.104685   -0.201131
 C    4.245153    1.049384   -0.267372
 O    3.906445    2.159987   -0.678002
 N    5.532558    0.832057    0.133388
 C    1.092571   -1.086190   -0.147023
 C   -0.309061   -1.050342   -0.323098
 C    1.922379    0.092440   -0.213084
 N    1.383188    1.340966   -0.325939
 C    0.211397    1.788623    0.342020
 C   -0.674739    2.608345   -0.360401
 C   -1.840928    3.054303    0.262904
 O   -2.768019    3.839227   -0.329063
 C   -2.586473    4.176618   -1.688775
 C   -2.116430    2.674478    1.582491
 C   -1.220234    1.868421    2.267085
 C   -0.046057    1.425260    1.660742
 H   -2.859968   -0.386427    1.315495
 H   -4.411009   -1.276163    1.167920
 H   -3.025068   -2.040959    2.009377
 H   -1.066913   -4.327966    0.171025
 H    1.435508   -4.449455    0.339576
 H    4.872850   -1.599364   -0.136158
 H    6.118846    1.653322    0.163751
 H    5.769124    0.079125    0.758817
 H   -0.812585   -0.129063   -0.587292
 H    2.079678    2.049081   -0.562263
 H   -0.448344    2.849588   -1.392070
 H   -1.672570    4.765400   -1.837399
 H   -2.551866    3.280191   -2.319909
 H   -3.451566    4.779824   -1.964683
 H   -3.031973    3.028014    2.043974
 H   -1.431683    1.587640    3.294652
 H    0.657049    0.797654    2.198052
