23 
3ft5_ligand_dft.xyz
 N    3.497373   -1.179330   -0.238190
 C    2.266313   -0.610768   -0.087799
 N    2.208394    0.725998   -0.172472
 C    1.018517    1.292354    0.033884
 C    0.966760    2.792631   -0.071962
 C   -0.114640    0.525988    0.329249
 N    1.242417   -1.444134    0.147550
 C    0.065367   -0.858604    0.356340
 C   -1.137262   -1.734852    0.570861
 C   -2.228231   -1.424675   -0.463304
 S   -2.798569    0.319210   -0.425224
 C   -1.479426    1.082705    0.606027
 H    4.215992   -0.605273   -0.648878
 H    3.522336   -2.169922   -0.419104
 H    1.959652    3.171785   -0.317624
 H    0.263917    3.107816   -0.851456
 H    0.638814    3.245034    0.870482
 H   -1.539677   -1.582970    1.580845
 H   -0.833286   -2.781339    0.484420
 H   -3.103153   -2.053878   -0.281949
 H   -1.851165   -1.645197   -1.465768
 H   -1.532648    2.152519    0.394402
 H   -1.745347    0.947652    1.660221
