29 
3fts_ligand_ani.xyz
 C    3.955439   -1.119740    0.168950
 C    4.496271    0.145652   -0.037705
 C    3.638460    1.222792   -0.224353
 C    2.254050    1.054243   -0.201840
 C    1.718398   -0.216558    0.014214
 C    2.574289   -1.306021    0.192124
 C    0.262997   -0.457911    0.051180
 C   -0.695548    0.465023    0.209394
 C   -2.146262    0.234476    0.100858
 C   -2.681454   -0.895952   -0.529976
 C   -4.049405   -1.090710   -0.615510
 C   -4.919799   -0.149163   -0.065284
 C   -4.410754    0.987826    0.561743
 C   -3.036390    1.170799    0.634091
 O   -6.253011   -0.394967   -0.175669
 O    4.218484    2.437535   -0.428960
 O    4.837018   -2.142024    0.341807
 H    5.570813    0.288239   -0.055754
 H    1.601909    1.906414   -0.381739
 H    2.161597   -2.299235    0.360615
 H   -0.020354   -1.506192   -0.035574
 H   -0.410797    1.484014    0.471810
 H   -2.016537   -1.627582   -0.983704
 H   -4.462879   -1.967607   -1.104852
 H   -5.085637    1.728219    0.989615
 H   -2.645934    2.058456    1.126525
 H   -6.744269    0.324977    0.239627
 H    3.525445    3.099697   -0.543884
 H    4.344959   -2.962281    0.472575
