31 
3ftu_ligand_xtb.xyz
 C   -3.860517   -1.233218   -0.008902
 C   -4.456352    0.020570    0.008117
 C   -3.654431    1.150318    0.013590
 C    0.668710    0.860872   -0.031993
 C   -0.175870   -0.417013   -0.022004
 C   -2.267387    1.032970    0.001660
 C   -1.669105   -0.216087   -0.014510
 C   -2.477640   -1.347304   -0.019972
 O   -4.264241    2.366499    0.031140
 O   -4.671228   -2.325520   -0.013245
 C    2.128712    0.506946   -0.013134
 C    2.787772    0.289584    1.191357
 C    4.118197   -0.075184    1.222280
 C    4.821966   -0.232336    0.032681
 O    6.134043   -0.591168    0.100190
 C    4.173693   -0.019215   -1.176835
 C    2.839348    0.344524   -1.193518
 H   -5.528532    0.113479    0.017588
 H    0.428983    1.460964    0.847773
 H    0.441071    1.440478   -0.928610
 H    0.096862   -1.007383    0.858197
 H    0.088609   -1.017057   -0.898214
 H   -1.669360    1.932410    0.005760
 H   -2.020842   -2.328547   -0.032192
 H   -3.597679    3.064044    0.035897
 H   -4.134883   -3.127398   -0.022204
 H    2.250337    0.411614    2.120891
 H    4.632188   -0.241678    2.155451
 H    6.498837   -0.661843   -0.789951
 H    4.716186   -0.137586   -2.106212
 H    2.347064    0.507463   -2.141750
