26 
3ftv_ligand_ani.xyz
 N    4.033347   -0.018827   -0.333502
 C   -1.587301    0.379973   -0.863885
 C   -2.672746    1.228158   -1.059189
 C   -1.647691   -0.632825    0.105430
 C   -2.811650   -0.752071    0.878729
 C   -3.829369    1.095785   -0.298334
 C   -3.887315    0.099826    0.672727
 C    2.986925   -0.816566   -0.540331
 C    1.477435    0.641485    0.571030
 C    2.556275    1.488539    0.800447
 C    3.809460    1.117085    0.328771
 C    0.593204   -1.543526   -0.480860
 C    1.683115   -0.547425   -0.122307
 N   -0.605671   -1.526086    0.314367
 H   -0.676190    0.531950   -1.438246
 H   -2.608776    2.004807   -1.818008
 H   -2.863252   -1.530798    1.637410
 H   -4.672397    1.762192   -0.456802
 H   -4.780818   -0.016065    1.281282
 H    3.196067   -1.740988   -1.079754
 H    0.487184    0.914224    0.927554
 H    2.421341    2.423514    1.335983
 H    4.675640    1.757163    0.488760
 H    1.018908   -2.552861   -0.420784
 H    0.303357   -1.410851   -1.532011
 H   -0.516847   -1.878521    1.255206
