26 
3ftw_ligand_ani.xyz
 N    4.028237   -0.011847   -0.359015
 C   -1.579367    0.392207   -0.852059
 C   -2.663665    1.240592   -1.052538
 C   -1.649077   -0.628559    0.108337
 C   -2.821312   -0.755519    0.867904
 C   -3.829081    1.099400   -0.306739
 C   -3.896492    0.095439    0.655428
 C    2.980885   -0.809382   -0.561958
 C    1.485594    0.626324    0.596900
 C    2.565689    1.472549    0.823318
 C    3.811997    1.112607    0.325229
 C    0.590483   -1.544665   -0.474884
 C    1.683177   -0.550741   -0.118472
 N   -0.608153   -1.522280    0.319955
 H   -0.662393    0.547985   -1.416244
 H   -2.591732    2.023715   -1.803961
 H   -2.879811   -1.539752    1.620411
 H   -4.671877    1.764822   -0.470043
 H   -4.797265   -0.027793    1.251718
 H    3.183905   -1.724134   -1.119983
 H    0.500202    0.890969    0.972410
 H    2.437052    2.397967    1.376491
 H    4.678768    1.752923    0.481326
 H    1.012765   -2.555363   -0.413589
 H    0.301596   -1.412222   -1.526388
 H   -0.524784   -1.881740    1.258481
