23 
3fu0_ligand_dft.xyz
 F    4.665937    1.019576    0.125778
 C    3.429609    0.510568    0.089782
 C    2.378541    1.268879    0.583817
 C    1.095214    0.738586    0.532960
 C    3.243317   -0.761981   -0.435884
 C    1.959739   -1.283784   -0.464740
 C    0.871865   -0.536612    0.002580
 C   -0.475946   -1.178529   -0.022656
 O   -0.588969   -2.390743   -0.039484
 C   -1.714408   -0.324251   -0.032917
 C   -1.796307    0.893726   -0.707295
 C   -3.011715    1.573094   -0.709581
 N   -4.108133    1.135167   -0.089896
 C   -4.020151   -0.036127    0.546941
 C   -2.863212   -0.804161    0.594718
 H    2.573270    2.250192    1.001290
 H    0.268327    1.317353    0.931627
 H    4.096205   -1.320574   -0.804740
 H    1.778098   -2.281259   -0.850703
 H   -0.943183    1.301575   -1.239659
 H   -3.106553    2.519711   -1.236883
 H   -4.926452   -0.379050    1.040627
 H   -2.843742   -1.760811    1.105233
