21 
3fu3_ligand_ani.xyz
 O   -4.840717    0.171298    0.022716
 C   -1.508963   -1.234891    0.239440
 C   -2.888310   -1.122759    0.246382
 C   -3.482756    0.117606    0.009608
 C   -1.305748    1.113014   -0.223175
 C   -2.686789    1.238013   -0.225337
 C   -0.694558   -0.121396    0.001174
 C    0.776328   -0.226773   -0.018107
 C    2.789266    0.667229    0.088989
 C    1.493644   -1.369012   -0.186076
 S    3.190578   -1.012242   -0.159471
 N    1.521846    0.934528    0.119707
 N    3.774581    1.622839    0.176818
 H   -5.123524    1.077852   -0.151153
 H   -1.064336   -2.207743    0.436050
 H   -3.522165   -1.984193    0.431589
 H   -0.678156    1.981171   -0.397012
 H   -3.144750    2.209145   -0.407395
 H    1.139074   -2.376215   -0.352162
 H    4.627957    1.345427    0.640323
 H    3.414715    2.512274    0.496510
