16 
3fue_ligand_dft.xyz
 C   22.499990   -3.011097   -5.531528
 C   22.869037   -3.237099   -4.237661
 C   24.312915    0.037432   -4.838952
 C   24.930115    0.374851   -3.648376
 C   24.888866   -0.508630   -2.555220
 C   24.245989   -1.729035   -2.611510
 C   23.614423   -2.087178   -3.811749
 C   23.659099   -1.194802   -4.908221
Cl   25.688547   -0.029936   -1.068087
 N   22.971936   -1.784465   -5.943024
 H   21.930319   -3.631328   -6.208694
 H   22.639580   -4.116281   -3.653407
 H   24.340738    0.714659   -5.687183
 H   25.449509    1.321201   -3.548510
 H   24.232508   -2.387997   -1.750136
 H   22.832428   -1.383297   -6.854743
