16 
3fuf_ligand_xtb.xyz
 C   -0.248801    1.633915   -0.000573
 C   -1.547552    1.174961   -0.000418
 C   -1.801398   -0.197913   -0.000262
 C   -0.814320   -1.153367   -0.000793
 C    0.506117   -0.702688   -0.001576
 C    0.771392    0.690534   -0.001086
 C    2.719706   -0.382312    0.001262
 C    1.768974   -1.356296   -0.000482
 F   -3.097212   -0.597039    0.001494
 N    2.126909    0.849111    0.000511
 H   -0.034132    2.691801    0.000785
 H   -2.381846    1.857998    0.000660
 H   -1.059441   -2.203091    0.000068
 H    3.789039   -0.474110    0.004331
 H    1.936908   -2.414320   -0.000540
 H    2.611317    1.730293    0.001239
