17 
3fuh_ligand_ani.xyz
 O   27.095326   86.587122    0.254244
 C   26.261711   86.743790   -0.814469
 C   26.347412   87.862542   -1.667971
 C   25.494112   88.005556   -2.748670
 C   24.545138   87.003772   -2.965061
 N   23.579830   86.874350   -3.939931
 C   25.319609   85.749986   -1.028769
 C   24.447433   85.878795   -2.117426
 C   23.375425   85.067265   -2.631032
 C   22.881080   85.704584   -3.729506
 H   27.698401   87.338921    0.291240
 H   27.098348   88.627523   -1.472115
 H   25.565300   88.870750   -3.403277
 H   25.280752   84.901152   -0.351246
 H   23.027683   84.128503   -2.221662
 H   22.075288   85.423136   -4.394856
 H   23.413150   87.526253   -4.688493
