36 
3fvg_ligand_dft.xyz
 O    4.290683    0.425980    1.115512
 C    3.786078   -0.191979    0.223158
 O    4.366066   -1.189437   -0.462446
 C    2.386726    0.102991   -0.310479
 N    1.810071   -1.099086   -1.006415
 C    1.463662    0.626406    0.802597
 C   -0.035560    0.557107    0.468926
 C   -0.954036    1.127260    1.555744
 C   -0.265275    1.204468   -0.908657
 O   -0.510921    2.499944   -0.856611
 O   -0.101074    0.597958   -1.955493
 O   -0.383145   -0.823658    0.367453
 C   -1.611782   -1.093284    1.086087
 C   -2.207762    0.298577    1.312570
 C   -2.492606   -2.039989    0.286815
 C   -3.131790   -1.337223   -0.910885
 C   -3.769119   -0.034854   -0.449291
 O   -2.787894    0.815705    0.135368
 H    5.269578   -1.317445   -0.124292
 H    2.502363    0.856157   -1.097406
 H    2.523471   -1.584134   -1.557419
 H    1.378823   -1.740346   -0.332209
 H    1.020374   -0.761255   -1.604971
 H    1.618893    0.043086    1.715031
 H    1.765001    1.653871    1.022771
 H   -0.537361    0.920222    2.546405
 H   -1.130827    2.197451    1.453333
 H   -0.612042    2.834491   -1.764604
 H   -1.343705   -1.540253    2.051485
 H   -2.920657    0.310810    2.147420
 H   -3.275671   -2.405677    0.963090
 H   -1.908907   -2.914594   -0.018739
 H   -3.884219   -1.982549   -1.374157
 H   -2.373960   -1.110047   -1.668411
 H   -4.571734   -0.226048    0.279360
 H   -4.190855    0.531043   -1.281559
