37 
3fvk_ligand_ani.xyz
 O   -4.517126    0.553452   -0.956367
 C   -3.917695   -0.214524   -0.251150
 O   -4.431951   -1.392920    0.168938
 C   -2.521756   -0.007962    0.315165
 N   -1.915181   -1.325900    0.673872
 C   -1.653279    0.801134   -0.660869
 C   -0.156307    0.760558   -0.338925
 C    0.706958    1.626729   -1.274771
 C    0.066225    1.066780    1.149801
 O    0.305545    2.351724    1.410369
 O   -0.023284    0.245716    2.044211
 O    0.336429   -0.598266   -0.553313
 C    1.462452   -0.599563   -1.449195
 C    1.999871    0.823651   -1.328056
 C    2.476008   -1.663801   -1.073929
 C    3.198412   -1.346261    0.236394
 O    2.402532   -1.589853    1.374635
 C    3.692040    0.096021    0.185024
 O    2.624755    0.990198   -0.063600
 H   -5.324926   -1.454062   -0.207728
 H   -2.655975    0.566407    1.237424
 H   -2.655032   -2.038885    0.767433
 H   -1.400131   -1.182988    1.558237
 H   -1.227711   -1.570376   -0.060569
 H   -2.000948    1.836844   -0.670145
 H   -1.781502    0.401744   -1.672567
 H    0.844129    2.641435   -0.902434
 H    0.248207    1.662710   -2.270439
 H    0.443379    2.409499    2.370736
 H    1.097933   -0.787465   -2.470801
 H    2.676679    1.111898   -2.145886
 H    1.983943   -2.638910   -0.996706
 H    3.216682   -1.726311   -1.884130
 H    4.068489   -2.008039    0.328202
 H    1.593726   -1.062712    1.283169
 H    4.471700    0.198163   -0.589112
 H    4.114847    0.385368    1.152289
