37 
3fvn_ligand_ani.xyz
 O   -0.393596   -2.745690    0.826201
 C   -0.035231   -1.462634    0.931728
 O    0.210835   -0.961277    2.009784
 C    0.127414   -0.749939   -0.425193
 C    1.611293   -0.676591   -0.803436
 C    2.518567   -0.118534    0.303166
 N    1.910587    1.036619    1.030185
 C    3.871804    0.281453   -0.264223
 O    4.430442   -0.231885   -1.197609
 O    4.401899    1.303173    0.446619
 O   -0.371921    0.597852   -0.233128
 C   -1.529322    0.840264   -1.032601
 C   -2.523471    1.725592   -0.303534
 O   -1.827303    2.883696    0.106568
 C   -3.166655    0.971847    0.858072
 C   -3.717552   -0.350662    0.346489
 O   -2.688757   -1.139393   -0.223250
 C   -2.058941   -0.557760   -1.350337
 C   -0.755698   -1.322353   -1.550503
 H   -0.474419   -3.077870    1.735653
 H    1.966765   -1.670269   -1.088209
 H    1.692117   -0.033938   -1.687400
 H    2.723547   -0.907652    1.033246
 H    1.444472    0.633728    1.860498
 H    2.643391    1.716493    1.284266
 H    1.177236    1.449758    0.426245
 H    5.266772    1.496375    0.049528
 H   -1.214646    1.348585   -1.956204
 H   -3.314718    1.986284   -1.029856
 H   -2.451630    3.457935    0.566808
 H   -3.978193    1.572726    1.290249
 H   -2.420362    0.796777    1.639126
 H   -4.515743   -0.167101   -0.394774
 H   -4.142062   -0.950508    1.156860
 H   -2.725136   -0.578416   -2.226450
 H   -0.876956   -2.403003   -1.486694
 H   -0.320578   -1.062138   -2.523422
