37 
3fvn_ligand_xtb.xyz
 O   -0.434115   -2.613821    0.934516
 C   -0.184502   -1.335104    0.899823
 O   -0.087138   -0.633106    1.892000
 C    0.120651   -0.770944   -0.501714
 C    1.631559   -0.818409   -0.771712
 C    2.449954   -0.170092    0.357640
 N    1.747435    0.990924    0.957310
 C    3.841505    0.238778   -0.163198
 O    4.425394   -0.344990   -1.019520
 O    4.293560    1.309613    0.488527
 O   -0.266517    0.604722   -0.520272
 C   -1.524940    0.757426   -1.169327
 C   -2.420935    1.725130   -0.383672
 O   -1.639912    2.866771   -0.113982
 C   -2.955084    1.061430    0.889252
 C   -3.546030   -0.298800    0.528195
 O   -2.555964   -1.135150   -0.038872
 C   -2.067518   -0.675370   -1.279520
 C   -0.774830   -1.451947   -1.540595
 H   -0.667832   -2.925892    1.826348
 H    1.958733   -1.848123   -0.909503
 H    1.815339   -0.283570   -1.705605
 H    2.626710   -0.899631    1.158094
 H    0.933576    0.599371    1.532371
 H    2.394583    1.559498    1.512599
 H    1.290745    1.556530    0.223462
 H    5.186689    1.556079    0.194530
 H   -1.345300    1.177979   -2.167592
 H   -3.268128    1.980195   -1.040116
 H   -2.200379    3.543463    0.282241
 H   -3.716026    1.689630    1.351623
 H   -2.133919    0.926775    1.595852
 H   -4.382739   -0.180044   -0.172932
 H   -3.895909   -0.824832    1.417345
 H   -2.825423   -0.776196   -2.064240
 H   -0.895551   -2.514508   -1.355750
 H   -0.408657   -1.278083   -2.550100
