93 
3fwv_ligand_xtb.xyz
 C    3.584004   -1.954521    1.335086
 O    4.332678   -2.197056    0.396629
 C    3.615281   -2.737487    2.621398
 N    2.666490   -0.969211    1.321105
 C    2.415471   -0.043568    0.237078
 C    1.687446   -0.628178   -0.981259
 O    1.624584    0.020670   -2.021820
 C    3.689363    0.684226   -0.217804
 C    4.062813    1.787163    0.756490
 S    5.539232    2.719469    0.241423
 C    4.899800    3.527503   -1.253551
 N    1.091002   -1.810786   -0.826079
 C    0.262133   -2.372386   -1.875079
 C   -1.118547   -2.817944   -1.376473
 O   -1.720173   -3.741404   -1.885652
 C    0.950997   -3.499084   -2.660196
 C    1.282720   -4.731297   -1.809021
 C    2.298588   -4.357549   -0.761894
 O    2.059710   -4.367595    0.435007
 O    3.443380   -3.988770   -1.269357
 N   -1.621142   -2.081441   -0.367107
 C   -2.976344   -2.295035    0.108679
 C   -3.561117   -0.906474    0.387061
 O   -3.286047   -0.275162    1.393168
 C   -3.027064   -3.221509    1.337436
 C   -1.988951   -2.862225    2.400838
 C   -0.589224   -3.150085    1.919310
 O   -0.415818   -4.376351    1.476097
 O    0.309453   -2.333067    1.949038
 N   -4.358877   -0.451282   -0.594073
 C   -4.964771    0.876570   -0.673717
 C   -3.879212    1.908330   -1.037027
 O   -3.883281    2.486205   -2.103131
 C   -5.755956    1.255972    0.590038
 C   -6.863861    0.234671    0.838826
 C   -6.344110    2.653668    0.417461
 N   -2.952549    2.098347   -0.077655
 C   -1.721252    2.801811   -0.358628
 C   -0.647767    1.779312   -0.724154
 O   -0.657541    0.652214   -0.274549
 C   -1.286376    3.610044    0.875099
 C    0.011051    4.343923    0.674280
 C    0.153150    5.266537   -0.355780
 C    1.080721    4.133577    1.534622
 C    1.339437    5.956774   -0.524035
 C    2.263424    4.838225    1.379971
 C    2.396952    5.748411    0.345911
 O    0.258032    2.231070   -1.552544
 H    2.768910   -3.420974    2.629204
 H    3.543344   -2.077715    3.481334
 H    4.532905   -3.316347    2.672069
 H    1.976100   -0.991088    2.056942
 H    1.717228    0.706785    0.632155
 H    3.494660    1.110267   -1.203215
 H    4.504531   -0.033524   -0.309406
 H    3.247608    2.505099    0.863998
 H    4.316747    1.377845    1.734141
 H    4.834420    2.811146   -2.067089
 H    5.609310    4.307024   -1.510079
 H    3.927166    3.961654   -1.039324
 H    1.088123   -2.227899    0.098565
 H    0.084238   -1.548342   -2.583141
 H    1.867348   -3.108014   -3.103576
 H    0.270148   -3.802032   -3.455806
 H    1.715265   -5.493552   -2.457703
 H    0.380109   -5.124437   -1.341518
 H    4.015253   -3.501090   -0.615304
 H   -1.143566   -1.244154   -0.054659
 H   -3.525541   -2.789237   -0.703081
 H   -2.851737   -4.244391    1.000976
 H   -4.026880   -3.163165    1.770254
 H   -2.167059   -3.471587    3.288997
 H   -2.063242   -1.807951    2.666068
 H    0.516094   -4.507016    1.139769
 H   -4.457531   -1.022237   -1.418822
 H   -5.658001    0.852461   -1.520703
 H   -5.081048    1.254508    1.448462
 H   -6.448246   -0.759199    0.986931
 H   -7.425314    0.504810    1.729457
 H   -7.551667    0.202793   -0.003860
 H   -7.025408    2.677751   -0.430198
 H   -6.894247    2.940446    1.309992
 H   -5.560585    3.386650    0.244104
 H   -2.936263    1.458056    0.712668
 H   -1.889680    3.452552   -1.221006
 H   -2.081630    4.326190    1.098794
 H   -1.200214    2.924252    1.721531
 H   -0.671645    5.451232   -1.027203
 H    0.983905    3.421687    2.343434
 H    1.436906    6.666534   -1.332003
 H    3.081688    4.679410    2.067551
 H    3.319498    6.296177    0.223518
 H    0.893185    1.505457   -1.828196
