93 
3fwv_ligand_ani.xyz
 C    3.955063   -1.420553    1.353000
 O    4.781274   -1.492272    0.438146
 C    4.073511   -2.315965    2.560659
 N    2.912004   -0.557889    1.336701
 C    2.566838    0.320553    0.227360
 C    1.828111   -0.345725   -0.954619
 O    1.626568    0.330775   -1.971053
 C    3.742148    1.144307   -0.314630
 C    4.428332    1.982414    0.758415
 S    5.779345    3.014251    0.128434
 C    4.861322    4.268720   -0.791455
 N    1.346646   -1.599405   -0.816301
 C    0.581498   -2.245271   -1.876557
 C   -0.708548   -2.895033   -1.347066
 O   -1.083906   -3.995176   -1.736327
 C    1.390492   -3.245556   -2.709858
 C    1.972816   -4.432098   -1.927639
 C    2.961360   -3.988426   -0.879011
 O    2.797167   -4.150403    0.324614
 O    4.012241   -3.369081   -1.386411
 N   -1.422672   -2.160264   -0.462343
 C   -2.669090   -2.667445    0.079370
 C   -3.538814   -1.435757    0.376201
 O   -3.404664   -0.787805    1.414529
 C   -2.489343   -3.568340    1.315512
 C   -1.485215   -3.058463    2.354218
 C   -0.036811   -3.165026    1.931657
 O    0.270682   -4.334931    1.381143
 O    0.778691   -2.276298    2.097598
 N   -4.421316   -1.101090   -0.594792
 C   -5.210232    0.138463   -0.638298
 C   -4.314211    1.354147   -0.936566
 O   -4.434971    1.970930   -1.984123
 C   -6.142431    0.325780    0.574560
 C   -7.079853   -0.873168    0.725824
 C   -6.938311    1.624159    0.412730
 N   -3.414936    1.698087    0.030134
 C   -2.313975    2.582331   -0.283589
 C   -1.067934    1.759872   -0.596612
 O   -0.766989    0.763467    0.038523
 C   -2.042026    3.536483    0.897249
 C   -0.861902    4.453136    0.672430
 C   -0.939015    5.503262   -0.244021
 C    0.346694    4.221214    1.326750
 C    0.165634    6.313725   -0.491408
 C    1.458794    5.020970    1.076610
 C    1.366798    6.070373    0.167421
 O   -0.343598    2.256072   -1.587435
 H    3.978073   -3.348833    2.217566
 H    3.310343   -2.107856    3.314223
 H    5.068446   -2.188943    2.996170
 H    2.155779   -0.753755    1.979865
 H    1.817028    1.012951    0.634796
 H    3.339195    1.791465   -1.101527
 H    4.472050    0.472543   -0.773733
 H    3.708836    2.627192    1.280614
 H    4.888679    1.338630    1.514359
 H    4.278938    3.839097   -1.612118
 H    5.601936    4.950587   -1.217983
 H    4.197555    4.843289   -0.137888
 H    1.412011   -2.058442    0.086538
 H    0.281376   -1.420166   -2.539115
 H    2.205209   -2.699664   -3.195143
 H    0.733547   -3.634380   -3.491100
 H    2.494970   -5.094497   -2.627373
 H    1.173451   -5.001777   -1.447338
 H    4.492530   -2.898943   -0.664342
 H   -1.099094   -1.239954   -0.177660
 H   -3.133912   -3.279882   -0.701598
 H   -2.180932   -4.557632    0.968134
 H   -3.467614   -3.677709    1.795314
 H   -1.584679   -3.656177    3.269183
 H   -1.692136   -2.017928    2.611828
 H    1.221826   -4.337372    1.113778
 H   -4.365441   -1.611370   -1.462933
 H   -5.834399    0.055675   -1.531581
 H   -5.525423    0.395904    1.475203
 H   -6.528395   -1.800129    0.908118
 H   -7.762713   -0.714274    1.567353
 H   -7.688842   -1.009840   -0.177258
 H   -7.525790    1.605564   -0.514357
 H   -7.633266    1.756684    1.248629
 H   -6.282714    2.500337    0.377701
 H   -3.290385    1.035735    0.793822
 H   -2.585203    3.152737   -1.176643
 H   -2.959921    4.111718    1.062426
 H   -1.873701    2.928711    1.795881
 H   -1.873848    5.684302   -0.773288
 H    0.412125    3.394844    2.032337
 H    0.090083    7.131549   -1.203430
 H    2.394354    4.826477    1.599025
 H    2.228910    6.705133   -0.028858
 H    0.433395    1.663570   -1.741797
