20 
3fxb_ligand_xtb.xyz
 O   -1.500362   -0.035488   -1.411213
 C   -1.665066   -0.282962   -0.244808
 O   -2.759256   -0.900805    0.206347
 C   -0.681200    0.013863    0.875288
 C   -0.247747    1.488293    0.867233
 C    0.631579    1.745402   -0.353264
 N    1.688163    0.760314   -0.364510
 C    1.460747   -0.507214    0.078487
 C    2.583498   -1.477218   -0.133230
 N    0.420096   -0.904579    0.693297
 H   -3.344314   -1.141061   -0.530909
 H   -1.169251   -0.243215    1.821572
 H   -1.116743    2.146124    0.855720
 H    0.327140    1.674803    1.776286
 H    0.021305    1.675816   -1.263721
 H    1.077034    2.743749   -0.302959
 H    2.459437    0.915290   -0.992913
 H    3.510363   -1.080843    0.277173
 H    2.340154   -2.413643    0.356981
 H    2.723139   -1.657807   -1.198039
