45 
3fyj_ligand_dft.xyz
 C    0.545285   -0.979947    0.128714
 C    5.062191    0.877019    0.396421
 C    0.493031    2.741542   -0.037835
 C   -0.833666    3.039242    0.010551
 C    1.904548   -1.160257    0.167562
 C    6.436447    0.702925    0.383781
 C    4.867451   -1.374588   -0.347087
 C    0.004005    0.316684   -0.037604
 C   -1.395089    0.644191   -0.101925
 C    4.235915   -0.188258    0.033897
 C    0.944503    1.384139   -0.049412
 C   -2.547875   -0.225776   -0.232359
 C   -1.779133    1.981419   -0.019240
 C    2.760116   -0.040500    0.040750
 C   -3.736404    0.464219   -0.125273
 C    6.968631   -0.531726    0.002293
 C   -5.167490    0.090807   -0.088499
 C   -3.529763   -2.358795   -0.944757
 C   -4.699221   -2.404434    0.046630
 C    8.452375   -0.780013   -0.031971
 C   -4.247850   -2.668092    1.484530
 N    6.186044   -1.554406   -0.365078
 N    2.282996    1.189033   -0.033502
 N   -2.401201   -1.586335   -0.460536
 N   -5.536368   -1.223379   -0.073986
 O   -6.018762    0.973707   -0.057450
 S   -3.491094    2.189362    0.028166
 H   -0.106279   -1.829348    0.299716
 H    4.612411    1.822085    0.682126
 H    1.252617    3.515476   -0.039390
 H   -1.175113    4.068660    0.055997
 H    2.315890   -2.149033    0.337783
 H    7.098413    1.514531    0.669842
 H    4.280099   -2.229009   -0.679511
 H   -3.908188   -1.979094   -1.905950
 H   -3.165274   -3.378598   -1.098442
 H   -5.333474   -3.235634   -0.280983
 H    9.013826    0.063753    0.378238
 H    8.782447   -0.949643   -1.062319
 H    8.697581   -1.680674    0.538742
 H   -3.636293   -3.575005    1.537632
 H   -3.653575   -1.832368    1.862761
 H   -5.118281   -2.794860    2.134746
 H   -1.561992   -1.787470   -0.986614
 H   -6.535558   -1.336435    0.021288
