45 
3fyj_ligand_ani.xyz
 C    0.521447   -0.955787    0.200480
 C    5.043244    0.872765    0.410713
 C    0.487372    2.763502   -0.035431
 C   -0.840041    3.062346   -0.024290
 C    1.872689   -1.144574    0.221681
 C    6.413318    0.688111    0.383279
 C    4.820807   -1.373958   -0.347373
 C   -0.004443    0.347981    0.013594
 C   -1.407129    0.672784   -0.101739
 C    4.209182   -0.185897    0.048779
 C    0.931236    1.400803   -0.015770
 C   -2.548611   -0.201877   -0.276704
 C   -1.793093    2.007586   -0.032904
 C    2.733819   -0.022166    0.078339
 C   -3.741643    0.479409   -0.135484
 C    6.931570   -0.546847   -0.024732
 C   -5.163947    0.054280   -0.031246
 C   -3.525518   -2.330266   -1.016998
 C   -4.609980   -2.442569    0.055499
 C    8.417188   -0.782011   -0.070331
 C   -4.034611   -2.747948    1.436355
 N    6.139047   -1.559543   -0.390627
 N    2.276977    1.205671    0.004494
 N   -2.378053   -1.549793   -0.582121
 N   -5.480979   -1.274670    0.052614
 O   -6.046781    0.901077    0.002285
 S   -3.511659    2.198409   -0.003630
 H   -0.152068   -1.792387    0.349026
 H    4.600429    1.820802    0.705505
 H    1.252035    3.534014   -0.038819
 H   -1.174279    4.096391   -0.013417
 H    2.282651   -2.139572    0.364325
 H    7.088074    1.491233    0.669305
 H    4.219940   -2.223403   -0.669676
 H   -3.990257   -1.914183   -1.924234
 H   -3.155854   -3.334165   -1.255169
 H   -5.259850   -3.274459   -0.243360
 H    8.853973   -0.721592    0.933385
 H    8.917592   -0.025867   -0.686219
 H    8.625159   -1.770553   -0.484555
 H   -3.433091   -3.662923    1.406370
 H   -3.391443   -1.929554    1.774167
 H   -4.842125   -2.884137    2.161513
 H   -1.585046   -1.675866   -1.200047
 H   -6.471116   -1.422591    0.186858
