47 
3g0b_ligand_ani.xyz
 O   -2.319367    1.441504    1.631251
 C   -1.447838    1.590330    0.794531
 N   -1.462507    2.661266   -0.079186
 C   -2.603992    3.562493    0.031446
 N   -0.402588    0.683558    0.645020
 C   -0.609696   -0.642882    1.264694
 C   -1.725234   -1.449045    0.617278
 C   -1.567714   -2.039344   -0.644985
 C   -0.350704   -1.911996   -1.416666
 N    0.596718   -1.849125   -2.080621
 C   -2.601347   -2.791812   -1.213669
 C   -3.798194   -2.958879   -0.531439
 C   -3.967981   -2.367624    0.717458
 C   -2.940385   -1.616375    1.278463
 C    0.721861    1.021586   -0.094745
 C    0.674317    2.037823   -0.990034
 C   -0.474426    2.914399   -1.056337
 O   -0.612040    3.826328   -1.855003
 N    1.878129    0.287272    0.201568
 C    2.898067    0.321637   -0.846878
 C    3.862188   -0.838359   -0.606563
 N    3.062301   -2.100657   -0.661619
 C    4.524808   -0.663361    0.765728
 C    3.505325   -0.469809    1.893392
 C    2.470890    0.590452    1.526586
 H   -3.533518    3.005722   -0.098487
 H   -2.617665    4.032285    1.016741
 H   -2.490778    4.310292   -0.751238
 H   -0.856928   -0.470929    2.314270
 H    0.332262   -1.183110    1.203848
 H   -2.439215   -3.235507   -2.190376
 H   -4.599344   -3.546218   -0.971755
 H   -4.904177   -2.491439    1.255684
 H   -3.086189   -1.133538    2.242298
 H    1.493348    2.271075   -1.658032
 H    2.408356    0.201268   -1.814027
 H    3.455396    1.273440   -0.855956
 H    4.619833   -0.861916   -1.391625
 H    2.589070   -2.182373   -1.582416
 H    3.656524   -2.933825   -0.499132
 H    2.326413   -2.044633    0.068025
 H    5.170395    0.222807    0.706427
 H    5.183659   -1.514093    0.976934
 H    4.013562   -0.175464    2.818920
 H    2.997030   -1.416817    2.115405
 H    1.667219    0.628897    2.269540
 H    2.941955    1.589825    1.509283
