27 
3g0i_ligand_xtb.xyz
 C   -3.020272    2.034708    0.193474
 C   -2.172754    0.903992   -0.376636
 C   -0.757417    0.915351    0.198220
 C    0.105671   -0.213578   -0.375164
 C    1.535458   -0.215697    0.187515
 C    2.394384    0.926502   -0.352796
 C    3.826907    0.835495    0.159289
 C   -0.531658   -1.578272   -0.133717
 N   -0.729267   -1.896381    1.167184
 O   -0.826488   -2.339179   -1.027777
 H   -3.111471    1.938933    1.273665
 H   -2.568143    2.999558   -0.026850
 H   -4.018591    2.017870   -0.236505
 H   -2.118024    1.000968   -1.462559
 H   -2.647964   -0.054588   -0.158734
 H   -0.808610    0.835782    1.287459
 H   -0.290085    1.873664   -0.036657
 H    0.159930   -0.095706   -1.462105
 H    2.011419   -1.162930   -0.079221
 H    1.506575   -0.155100    1.278628
 H    1.968569    1.885518   -0.052841
 H    2.397150    0.888476   -1.443903
 H    3.849455    0.886870    1.245933
 H    4.283074   -0.102852   -0.148262
 H    4.425804    1.653225   -0.234408
 H   -1.127851   -2.792709    1.390519
 H   -0.476375   -1.279890    1.916665
