64 
3g15_ligand_ani.xyz
 C    5.709855   -0.839097    0.017333
 N    7.216105   -0.768792   -0.176406
 C    7.681371   -2.066662   -0.713602
 C    7.941543   -0.550001    1.115316
 C    7.550797    0.315011   -1.177377
 C    6.848216    1.622108   -0.850852
 O    5.443001    1.417985   -0.807029
 C    5.045427    0.528308    0.214273
 O    5.448928    1.026540    1.474266
 C    3.535726    0.390195    0.162067
 C    2.799763    0.715061   -0.976571
 C    1.420885    0.554725   -0.988617
 C    2.865978   -0.094364    1.284338
 C    1.488790   -0.248545    1.271715
 C    0.738008    0.076249    0.135561
 C   -0.738057   -0.077029    0.135473
 C   -1.488765    0.245379    1.272286
 C   -2.865951    0.091308    1.284652
 C   -1.420973   -0.553126   -0.989730
 C   -2.799881   -0.713370   -0.977990
 C   -3.535752   -0.390831    0.161388
 C   -5.045494   -0.528759    0.213274
 O   -5.449116   -1.029433    1.472267
 C   -5.709703    0.839130    0.018998
 O   -5.443208   -1.416385   -0.809780
 C   -6.848442   -1.620137   -0.854036
 C   -7.550827   -0.312253   -1.178017
 N   -7.215942    0.769513   -0.174907
 C   -7.680933    2.068507   -0.709582
 C   -7.941452    0.548284    1.116343
 H    5.299852   -1.315302   -0.877162
 H    5.503695   -1.478814    0.877577
 H    8.766239   -2.032583   -0.854702
 H    7.430194   -2.865721   -0.008935
 H    7.199212   -2.263836   -1.675629
 H    9.017177   -0.518712    0.908689
 H    7.726886   -1.392227    1.780472
 H    7.617307    0.373266    1.580605
 H    8.638644    0.432306   -1.196187
 H    7.212461   -0.041633   -2.153603
 H    7.028267    2.354089   -1.642387
 H    7.208004    2.036489    0.098451
 H    5.160074    1.950074    1.507660
 H    3.304633    1.101474   -1.856458
 H    0.859532    0.830517   -1.879028
 H    3.421654   -0.332861    2.187474
 H    0.984822   -0.643947    2.150231
 H   -0.984730    0.638900    2.151641
 H   -3.421588    0.327927    2.188291
 H   -0.859687   -0.827078   -1.880710
 H   -3.304795   -1.097892   -1.858631
 H   -5.160423   -1.953078    1.503865
 H   -5.299543    1.317017   -0.874520
 H   -5.503420    1.477099    0.880524
 H   -7.208363   -2.036335    0.094436
 H   -7.028633   -2.350574   -1.647058
 H   -7.212350    0.046210   -2.153553
 H   -8.638640   -0.429342   -1.197109
 H   -8.765773    2.034909   -0.850772
 H   -7.198712    2.267464   -1.671192
 H   -7.429618    2.866102   -0.003357
 H   -7.617400   -0.375932    1.579834
 H   -9.017068    0.517607    0.909626
 H   -7.726661    1.389172    1.783153
