41 
3g1m_ligand_ani.xyz
 C    6.668883    1.014039   -0.276796
 C    7.890857    0.306930   -0.496633
 C    7.679082   -1.020361   -0.715329
 S    6.012356   -1.433236   -0.640597
 C    5.563844    0.213153   -0.335652
 C    4.147611    0.718893   -0.226547
 C    3.143239   -0.274701    0.358249
 O    3.416038   -1.462433    0.460293
 N    1.931348    0.229637    0.740338
 C    1.495328    1.612935    0.589605
 C    0.094550    1.684022   -0.010916
 C    1.028544   -0.624496    1.509891
 C   -0.372763   -0.590731    0.919126
 C   -0.872934    0.850461    0.831218
 C   -2.279665    0.905352    0.324031
 N   -3.199444   -0.013151    0.362393
 O   -2.709821    2.053976   -0.208212
 N   -4.040747    1.873891   -0.551644
 C   -4.273871    0.640191   -0.192699
 C   -5.558403   -0.021150   -0.350163
 C   -6.726997    0.487195   -0.847749
 C   -7.777900   -0.475708   -0.839738
 C   -7.372748   -1.679745   -0.337332
 S   -5.721042   -1.668715    0.134503
 H    6.609030    2.081375   -0.088802
 H    8.873361    0.766973   -0.493537
 H    8.420364   -1.785841   -0.909877
 H    3.792427    1.011300   -1.227653
 H    4.164064    1.632369    0.380176
 H    2.191553    2.156091   -0.050253
 H    1.488469    2.110226    1.572354
 H    0.115940    1.292578   -1.034538
 H   -0.232363    2.726176   -0.066016
 H    0.999082   -0.279323    2.555992
 H    1.444104   -1.632695    1.501405
 H   -1.064975   -1.192151    1.516005
 H   -0.353557   -1.023057   -0.087904
 H   -0.896964    1.274844    1.848850
 H   -6.810040    1.510398   -1.198737
 H   -8.786131   -0.282241   -1.190272
 H   -7.963148   -2.578471   -0.219338
