33 
3g2i_ligand_ani.xyz
 O   -0.342468   -2.653447   -0.528054
 C   -0.741641   -1.433590    0.061058
 C   -2.257350   -1.417213    0.023634
 O   -2.800853   -2.432660    0.839560
 C   -2.790278   -0.086817    0.529463
 O   -4.187778   -0.007913    0.359116
 C   -2.154011    1.052321   -0.259749
 C   -2.522281    2.435345    0.261746
 O   -1.904982    3.437212   -0.512360
 O   -0.726548    0.982047   -0.181097
 C   -0.182341   -0.214833   -0.685206
 N    1.251041   -0.097758   -0.477532
 C    1.977972    0.840141    0.182669
 N    2.043918   -1.066819   -0.945740
 N    3.261592   -0.782034   -0.616131
 C    3.268321    0.383227    0.084002
 C    4.563457    0.984240    0.542235
 O    5.496082    0.017519    0.952715
 H    0.625764   -2.650626   -0.599156
 H   -0.410030   -1.367381    1.109493
 H   -2.583303   -1.546493   -1.024543
 H   -2.401506   -3.264333    0.546704
 H   -2.510362    0.018153    1.592357
 H   -4.561571   -0.785495    0.796841
 H   -2.465811    0.974616   -1.315180
 H   -3.603347    2.580718    0.194546
 H   -2.232712    2.510900    1.324217
 H   -0.967568    3.201580   -0.547800
 H   -0.370941   -0.311806   -1.763815
 H    1.538575    1.706595    0.655915
 H    4.380118    1.643173    1.397835
 H    4.962793    1.615155   -0.269937
 H    5.465339   -0.697468    0.300192
