45 
3g2k_ligand_xtb.xyz
 C    3.603104   -0.801932   -0.286693
 C    4.932673   -0.409397   -0.049972
 C    6.018551   -1.289568   -0.246270
 C    7.299845   -0.880726   -0.005302
 C    7.556192    0.425196    0.442414
 C    6.526280    1.301953    0.641034
 C    5.193195    0.911943    0.401241
 C    4.105174    1.789996    0.595320
 C    2.824295    1.386430    0.356702
 C    2.559282    0.072969   -0.090190
 C    1.196753   -0.362368   -0.336936
 C    0.005131    0.348193   -0.300097
 N    0.889044   -1.641115   -0.660448
 N   -0.370877   -1.752990   -0.818947
 N   -0.940344   -0.561988   -0.611251
 C   -2.370057   -0.415518   -0.675577
 O   -2.675312    0.898196   -0.315129
 C   -4.070579    1.178220   -0.328656
 C   -4.230099    2.661150    0.017608
 O   -3.675646    3.490409   -0.963694
 C   -4.808779    0.278591    0.667946
 O   -6.177715    0.560398    0.601140
 C   -4.531985   -1.190049    0.324125
 O   -5.154260   -1.989533    1.296509
 C   -3.021629   -1.449260    0.271161
 O   -2.831463   -2.761379   -0.171486
 H    3.391982   -1.804203   -0.627433
 H    5.814438   -2.293020   -0.590907
 H    8.126775   -1.558960   -0.157037
 H    8.575590    0.730594    0.628307
 H    6.718977    2.308279    0.985353
 H    4.305521    2.794707    0.939938
 H    2.002300    2.068656    0.513515
 H   -0.241986    1.365168   -0.091700
 H   -2.704645   -0.633883   -1.708213
 H   -4.473575    0.998285   -1.336515
 H   -3.765431    2.843109    0.996497
 H   -5.293809    2.894500    0.071664
 H   -2.757413    3.225088   -1.092851
 H   -4.423500    0.472897    1.682731
 H   -6.635043   -0.140652    1.084251
 H   -4.952625   -1.411990   -0.670881
 H   -4.851167   -2.895976    1.161355
 H   -2.599423   -1.305405    1.281307
 H   -1.890634   -2.884206   -0.400734
