45 
3g2k_ligand_ani.xyz
 C    3.598772   -0.805722   -0.287503
 C    4.938258   -0.421007   -0.037413
 C    6.027393   -1.316612   -0.228322
 C    7.311350   -0.915929    0.021834
 C    7.575546    0.401297    0.475918
 C    6.546499    1.284598    0.668179
 C    5.203476    0.897840    0.417203
 C    4.111137    1.789485    0.605762
 C    2.829246    1.390317    0.356564
 C    2.560122    0.071003   -0.097674
 C    1.178146   -0.344688   -0.361638
 C   -0.010785    0.336817   -0.218642
 N    0.893060   -1.593602   -0.834163
 N   -0.383633   -1.707801   -0.983964
 N   -0.950539   -0.553512   -0.624244
 C   -2.399852   -0.451733   -0.685708
 O   -2.694852    0.882325   -0.347784
 C   -4.095685    1.180195   -0.335728
 C   -4.192435    2.670121   -0.033121
 O   -3.488859    3.416209   -0.998681
 C   -4.820803    0.301193    0.677773
 O   -6.198802    0.588022    0.596583
 C   -4.551822   -1.162148    0.366762
 O   -5.163762   -1.933954    1.377359
 C   -3.059734   -1.426381    0.298570
 O   -2.912002   -2.773364   -0.097888
 H    3.381612   -1.811167   -0.637232
 H    5.818050   -2.326109   -0.576992
 H    8.139145   -1.604667   -0.125711
 H    8.601725    0.702537    0.669610
 H    6.741610    2.296668    1.016158
 H    4.314455    2.799548    0.953287
 H    2.007621    2.085509    0.504236
 H   -0.275255    1.324779    0.129161
 H   -2.717235   -0.679050   -1.713041
 H   -4.516042    0.992029   -1.338147
 H   -3.805941    2.860064    0.983124
 H   -5.238112    2.986480   -0.062072
 H   -2.611303    3.012028   -1.051306
 H   -4.424840    0.520614    1.684924
 H   -6.644497   -0.038865    1.183409
 H   -4.993826   -1.394773   -0.619331
 H   -4.928302   -2.855987    1.200014
 H   -2.620042   -1.250563    1.293363
 H   -1.967794   -2.940446   -0.250479
