45 
3g2l_ligand_ani.xyz
 C   -3.899668   -0.142652   -0.102291
 C   -3.840600   -1.553784   -0.307464
 C   -4.941328   -2.255655   -0.727004
 C   -6.166319   -1.595059   -0.968063
 C   -6.257913   -0.243728   -0.785001
 C   -5.134838    0.515077   -0.356853
 C   -5.240340    1.920366   -0.190661
 C   -4.154806    2.657422    0.196515
 C   -2.922648    2.020024    0.437891
 C   -2.780098    0.655329    0.316863
 C   -1.453741    0.095974    0.605887
 C   -0.220115    0.645813    0.324989
 N   -1.244333   -1.068440    1.288037
 N    0.026862   -1.257398    1.425036
 N    0.665907   -0.237787    0.843813
 C    2.121136   -0.235822    0.837615
 O    2.475089    0.942572    0.153232
 C    3.882943    1.114518   -0.037482
 C    4.038557    2.467587   -0.718847
 O    3.507683    3.491658    0.090158
 C    4.455990   -0.046672   -0.842173
 O    5.847276    0.145973   -0.963412
 C    4.149024   -1.351548   -0.126920
 O    4.623939   -2.406743   -0.935078
 C    2.659377   -1.481745    0.122142
 O    2.486047   -2.653768    0.890572
 H   -2.900812   -2.062629   -0.109384
 H   -4.876097   -3.330450   -0.873641
 H   -7.029434   -2.167198   -1.299398
 H   -7.194961    0.277805   -0.970087
 H   -6.198074    2.399349   -0.383370
 H   -4.233041    3.734234    0.317941
 H   -2.068358    2.618490    0.743519
 H    0.079255    1.534001   -0.210763
 H    2.478492   -0.212701    1.876944
 H    4.383540    1.151815    0.945041
 H    3.542777    2.434685   -1.704328
 H    5.097888    2.683143   -0.878352
 H    2.616560    3.200848    0.329027
 H    3.966807   -0.067003   -1.831830
 H    6.195951   -0.644401   -1.399013
 H    4.670218   -1.345483    0.847588
 H    4.358305   -3.228296   -0.497441
 H    2.143628   -1.557965   -0.847923
 H    1.540351   -2.743061    1.088626
