37 
3g2n_ligand_xtb.xyz
 C    3.336209    0.752474    1.027120
 C    4.606855    1.229307    1.293952
 C    5.678103    0.845941    0.503029
 C    5.482232   -0.034770   -0.548035
 C    4.216688   -0.523366   -0.811692
 C    3.131256   -0.121610   -0.037060
 C    1.799009   -0.683811   -0.379430
 O    1.673009   -1.777032   -0.911576
 N    0.739826    0.095069   -0.066455
 C   -0.635100   -0.147575   -0.454818
 O   -1.276547    1.055129   -0.122503
 C   -2.677284    1.078543   -0.359748
 C   -3.165867    2.483202    0.002920
 O   -2.620682    3.462138   -0.836917
 C   -3.370546    0.000698    0.477040
 O   -4.747517    0.034780    0.224308
 C   -2.774765   -1.356995    0.101440
 O   -3.372438   -2.341604    0.907526
 C   -1.247446   -1.365376    0.268564
 O   -0.808308   -2.587398   -0.254607
 H    2.516724    1.038786    1.670676
 H    4.762795    1.901718    2.124390
 H    6.666086    1.227389    0.712920
 H    6.316865   -0.343637   -1.159004
 H    4.044517   -1.218635   -1.619171
 H    0.883635    1.015781    0.318640
 H   -0.690006   -0.338291   -1.545369
 H   -2.878461    0.889575   -1.424758
 H   -2.910692    2.681141    1.053203
 H   -4.248490    2.520137   -0.120136
 H   -1.661808    3.359071   -0.823602
 H   -3.170210    0.188524    1.544957
 H   -5.116130   -0.787821    0.572973
 H   -2.997845   -1.559939   -0.959828
 H   -2.873229   -3.156610    0.770143
 H   -1.004559   -1.288224    1.343213
 H    0.125810   -2.502516   -0.543619
