37 
3g2n_ligand_ani.xyz
 C    3.374681    0.802021    0.986243
 C    4.667245    1.245192    1.243865
 C    5.730729    0.781706    0.472200
 C    5.501278   -0.137545   -0.549032
 C    4.211068   -0.588757   -0.800631
 C    3.141366   -0.108865   -0.045874
 C    1.781682   -0.634262   -0.369869
 O    1.644507   -1.695761   -0.983599
 N    0.729125    0.120875    0.026398
 C   -0.636080   -0.130078   -0.405246
 O   -1.304660    1.071265   -0.061016
 C   -2.704293    1.075746   -0.348960
 C   -3.207287    2.477288   -0.024314
 O   -2.538598    3.441743   -0.802750
 C   -3.403047   -0.019765    0.446865
 O   -4.771586   -0.010141    0.107118
 C   -2.772391   -1.354152    0.098884
 O   -3.378559   -2.346920    0.897139
 C   -1.268579   -1.334215    0.313785
 O   -0.803532   -2.570755   -0.163823
 H    2.555262    1.146554    1.615110
 H    4.842769    1.958700    2.045397
 H    6.740005    1.132235    0.671402
 H    6.330733   -0.506730   -1.146942
 H    4.010917   -1.316842   -1.581160
 H    0.890135    1.089275    0.263770
 H   -0.683432   -0.298464   -1.495977
 H   -2.858468    0.890904   -1.425859
 H   -3.081291    2.669560    1.054848
 H   -4.272556    2.544762   -0.257082
 H   -1.594003    3.296045   -0.654146
 H   -3.254796    0.172783    1.523881
 H   -5.166074   -0.781326    0.538121
 H   -2.961026   -1.554508   -0.971674
 H   -2.924509   -3.176333    0.688920
 H   -1.065439   -1.221692    1.393131
 H    0.109088   -2.452382   -0.498580
