32 
3g31_ligand_xtb.xyz
 O   -0.043269    2.320874   -1.190070
 C    0.226241    1.503044   -0.350373
 N   -0.699393    0.650307    0.221903
 C   -2.100845    0.674015   -0.145867
 C   -2.570661   -0.702837   -0.601313
 O   -1.590823   -1.406094   -1.177830
 O   -3.695573   -1.101809   -0.508549
 C   -2.976134    1.193610    0.990910
 C    1.562967    1.216372    0.290029
 C    1.295481    0.084565    1.293212
 C   -0.178846   -0.224037    1.157874
 O   -0.826006   -1.050885    1.743842
 C    2.629438    0.613879   -0.645384
 C    1.985846   -0.486494   -1.498265
 C    1.738948   -1.622287   -0.484281
 C    3.449912   -0.208404    0.351584
 C    2.253325   -1.032557    0.833679
 H   -2.169429    1.345287   -1.014512
 H   -1.922889   -2.274774   -1.455878
 H   -2.851620    0.564392    1.868598
 H   -4.017334    1.158063    0.684735
 H   -2.704705    2.217028    1.236272
 H    1.937340    2.134071    0.749671
 H    1.501330    0.358883    2.330498
 H    3.164778    1.362944   -1.224252
 H    1.067965   -0.150288   -1.977660
 H    2.674065   -0.800994   -2.282860
 H    0.690575   -1.905717   -0.424742
 H    2.312340   -2.512589   -0.743026
 H    3.905032    0.393614    1.136023
 H    4.213314   -0.815933   -0.129784
 H    2.446321   -1.776044    1.603610
