41 
3g45_ligand_ani.xyz
 C   -1.488550    4.147991   -0.491991
 C   -1.225333    2.754207   -0.527750
 C    0.027997    2.303224   -0.033254
 N    0.960633    3.172744    0.450845
 C    0.681039    4.450623    0.452375
 C   -0.539931    4.999475   -0.005447
 C   -2.162076    1.825093   -1.042811
 C   -1.870976    0.485037   -1.077440
 C   -0.626643    0.046201   -0.586918
 C    0.325267    0.899504   -0.072108
 C    1.619300    0.334523    0.394908
 C    2.264722   -0.609542   -0.412525
 C    3.443381   -1.191465    0.017824
 C    4.005700   -0.907212    1.253651
 C    3.353921    0.011759    2.067117
 C    2.181184    0.632187    1.645205
 C   -2.855894   -0.548189   -1.594360
 C   -3.261793   -1.517650   -0.511327
 C   -3.913670   -1.057430    0.629759
 C   -4.257146   -1.965012    1.625224
 N   -3.988170   -3.271126    1.566580
 C   -3.354045   -3.702234    0.475992
 C   -2.974634   -2.877377   -0.579069
 N    4.109044   -2.165499   -0.862621
 O    3.591633   -2.399410   -1.941249
 O    5.138225   -2.677979   -0.458929
 H   -2.444552    4.517392   -0.859037
 H    1.451129    5.114525    0.843000
 H   -0.699859    6.072970    0.035751
 H   -3.115124    2.200956   -1.411138
 H   -0.416780   -1.022199   -0.595034
 H    1.868925   -0.879980   -1.386313
 H    4.923711   -1.397353    1.555473
 H    3.771216    0.254010    3.039726
 H    1.695856    1.360378    2.288427
 H   -2.409232   -1.107163   -2.424594
 H   -3.739610   -0.036951   -1.993433
 H   -4.154687   -0.003656    0.743476
 H   -4.775065   -1.623570    2.520560
 H   -3.136007   -4.768989    0.438790
 H   -2.460244   -3.296386   -1.440177
