40 
3g4l_ligand_xtb.xyz
 O    1.435076    1.629442    0.639246
 C   -5.492408    3.021876   -1.544565
 C   -5.034856    4.253051   -0.826176
 C   -4.855956    2.906928   -0.192117
 C    1.259166    0.469401    0.350779
 C   -0.081967   -0.170795    0.325462
 C   -0.279894   -1.536917    0.455729
 C   -1.567519   -2.052689    0.435737
 C   -2.650649   -1.211492    0.282016
 O   -3.982072   -1.625827    0.237129
 C   -4.300063   -2.917562    0.318949
 F   -3.741940   -3.673707   -0.662829
 F   -3.895807   -3.502260    1.477016
 C   -2.471147    0.183127    0.164242
 O   -3.591099    0.919667    0.029576
 C   -3.468225    2.330960   -0.066660
 C   -1.178596    0.681034    0.193532
 N    2.286995   -0.379395   -0.017558
 C    3.624165   -0.022602   -0.090646
 C    4.386678   -0.382392   -1.211228
Cl    3.638560   -1.277003   -2.491751
 C    5.720949   -0.023537   -1.289313
 N    6.321901    0.665250   -0.336786
 C    5.639992    0.990473    0.741712
 C    4.302613    0.655331    0.930685
Cl    3.538302    1.012764    2.424963
 H   -4.924903    2.691260   -2.400780
 H   -6.551614    2.836627   -1.628735
 H   -5.777385    4.917647   -0.413083
 H   -4.155333    4.760800   -1.192186
 H   -5.496925    2.650238    0.640817
 H    0.547697   -2.211924    0.607854
 H   -1.703204   -3.116551    0.543881
 H   -5.394374   -3.016815    0.248842
 H   -2.973488    2.722915    0.833434
 H   -2.867458    2.598699   -0.945811
 H   -0.979334    1.737768    0.117457
 H    2.035722   -1.169623   -0.599241
 H    6.322619   -0.287905   -2.146747
 H    6.179821    1.530222    1.505981
