41 
3g58_ligand_dft.xyz
 C   -1.157090    4.251925   -0.487561
 C   -1.016073    2.843350   -0.519690
 C    0.210029    2.293084   -0.058689
 N    1.228700    3.074082    0.391640
 C    1.056764    4.374916    0.402931
 C   -0.124211    5.022483   -0.026280
 C   -2.043219    1.989864   -0.996378
 C   -1.868323    0.631434   -1.025092
 C   -0.644160    0.087874   -0.559066
 C    0.383172    0.869750   -0.086073
 C    1.643930    0.225672    0.364927
 C    2.219355   -0.770482   -0.423707
 C    3.370312   -1.409310    0.016112
 C    3.981493   -1.094416    1.220747
 C    3.406154   -0.100030    2.003309
 C    2.254320    0.554762    1.581956
 C   -2.948161   -0.304434   -1.521302
 C   -3.406769   -1.283613   -0.461008
 C   -3.865882   -0.837163    0.779033
 C   -4.281028   -1.768833    1.721793
 N   -4.266563   -3.090206    1.522072
 C   -3.822010   -3.510448    0.337899
 C   -3.385976   -2.659045   -0.674773
 N    3.962133   -2.454065   -0.828767
 O    3.397046   -2.726557   -1.877415
 O    4.984769   -2.992312   -0.433204
 H   -2.084234    4.701925   -0.833314
 H    1.894124    4.967205    0.767891
 H   -0.194813    6.104293    0.011139
 H   -2.974316    2.433412   -1.342840
 H   -0.528459   -0.993542   -0.555587
 H    1.793274   -1.043194   -1.381649
 H    4.879524   -1.617832    1.523830
 H    3.860522    0.165604    2.952141
 H    1.819520    1.331719    2.198862
 H   -2.579739   -0.861529   -2.391008
 H   -3.806925    0.283004   -1.866998
 H   -3.890015    0.223933    1.010806
 H   -4.643511   -1.438546    2.692990
 H   -3.810136   -4.587895    0.186690
 H   -3.034985   -3.070313   -1.617154
