41 
3g58_ligand_ani.xyz
 C   -1.315134    4.307894   -0.443461
 C   -1.140642    2.899707   -0.455246
 C    0.112552    2.383626   -0.027691
 N    1.124786    3.204372    0.374332
 C    0.925256    4.496983    0.354175
 C   -0.286013    5.109909   -0.043934
 C   -2.160483    2.018851   -0.889658
 C   -1.946138    0.664558   -0.930013
 C   -0.699255    0.161152   -0.512298
 C    0.321671    0.964542   -0.051470
 C    1.595045    0.329112    0.379257
 C    2.144329   -0.676385   -0.424984
 C    3.294757   -1.328782   -0.019955
 C    3.921261   -1.053157    1.186614
 C    3.366437   -0.069033    1.995869
 C    2.223952    0.620344    1.598892
 C   -3.010780   -0.302110   -1.422598
 C   -3.288797   -1.408603   -0.435600
 C   -3.789181   -1.115092    0.830656
 C   -4.016731   -2.156227    1.724518
 N   -3.775718   -3.440277    1.450920
 C   -3.288993   -3.711972    0.239667
 C   -3.032822   -2.745101   -0.728182
 N    3.855521   -2.372065   -0.894064
 O    3.287315   -2.591133   -1.950019
 O    4.854829   -2.952799   -0.508097
 H   -2.267725    4.727241   -0.762353
 H    1.758142    5.120859    0.676130
 H   -0.375644    6.192207   -0.027454
 H   -3.114927    2.442368   -1.198348
 H   -0.543258   -0.916338   -0.529375
 H    1.695893   -0.941898   -1.377042
 H    4.812962   -1.599611    1.469918
 H    3.835972    0.168694    2.945511
 H    1.814255    1.396714    2.238530
 H   -2.694368   -0.749301   -2.372566
 H   -3.930942    0.257433   -1.626913
 H   -4.001107   -0.088436    1.117663
 H   -4.413797   -1.946802    2.716971
 H   -3.091833   -4.761922    0.025871
 H   -2.634645   -3.035272   -1.697273
