24 
3g6m_ligand_ani.xyz
 N    1.266970   -1.082940    0.000724
 C    1.861380    0.191119   -0.000038
 C    2.162737   -2.242431    0.005822
 C   -0.111206   -1.370291   -0.002899
 N    0.995517    1.285035   -0.001829
 O    3.068587    0.337110    0.000826
 C    1.536077    2.635627   -0.003956
 C   -0.363334    1.082473   -0.000251
 C   -0.913842   -0.176854   -0.002186
 N   -1.325353    2.041925    0.003794
 O   -0.500538   -2.528838   -0.005511
 N   -2.272534    0.007213    0.000567
 C   -2.451513    1.353870    0.004441
 C   -3.275077   -1.042333   -0.000658
 H    1.979246   -2.851837    0.892657
 H    1.980188   -2.858682   -0.876380
 H    3.185019   -1.870588    0.005150
 H    1.192236    3.176651   -0.889766
 H    1.202938    3.176118    0.886332
 H    2.620782    2.548992   -0.010237
 H   -3.446998    1.782094    0.008228
 H   -3.162307   -1.666689   -0.889441
 H   -3.158317   -1.672558    0.883441
 H   -4.260711   -0.575375    0.003053
