54 
3g9e_ligand_ani.xyz
 C   -2.413442    2.240166    2.262811
 C   -3.198903    1.729003    1.117936
 O   -4.065371    0.694018    1.343971
 C   -4.610653    0.420567    0.132867
 C   -5.580909   -0.672544    0.055202
 C   -6.130776   -1.007895   -1.182557
 C   -7.047783   -2.048167   -1.273129
 C   -7.417342   -2.752205   -0.129301
 C   -6.868924   -2.416501    1.107159
 C   -5.949984   -1.378626    1.202652
 N   -4.172035    1.182568   -0.819563
 C   -3.265475    2.034542   -0.203356
 C   -2.468438    3.038164   -0.969433
 C   -1.083218    2.528043   -1.353759
 O   -0.367295    2.238992   -0.154308
 C    0.815943    1.580142   -0.377468
 C    1.958291    2.285838   -0.701344
 C    3.173592    1.620474   -0.892710
 C    0.867216    0.177725   -0.245683
 C   -0.177692   -0.759602    0.092191
 C    0.257118   -2.036329    0.133337
 C    2.103217   -0.463923   -0.460657
 S    1.949172   -2.179611   -0.231171
 C    3.273488    0.237940   -0.806279
 C    4.590186   -0.461410   -1.029437
 C    5.438854   -0.513785    0.253453
 O    5.764762    0.793858    0.611856
 C    6.381891    0.899715    1.879532
 C    6.687277   -1.365040    0.027952
 O    7.816244   -0.961122   -0.088919
 O    6.360715   -2.669026   -0.040886
 H   -1.761032    3.051843    1.933481
 H   -3.062423    2.601610    3.067252
 H   -1.777396    1.450117    2.678253
 H   -5.828167   -0.445651   -2.062478
 H   -7.475523   -2.311913   -2.236877
 H   -8.134687   -3.565393   -0.201452
 H   -7.158670   -2.966744    1.999189
 H   -5.514123   -1.109884    2.160528
 H   -3.016957    3.305860   -1.878431
 H   -2.341812    3.953156   -0.374802
 H   -0.545358    3.288349   -1.936696
 H   -1.160102    1.618249   -1.961810
 H    1.896674    3.366440   -0.799599
 H    4.065224    2.197043   -1.114890
 H   -1.201801   -0.458037    0.288032
 H   -0.313853   -2.928239    0.358779
 H    5.174755    0.083373   -1.781128
 H    4.442684   -1.482556   -1.395395
 H    4.860335   -1.005678    1.052987
 H    6.409097    1.964482    2.123615
 H    5.798292    0.370366    2.647445
 H    7.401677    0.499964    1.863876
 H    7.187019   -3.152474   -0.207794
