51 
3g9l_ligand_dft.xyz
 O    1.797049    3.603269   -0.912971
 N    2.008287    2.279141   -0.658174
 C    0.969268    1.546095   -0.824039
 C   -0.422417    1.964938   -1.260794
 O   -0.861354    3.071757   -1.491853
 N   -1.144023    0.788595   -1.335775
 C   -2.555947    0.758262   -1.664734
 C   -3.431746    0.675943   -0.432895
 C   -3.454846    1.739582    0.466303
 C   -4.229818    1.649619    1.610349
 F   -4.243529    2.677054    2.474148
 C   -5.001397    0.533630    1.884318
 C   -4.996918   -0.531058    0.988445
 C   -5.839558   -1.763229    1.223892
 O   -5.894938   -2.577487    0.065810
 C   -4.639172   -2.714266   -0.503114
 O   -4.168588   -1.498397   -1.051423
 C   -4.202546   -0.457220   -0.159024
 C   -0.379604   -0.311488   -0.932676
 C   -0.783397   -1.631703   -0.847136
 C    0.169897   -2.559561   -0.420840
 C    1.464840   -2.176907   -0.099684
 C    1.883476   -0.837727   -0.199906
 C    3.252565   -0.424310    0.131567
 C    4.326244   -1.225226    0.065503
 C    5.705733   -0.847312    0.403827
 C    6.016410    0.291472    1.160486
 C    7.336190    0.618442    1.442384
 C    8.375540   -0.188411    0.982840
 C    8.082260   -1.329510    0.242470
 C    6.760360   -1.655401   -0.039314
 C    0.926702    0.095805   -0.613738
 H    2.669400    3.990163   -0.761757
 H   -2.747553   -0.081683   -2.335457
 H   -2.759339    1.685670   -2.205938
 H   -2.867318    2.632247    0.275033
 H   -5.608506    0.507622    2.784209
 H   -6.872730   -1.488734    1.450792
 H   -5.447208   -2.343597    2.074086
 H   -4.721015   -3.412509   -1.334418
 H   -3.905896   -3.069745    0.240970
 H   -1.798331   -1.927156   -1.089224
 H   -0.113699   -3.603594   -0.325755
 H    2.163186   -2.922215    0.266514
 H    3.374262    0.620753    0.399422
 H    4.205477   -2.243271   -0.303417
 H    5.217638    0.917293    1.547088
 H    7.555931    1.503269    2.032693
 H    9.406399    0.067713    1.208167
 H    8.883795   -1.968669   -0.115863
 H    6.537350   -2.547092   -0.620275
