68 
3gcq_ligand_ani.xyz
 C   -8.187883   -1.253678   -0.233331
 C   -7.268141   -0.212811    0.006320
 C   -5.883223   -0.546585   -0.247834
 N   -5.525115   -1.754727   -0.622240
 N   -7.803681   -2.495097   -0.656899
 C    4.495746    4.954100    0.868636
 C    5.311698    3.842642    0.258720
 C    4.907256    2.514281    0.409067
 C    6.467598    4.111563   -0.469641
 C    7.224609    3.076730   -1.015919
 C    6.832651    1.757527   -0.848200
 C    5.654291    1.484866   -0.158657
 N    5.282172    0.119014   -0.029201
 N    6.264335   -0.804995    0.099578
 C    5.647618   -1.970475    0.251939
 C    6.485245   -3.217788    0.429539
 C    5.577967   -4.429309    0.642045
 C    7.400474   -3.043411    1.650782
 C    7.343657   -3.435404   -0.826320
 C    4.243974   -1.817319    0.193602
 C    4.050963   -0.469264   -0.020020
 N    2.907110    0.289426   -0.273591
 C    1.620674   -0.216763   -0.111831
 O    1.401869   -1.335092    0.309078
 N    0.661161    0.707652   -0.466802
 C   -0.737232    0.569334   -0.365296
 C   -1.371852   -0.652716   -0.140289
 C   -2.755759   -0.725049   -0.063175
 C   -1.518506    1.717357   -0.517769
 C   -2.898017    1.644869   -0.432951
 C   -3.539172    0.420954   -0.210296
 N   -4.943648    0.440157   -0.095594
 C   -7.735614    1.042157    0.470508
 C   -9.081494    1.267097    0.671853
 N   -9.550912    2.521543    1.067210
 C   -9.999629    0.219989    0.410313
 C   -9.563782   -0.999570   -0.026367
 C   -6.518704   -2.655941   -0.816924
 H    3.466603    4.938108    0.490913
 H    4.445378    4.853806    1.959212
 H    4.921736    5.935178    0.641178
 H    4.010407    2.281109    0.978047
 H    6.786214    5.143048   -0.605059
 H    8.133393    3.302012   -1.569087
 H    7.416484    0.929050   -1.237739
 H    4.951647   -4.293470    1.529562
 H    4.922438   -4.579726   -0.221537
 H    6.177085   -5.336238    0.779404
 H    8.057303   -2.178282    1.520988
 H    6.805459   -2.891197    2.557939
 H    8.018673   -3.938040    1.787430
 H    6.709026   -3.567930   -1.709452
 H    7.999709   -2.576813   -0.999443
 H    7.962889   -4.332027   -0.707952
 H    3.461158   -2.549859    0.286320
 H    3.042549    1.103323   -0.860093
 H    0.974699    1.650340   -0.645251
 H   -0.777425   -1.548174   -0.022339
 H   -3.235770   -1.680263    0.112974
 H   -1.045441    2.680138   -0.696400
 H   -3.488977    2.551378   -0.546434
 H   -5.328219    1.366646   -0.005873
 H   -7.044007    1.853358    0.696344
 H   -8.876860    3.082392    1.570454
 H  -10.442231    2.504688    1.541407
 H  -11.062305    0.400675    0.560351
 H  -10.260963   -1.807805   -0.221712
 H   -6.188035   -3.639811   -1.145024
