81 
3gi4_ligand_xtb.xyz
 O   -0.757052    4.818924   -0.614976
 S   -0.819053    3.450466   -1.024840
 O   -1.265546    3.169789   -2.364337
 C    0.782682    2.682742   -0.797711
 C    1.528905    3.081735    0.308454
 C    2.745662    2.467552    0.472789
 C    3.199470    1.490609   -0.424229
 O    4.431313    1.061680   -0.030359
 C    4.761982    1.806894    1.122666
 O    3.681916    2.658768    1.446846
 C    2.454484    1.096392   -1.510705
 C    1.217532    1.717549   -1.682383
 N   -1.842430    2.655297    0.014181
 C   -1.969929    3.168729    1.359929
 C   -3.437006    3.237260    1.805273
 C   -3.510530    3.668491    3.267416
 C   -4.207749    4.203019    0.911402
 C   -1.956335    1.225998   -0.172984
 C   -3.034220    0.863867   -1.216565
 O   -2.504792    0.801329   -2.513826
 C   -3.675514   -0.518429   -0.960964
 C   -4.642809   -0.549867    0.228030
 C   -5.409751   -1.844913    0.240487
 C   -6.448978   -2.049848   -0.659242
 C   -7.141687   -3.246732   -0.675338
 C   -6.801705   -4.256984    0.208734
 C   -5.769404   -4.060982    1.109411
 C   -5.077841   -2.861704    1.125057
 N   -2.646557   -1.544746   -0.870079
 C   -1.940224   -1.891955    0.204077
 O   -2.077672   -1.500164    1.346675
 C   -0.859988   -2.960770   -0.119505
 O   -0.246916   -2.685804   -1.366425
 C    1.040748   -2.309309   -1.200322
 O    1.719093   -1.927158   -2.108319
 C    0.271917   -2.923196    0.910514
 N    1.387204   -2.439156    0.123569
 C    2.642039   -2.194489    0.682406
 C    2.800344   -2.219147    2.069126
 C    4.036801   -1.978614    2.639828
 C    5.138264   -1.705498    1.849870
 C    3.752655   -1.935651   -0.120099
 C    4.978370   -1.683026    0.470382
 C    6.179843   -1.398743   -0.386742
 F    6.986867   -2.477084   -0.486091
 F    6.947875   -0.419892    0.126846
 F    5.880592   -1.039276   -1.635712
 H    1.170253    3.852030    0.968126
 H    5.665258    2.404992    0.927580
 H    4.954197    1.118451    1.960308
 H    2.804396    0.342828   -2.194591
 H    0.597295    1.463243   -2.526709
 H   -1.556646    4.177441    1.339461
 H   -1.389173    2.555843    2.062952
 H   -3.875451    2.238153    1.709383
 H   -3.054652    4.647406    3.395615
 H   -2.990336    2.959019    3.907098
 H   -4.546435    3.726578    3.591566
 H   -5.267313    4.190131    1.156290
 H   -3.831716    5.214939    1.040280
 H   -4.081417    3.929190   -0.132837
 H   -0.995895    0.814179   -0.511557
 H   -2.202646    0.774502    0.787646
 H   -3.826593    1.627008   -1.161658
 H   -2.081483    1.662029   -2.703531
 H   -4.239844   -0.753126   -1.870692
 H   -4.096097   -0.437741    1.161938
 H   -5.333437    0.288049    0.117350
 H   -6.720976   -1.261896   -1.347295
 H   -7.949828   -3.391816   -1.377056
 H   -7.342302   -5.191745    0.197423
 H   -5.503299   -4.843663    1.804842
 H   -4.274573   -2.709778    1.830593
 H   -2.281053   -1.848331   -1.762612
 H   -1.354131   -3.936724   -0.182394
 H   -0.003495   -2.229752    1.714030
 H    0.493662   -3.906950    1.335939
 H    1.962055   -2.423770    2.714092
 H    4.138859   -2.003517    3.713712
 H    6.104988   -1.513856    2.288469
 H    3.656227   -1.919086   -1.192005
