81 
3gi4_ligand_dft.xyz
 O   -0.333793    4.819676   -0.550510
 S   -0.522522    3.461364   -1.026643
 O   -1.077820    3.227240   -2.357472
 C    1.040827    2.619403   -0.946905
 C    2.036063    3.167469   -0.117845
 C    3.219645    2.473579   -0.068864
 C    3.422614    1.305684   -0.801710
 O    4.697442    0.877097   -0.617504
 C    5.222510    1.668180    0.441500
 O    4.360700    2.789865    0.605972
 C    2.446552    0.755117   -1.601041
 C    1.226414    1.440586   -1.665036
 N   -1.540211    2.701737    0.054746
 C   -1.407768    3.081057    1.469274
 C   -2.775714    3.290326    2.130293
 C   -2.576736    3.576973    3.619860
 C   -3.553195    4.409118    1.438628
 C   -1.848739    1.283451   -0.165937
 C   -2.821979    0.982949   -1.318555
 O   -2.163029    0.758854   -2.546688
 C   -3.631905   -0.298091   -1.067414
 C   -4.736895   -0.157816   -0.010213
 C   -5.640498   -1.369794    0.037892
 C   -6.591350   -1.573617   -0.965531
 C   -7.415255   -2.693897   -0.952252
 C   -7.300115   -3.630711    0.071840
 C   -6.359048   -3.435567    1.078114
 C   -5.535430   -2.312660    1.061588
 N   -2.730939   -1.432815   -0.848121
 C   -2.213119   -1.842500    0.320020
 O   -2.475630   -1.408500    1.437248
 C   -1.224372   -3.016784    0.199086
 O   -0.592155   -3.041748   -1.078500
 C    0.683841   -2.569368   -0.979826
 O    1.361867   -2.353883   -1.950376
 C   -0.084649   -2.882940    1.207920
 N    0.995349   -2.413369    0.353947
 C    2.275873   -2.123084    0.870625
 C    2.402907   -1.833549    2.232795
 C    3.653280   -1.578656    2.783376
 C    4.792604   -1.603805    1.991344
 C    3.420247   -2.148366    0.066667
 C    4.658774   -1.882632    0.633565
 C    5.897000   -1.954363   -0.221204
 F    6.523774   -3.135227   -0.066690
 F    6.787578   -1.001299    0.123961
 F    5.632125   -1.812049   -1.523712
 H    1.883179    4.100196    0.411047
 H    6.223133    2.009659    0.174609
 H    5.233657    1.074276    1.364734
 H    2.606333   -0.162418   -2.153272
 H    0.429179    1.048137   -2.286611
 H   -0.848405    4.017505    1.522815
 H   -0.832761    2.312017    2.006509
 H   -3.352308    2.358552    2.040427
 H   -2.003068    4.500685    3.764391
 H   -2.040642    2.761908    4.119266
 H   -3.541078    3.702993    4.122212
 H   -4.535443    4.543776    1.903993
 H   -3.009595    5.358801    1.509431
 H   -3.699691    4.190516    0.377084
 H   -0.931599    0.694788   -0.314009
 H   -2.286021    0.932737    0.769868
 H   -3.527903    1.822573   -1.399634
 H   -1.787452    1.613556   -2.818338
 H   -4.123352   -0.512144   -2.021963
 H   -4.311101    0.032409    0.975846
 H   -5.324233    0.724421   -0.292593
 H   -6.691838   -0.840681   -1.763792
 H   -8.152231   -2.832432   -1.738021
 H   -7.944513   -4.504827    0.086776
 H   -6.266897   -4.159439    1.883006
 H   -4.796315   -2.165460    1.843572
 H   -2.286394   -1.798486   -1.680142
 H   -1.783463   -3.947472    0.317602
 H   -0.368624   -2.160170    1.974239
 H    0.184444   -3.833328    1.682182
 H    1.530356   -1.802265    2.874640
 H    3.733054   -1.360432    3.843418
 H    5.770360   -1.412300    2.420104
 H    3.335910   -2.364132   -0.988817
