23 
3gjd_ligand_ani.xyz
 N    0.777572    1.734732   -0.262843
 C    0.609508    0.342872    0.293919
 C    1.972718   -0.309414    0.067665
 O    2.043119   -1.587399    0.452401
 C   -0.538978   -0.442436   -0.349681
 C   -1.939417    0.161453   -0.178499
 C   -2.329891    0.316491    1.293810
 C   -2.962695   -0.710722   -0.908684
 O    2.902888    0.300912   -0.410596
 H    0.182870    1.869064   -1.096317
 H    0.567711    2.464228    0.437432
 H    1.781323    1.774276   -0.546094
 H    0.462589    0.410090    1.372365
 H    2.948966   -1.887746    0.266137
 H   -0.535743   -1.448116    0.084325
 H   -0.325162   -0.577030   -1.420303
 H   -1.965112    1.155609   -0.646463
 H   -2.262060   -0.647360    1.815328
 H   -1.691955    1.032169    1.822959
 H   -3.362896    0.670698    1.383548
 H   -2.987606   -1.719343   -0.476900
 H   -2.720579   -0.808105   -1.973121
 H   -3.970879   -0.289131   -0.828621
