69 
3gjs_ligand_ani.xyz
 C    0.061313   -3.160402    1.747815
 O    1.186971   -3.653222    1.839768
 C   -0.914319   -3.127822    2.899534
 N   -0.382350   -2.597967    0.599529
 C    0.396120   -2.638534   -0.629567
 C    1.441367   -1.498455   -0.702247
 O    1.510799   -0.721653   -1.656089
 C   -0.484158   -2.722756   -1.887114
 C   -1.739071   -1.882276   -1.848405
 C   -2.982215   -2.490627   -1.654752
 C   -1.696219   -0.490915   -1.966590
 C   -4.148843   -1.745278   -1.536540
 C   -2.854709    0.266670   -1.855620
 C   -4.077876   -0.358292   -1.614875
 O   -5.164836    0.446935   -1.434584
 N    2.293650   -1.471298    0.343304
 C    3.427739   -0.559855    0.480456
 C    2.886768    0.864819    0.659799
 O    2.683870    1.317901    1.784660
 C    4.507093   -0.735626   -0.610994
 C    5.667887    0.232757   -0.377171
 C    5.007211   -2.181427   -0.647681
 N    2.633592    1.565034   -0.472763
 C    2.175511    2.945320   -0.409113
 C    0.653637    3.009125   -0.205422
 O   -0.077035    3.605002   -1.000083
 C    2.593553    3.713213   -1.650845
 N    0.173174    2.365806    0.877083
 C   -1.256337    2.121184    1.043947
 C   -1.966711    3.347359    1.636322
 O   -2.201486    4.341542    0.672361
 C   -1.445202    0.836271    1.863357
 C   -2.732233    0.088038    1.565996
 O   -3.816621    0.880543    1.553393
 O   -2.802311   -1.104577    1.365627
 H   -1.883314   -3.546615    2.610393
 H   -1.090437   -2.094106    3.217146
 H   -0.494586   -3.697632    3.729589
 H   -1.277597   -2.113890    0.624385
 H    0.989179   -3.561029   -0.561974
 H    0.136249   -2.445230   -2.745400
 H   -0.776200   -3.770106   -2.020072
 H   -3.033452   -3.574635   -1.576020
 H   -0.737076   -0.010777   -2.149752
 H   -5.102747   -2.240438   -1.357800
 H   -2.837556    1.350584   -1.941847
 H   -5.950893   -0.108455   -1.362892
 H    2.218434   -2.231319    1.013434
 H    3.874599   -0.793678    1.452998
 H    4.040857   -0.513545   -1.576573
 H    5.337387    1.275063   -0.419583
 H    6.444160    0.091890   -1.137059
 H    6.127342    0.056214    0.603817
 H    5.791568   -2.290570   -1.404127
 H    5.437127   -2.472981    0.319310
 H    4.203934   -2.883813   -0.893818
 H    2.397288    1.013484   -1.295228
 H    2.646387    3.366986    0.488577
 H    2.292332    4.761289   -1.574746
 H    3.680484    3.661725   -1.768118
 H    2.118571    3.295174   -2.544052
 H    0.838809    1.982715    1.545983
 H   -1.678119    1.974220    0.041093
 H   -1.361204    3.729531    2.475577
 H   -2.937133    3.045673    2.036448
 H   -1.497060    4.282173    0.000642
 H   -0.619552    0.144507    1.664787
 H   -1.422034    1.073383    2.937038
 H   -4.578874    0.318459    1.335605
