36 
3gk1_ligand_dft.xyz
 C   -0.223748    0.962868   -0.447301
 C   -1.292766   -0.030283   -0.623417
 C   -4.660613   -0.349892    0.315403
 C    1.866338    1.544750   -0.251796
 C   -0.222669    2.322610   -0.306919
 C    3.256049    1.291862   -0.185999
 C    4.446377    1.090820   -0.134009
 N   -2.552729    0.464791   -0.414158
 N   -3.567483   -0.478944   -0.473841
 N   -5.516434   -1.392659    0.272144
 C    5.877444    0.802211   -0.046851
 C    1.137852    2.702875   -0.177583
 O   -1.111096   -1.187813   -0.976852
 C   -5.355785   -2.574461   -0.547281
 S   -4.955130    1.023219    1.247824
 O    1.038979    0.482805   -0.417917
 C    6.173627   -0.514367    0.693503
 C    5.586859   -1.744777    0.002578
 C    5.906815   -3.039297    0.747196
 H   -1.085485    2.973742   -0.317719
 H   -2.763712    1.207943    0.250016
 H   -3.189885   -1.378282   -0.759810
 H   -6.344957   -1.280158    0.834027
 H    6.377009    1.635898    0.460998
 H    6.296903    0.756017   -1.060545
 H    1.539566    3.697047   -0.052241
 H   -5.223465   -2.306893   -1.602466
 H   -4.501220   -3.183260   -0.223722
 H   -6.255555   -3.183583   -0.457272
 H    5.784780   -0.444340    1.716823
 H    7.263097   -0.619480    0.773824
 H    5.975809   -1.802273   -1.022962
 H    4.500131   -1.626489   -0.084232
 H    6.989196   -3.196264    0.822568
 H    5.501787   -3.016480    1.765344
 H    5.476861   -3.906409    0.236179
