36 
3gk1_ligand_ani.xyz
 C   -0.259560    0.839165   -0.288893
 C   -1.325584   -0.179456   -0.420541
 C   -4.805305   -0.308925    0.203743
 C    1.834193    1.451970   -0.154777
 C   -0.273034    2.204727   -0.193026
 C    3.241475    1.241907   -0.123865
 C    4.442893    1.098387   -0.114400
 N   -2.594636    0.327147   -0.400307
 N   -3.612916   -0.606163   -0.363255
 N   -5.670929   -1.343047    0.287200
 C    5.904219    0.950788   -0.106385
 C    1.090014    2.598155   -0.104964
 O   -1.111517   -1.373447   -0.563551
 C   -5.478684   -2.670899   -0.251692
 S   -5.210811    1.228692    0.742281
 O    1.010552    0.374889   -0.267336
 C    6.387919   -0.334414    0.583278
 C    5.918374   -1.613448   -0.108386
 C    6.476979   -2.874088    0.547066
 H   -1.135021    2.860960   -0.206952
 H   -2.846535    1.208091    0.041360
 H   -3.249230   -1.554396   -0.393887
 H   -6.562150   -1.099964    0.689389
 H    6.341788    1.825511    0.391846
 H    6.265250    0.974365   -1.143366
 H    1.489168    3.598541   -0.017906
 H   -5.167018   -2.637170   -1.301839
 H   -4.740079   -3.246530    0.320859
 H   -6.432751   -3.199171   -0.198428
 H    6.045605   -0.331773    1.625793
 H    7.485187   -0.316171    0.609485
 H    6.221949   -1.580141   -1.163465
 H    4.821242   -1.643236   -0.106141
 H    7.573277   -2.880822    0.517665
 H    6.173619   -2.940780    1.598639
 H    6.122359   -3.776687    0.039131
