46 
3gk4_ligand_ani.xyz
 N   -2.094979    1.817325   -0.110200
 N   -3.450336    1.876020   -0.111386
 C    0.513833    1.159179   -0.176853
 C    0.154424    2.579998   -0.098119
 C   -1.217025    2.894948   -0.071275
 O    3.545409   -2.848196    0.694880
 N   -3.890897    0.663441   -0.145057
 O    2.101376   -0.280083    2.577021
 C    1.638636   -1.051720    1.776615
 C    0.629639   -2.114111    2.114267
 C    2.054989   -1.015111    0.282865
 C    3.350766   -1.798633    0.126760
 O    4.208681   -1.224342   -0.712343
 C    5.456963   -1.921006   -0.885148
 C    6.247674   -1.152738   -1.919885
 S    2.197134    0.678010   -0.354832
 N   -0.366726    0.187372   -0.155846
 C    1.068816    3.649704   -0.042371
 C    0.611872    4.948119    0.025707
 C   -0.763358    5.232129    0.043024
 C   -1.685867    4.206705   -0.005001
 C   -2.852476   -0.210829   -0.158571
 C   -1.669877    0.525045   -0.143892
 C   -2.999957   -1.670963   -0.180393
 O   -2.092161   -2.467286   -0.041478
 O   -4.269657   -2.028236   -0.375078
 C   -4.527388   -3.441832   -0.437365
 C   -5.989660   -3.589964   -0.789427
 H    1.019349   -3.092988    1.815446
 H   -0.288970   -1.926762    1.546890
 H    0.427087   -2.101292    3.186248
 H    1.281051   -1.540148   -0.295033
 H    5.966417   -1.960094    0.082020
 H    5.246838   -2.946724   -1.199902
 H    5.708910   -1.121269   -2.871144
 H    6.428453   -0.128008   -1.583582
 H    7.213926   -1.638213   -2.086140
 H    2.138235    3.451701   -0.052040
 H    1.326897    5.764963    0.066527
 H   -1.101752    6.263120    0.095699
 H   -2.755913    4.393804    0.009156
 H   -4.285298   -3.888309    0.531695
 H   -3.868510   -3.891027   -1.186020
 H   -6.614814   -3.120767   -0.024658
 H   -6.258114   -4.648459   -0.857971
 H   -6.198563   -3.115152   -1.752107
