66 
3gnv_ligand_ani.xyz
Cl   -0.510418    0.788068    3.065106
 C   -0.983160    0.036024    1.561588
 C   -2.351228   -0.066262    1.310137
 C   -2.775684   -0.655560    0.122802
 O   -4.078673   -0.829869   -0.215647
 C   -5.062172   -0.190323    0.580774
 C   -6.419956   -0.409906   -0.038853
 C   -6.669087   -1.554868   -0.793472
 C   -7.932140   -1.778362   -1.331964
 C   -8.955135   -0.856346   -1.124471
 C   -8.710343    0.289279   -0.372742
 C   -7.447730    0.508508    0.169216
 C   -1.834819   -1.126180   -0.795694
 C   -0.486189   -1.001794   -0.513842
 C   -0.016548   -0.427100    0.669377
 C    1.473231   -0.276346    0.978014
 N    1.870904    1.140411    1.082735
 C    2.956255    1.396721    1.904800
 O    3.477999    0.510179    2.559342
 C    3.428398    2.826284    1.961164
 C    1.565951    2.015841   -0.010914
 C    0.714784    3.101327    0.193912
 C    0.461672    4.001801   -0.829174
 C    2.421456   -1.042653    0.064293
 C    2.525921   -2.482771    0.355158
 O    1.791234   -3.022941    1.164693
 C    3.584336   -3.291614   -0.378230
 C    4.822359   -2.468416   -0.733715
 C    5.768643   -3.307284   -1.593072
 C    5.558094   -2.006748    0.533320
 C    4.334007   -1.260575   -1.553571
 C    3.191686   -0.502747   -0.933975
 N    2.999524    0.722443   -1.555353
 C    2.149166    1.799176   -1.266602
 C    1.909412    2.740082   -2.282628
 O    2.554177    2.505101   -3.472608
 C    1.073150    3.823182   -2.070597
 H   -3.049844    0.315874    2.047242
 H   -4.849191    0.884953    0.647443
 H   -5.032617   -0.605077    1.599073
 H   -5.863830   -2.264852   -0.958866
 H   -8.118260   -2.675963   -1.918226
 H   -9.940894   -1.031625   -1.547892
 H   -9.505084    1.013426   -0.208466
 H   -7.260574    1.404714    0.758475
 H   -2.177955   -1.582925   -1.717929
 H    0.251751   -1.355014   -1.228912
 H    1.606087   -0.705082    1.973331
 H    3.713468    3.174965    0.963792
 H    2.614239    3.473638    2.303595
 H    4.273001    2.888601    2.645382
 H    0.253578    3.188006    1.175559
 H   -0.200409    4.846498   -0.666195
 H    3.840369   -4.156031    0.240604
 H    3.122814   -3.670260   -1.301149
 H    6.646027   -2.721591   -1.891510
 H    5.271784   -3.657744   -2.505418
 H    6.122360   -4.187291   -1.043036
 H    4.921303   -1.407374    1.194073
 H    5.915345   -2.871906    1.104602
 H    6.428718   -1.398042    0.262448
 H    5.178522   -0.576746   -1.738185
 H    4.014188   -1.624169   -2.545951
 H    3.477283    0.838593   -2.438345
 H    2.315414    3.200025   -4.097801
 H    0.892660    4.531280   -2.878683
