76 
3gnw_ligand_ani.xyz
 O   -3.310644    1.475149    2.198266
 C   -2.467442    1.676468    1.347782
 C   -2.477023    2.953977    0.542599
 C   -3.690607    3.480795    0.108781
 C   -3.649543    4.674553   -0.603603
 C   -2.422290    5.284161   -0.826889
 C   -1.261152    4.686531   -0.335885
 C    0.097407    5.306592   -0.534141
 N   -1.290247    3.529023    0.336233
 N   -1.404384    0.771901    1.101797
 C   -1.135570   -0.108046    2.224080
 C   -0.713635    0.522030    3.400659
 C   -0.379415   -0.191692    4.536716
 C   -1.020570    0.345832   -0.286574
 C   -1.911766   -0.798331   -0.735482
 S   -3.223160   -0.281366   -1.788792
 O   -2.672252    0.504517   -2.890393
 O   -4.257825    0.294620   -0.929152
 C   -3.839053   -1.791015   -2.511091
 C   -3.917530   -2.996385   -1.566120
 C   -4.282549   -4.220584   -2.411948
 C   -4.989579   -2.805162   -0.483893
 C   -2.524424   -3.221522   -0.934636
 C   -2.000649   -2.034307   -0.165180
 N   -1.590706   -2.334924    1.119291
 C   -1.219463   -1.519967    2.197598
 C   -0.883160   -2.221375    3.374711
 O   -0.991013   -3.587813    3.290007
 C   -0.471018   -1.580670    4.525544
 C    0.482035    0.146416   -0.400695
 C    1.075814   -0.654743   -1.366922
 F    0.305390   -1.321957   -2.254753
 C    2.442586   -0.806088   -1.485195
 C    3.276184   -0.109425   -0.608691
 C    2.720725    0.727555    0.357562
 C    1.336039    0.845946    0.439278
 O    4.608234   -0.296762   -0.788864
 C    5.491266    0.341523    0.118609
 C    6.912882   -0.027111   -0.224422
 C    7.247207   -0.431859   -1.515308
 C    8.567184   -0.735394   -1.834220
 C    9.562374   -0.639591   -0.864958
 C    9.232474   -0.236344    0.425976
 C    7.912944    0.069747    0.742277
 H   -4.620136    2.960182    0.317307
 H   -4.566686    5.124570   -0.976140
 H   -2.352431    6.218104   -1.379464
 H    0.836503    4.516715   -0.695041
 H    0.108680    5.990059   -1.388280
 H    0.395212    5.872435    0.355913
 H   -0.640220    1.606345    3.391569
 H   -0.055038    0.327036    5.433509
 H   -1.278548    1.171192   -0.960116
 H   -3.170321   -1.995038   -3.355536
 H   -4.823492   -1.532376   -2.914251
 H   -5.260507   -4.086353   -2.888818
 H   -4.332365   -5.123595   -1.792937
 H   -3.542677   -4.393882   -3.201984
 H   -5.959237   -2.581379   -0.943822
 H   -4.749405   -1.991881    0.207099
 H   -5.097311   -3.725820    0.100777
 H   -2.576323   -4.102621   -0.280175
 H   -1.813205   -3.468171   -1.741026
 H   -1.577782   -3.316781    1.358780
 H   -0.745623   -3.975231    4.138284
 H   -0.217891   -2.161544    5.410934
 H    2.848885   -1.451103   -2.255505
 H    3.340847    1.288068    1.047658
 H    0.901052    1.508014    1.184362
 H    5.260220    0.030752    1.146997
 H    5.350122    1.431017    0.060083
 H    6.464611   -0.511391   -2.264210
 H    8.819692   -1.049851   -2.844856
 H   10.592693   -0.878509   -1.116061
 H   10.005140   -0.160380    1.187657
 H    7.658840    0.386124    1.752667
