52 
3gol_ligand_ani.xyz
Cl   -5.369122   -1.699719   -1.656915
 C   -3.808038   -1.381263   -0.963198
 C   -3.691712   -1.249120    0.412910
 C   -2.437060   -0.990584    0.956332
Cl   -2.344778   -0.799422    2.686878
 C   -2.699738   -1.259878   -1.789519
 C   -1.461976   -1.009094   -1.211736
 C   -1.292420   -0.875310    0.164752
 C    0.061415   -0.545811    0.790899
 C    1.277354   -0.848143   -0.073441
 C    1.609388   -2.278647   -0.171187
 O    0.853072   -3.134799    0.255018
 C    2.931782   -2.668840   -0.813283
 N    0.098778    0.836427    1.303103
 C    0.949253    1.057783    2.374106
 C    1.051610    2.480448    2.859275
 O    1.556142    0.140858    2.900816
 C   -0.219859    1.898096    0.390771
 C   -1.345943    2.687149    0.618810
 C   -1.627595    3.766225   -0.205302
 C   -0.769578    4.067001   -1.263788
 C    0.341624    3.276049   -1.504038
 O    1.235207    3.517864   -2.518496
 C    0.617418    2.153992   -0.703871
 N    1.744371    1.379009   -1.015671
 C    2.080790    0.070531   -0.698394
 C    3.449782   -0.290531   -1.205095
 C    4.015604   -1.605067   -0.636142
 C    4.388881   -1.441816    0.845150
 C    5.260057   -2.000277   -1.431656
 H   -4.559322   -1.340329    1.057699
 H   -2.804166   -1.360950   -2.864136
 H   -0.578528   -0.903645   -1.834786
 H    0.143255   -1.201986    1.659247
 H    3.241156   -3.631185   -0.396292
 H    2.741091   -2.819353   -1.885162
 H    0.063270    2.840001    3.164179
 H    1.741893    2.514534    3.700519
 H    1.392822    3.136500    2.052556
 H   -1.985109    2.406127    1.452884
 H   -2.503826    4.381063   -0.024018
 H   -0.971464    4.921885   -1.908403
 H    0.947074    4.299084   -3.005905
 H    2.339159    1.824631   -1.700519
 H    4.154108    0.531719   -0.998381
 H    3.403660   -0.382688   -2.304426
 H    3.529935   -1.167153    1.468184
 H    4.804767   -2.376571    1.239736
 H    5.149112   -0.659951    0.957436
 H    5.026933   -2.133911   -2.494606
 H    5.682396   -2.940833   -1.058652
 H    6.034440   -1.228395   -1.351389
