78 
3gpj_ligand_xtb.xyz
 C   -3.888173    0.472868   -0.458834
 C   -4.708792   -3.014504   -0.320634
 C   -6.122064   -2.412922    1.664070
 C   -5.976105   -2.307921    0.147817
 O   -7.408178    0.743948    0.789188
 C   -7.263545   -0.153419    0.000601
 C   -5.941308   -0.827101   -0.303062
 O   -8.275507   -0.675637   -0.695818
 N   -4.867599   -0.093299    0.318253
 N   -3.113734    1.381622    0.208226
 C   -1.827654    1.755207   -0.336123
 C   -0.737816    1.133953    0.542050
 N    0.483485    1.126367   -0.008606
 C    1.643815    0.548867    0.624842
 C    1.558656   -0.988547    0.650527
 C    1.481200   -1.574087   -0.763613
 C    1.785915   -3.073622   -0.829807
 C    3.284363   -3.398392   -0.887700
 N    3.958348   -3.022108    0.331037
 C    4.974076   -2.162720    0.548731
 O    5.194875   -1.768824    1.684107
 C    5.858318   -1.769586   -0.618264
 C    5.454697   -0.474177   -1.337344
 C    5.278061    0.768254   -0.443472
 C    6.449094    1.066743    0.502304
 C    6.166926    2.351671    1.281013
 C    7.758833    1.218861   -0.268577
 N    4.048145    0.640519    0.319573
 C    2.862110    0.987870   -0.194614
 O    2.726119    1.578939   -1.252039
 O   -0.980650    0.679807    1.646088
 C   -1.667795    3.287526   -0.428178
 C   -1.844395    3.940221    0.940799
 C   -2.670879    3.851515   -1.430030
 O   -3.732814    0.188985   -1.630999
 H   -3.834451   -2.542421    0.120082
 H   -4.616058   -2.959269   -1.401960
 H   -4.728606   -4.060310   -0.023271
 H   -6.216919   -3.455544    1.958394
 H   -7.002622   -1.877124    2.012083
 H   -5.246108   -1.997207    2.155752
 H   -6.845368   -2.768203   -0.332388
 H   -5.770576   -0.798382   -1.387086
 H   -9.107405   -0.226123   -0.475697
 H   -5.111694    0.362979    1.185408
 H   -3.110119    1.332467    1.219394
 H   -1.772126    1.326476   -1.343838
 H    0.668701    1.521318   -0.923738
 H    1.718601    0.918346    1.655244
 H    0.668106   -1.267511    1.215935
 H    2.427821   -1.365084    1.185756
 H    2.173861   -1.044458   -1.420916
 H    0.476007   -1.400656   -1.151938
 H    1.330621   -3.489004   -1.730337
 H    1.336971   -3.577105    0.028950
 H    3.738405   -2.873853   -1.727923
 H    3.407406   -4.477463   -1.047478
 H    3.488894   -3.321884    1.177598
 H    6.859785   -1.646290   -0.203208
 H    5.891020   -2.582460   -1.345193
 H    6.212646   -0.256952   -2.091255
 H    4.509251   -0.621257   -1.864817
 H    5.127125    1.624612   -1.112756
 H    6.537535    0.241009    1.214495
 H    5.245236    2.270748    1.850921
 H    6.075141    3.194857    0.599242
 H    6.979286    2.555971    1.973976
 H    7.659825    1.986118   -1.033833
 H    8.059394    0.291050   -0.746927
 H    8.553317    1.516874    0.411365
 H    4.108778    0.119951    1.182047
 H   -0.652963    3.491664   -0.787421
 H   -2.869204    3.824471    1.284318
 H   -1.621624    5.003009    0.880691
 H   -1.178680    3.489395    1.673241
 H   -3.684154    3.616588   -1.114403
 H   -2.512922    3.420141   -2.415305
 H   -2.568621    4.931715   -1.501834
