31 
3gqz_ligand_dft.xyz
 O   -5.133486   -1.698183   -0.105583
 C   -4.733377   -0.553745   -0.003380
 C   -5.708866    0.600666    0.111442
 C   -3.268261   -0.257145    0.015230
 C   -2.749902    1.034877    0.134250
 C   -1.382826    1.268912    0.148866
 C   -2.372462   -1.322533   -0.092999
 C   -1.004683   -1.107972   -0.082738
 C   -0.491838    0.192189    0.038597
 N    0.903174    0.382866    0.064935
 C    1.565438    1.569760   -0.202189
 O    1.064021    2.653564   -0.410552
 C    1.819205   -0.745651    0.215203
 C    3.168958   -0.080322    0.494956
 C    3.057854    1.271889   -0.220944
 C    4.343082   -0.912841    0.042495
 O    4.280634   -1.950759   -0.570374
 O    5.506986   -0.341620    0.398432
 H   -5.570818    1.130859    1.060421
 H   -6.724506    0.206460    0.061217
 H   -5.557990    1.325170   -0.696316
 H   -3.416639    1.887395    0.221568
 H   -0.999397    2.275356    0.233045
 H   -2.772901   -2.326161   -0.191396
 H   -0.338996   -1.957547   -0.184015
 H    1.500827   -1.390722    1.038226
 H    1.868483   -1.349968   -0.698172
 H    3.281899    0.100982    1.569272
 H    3.621244    2.078181    0.249012
 H    3.373471    1.204442   -1.269321
 H    6.213933   -0.917030    0.063791
