31 
3gqz_ligand_ani.xyz
 O   -5.135585   -1.694485   -0.087311
 C   -4.732728   -0.548174   -0.032176
 C   -5.698282    0.616997   -0.007678
 C   -3.266561   -0.262808    0.009422
 C   -2.748700    1.029799    0.097107
 C   -1.383189    1.266087    0.126958
 C   -2.375339   -1.334946   -0.045004
 C   -1.009207   -1.116380   -0.014955
 C   -0.492863    0.185546    0.068151
 N    0.901707    0.378971    0.102403
 C    1.563085    1.577949   -0.130747
 O    1.051945    2.664107   -0.313958
 C    1.822734   -0.748899    0.240890
 C    3.178259   -0.089881    0.503755
 C    3.052277    1.291704   -0.147316
 C    4.342530   -0.922351    0.005473
 O    4.277085   -2.044749   -0.434821
 O    5.512502   -0.258577    0.108113
 H   -5.569294    1.208855    0.905416
 H   -6.716168    0.226653   -0.049799
 H   -5.524187    1.282459   -0.860704
 H   -3.418496    1.885214    0.138068
 H   -1.006820    2.277280    0.183328
 H   -2.773550   -2.343227   -0.108879
 H   -0.341484   -1.969987   -0.063694
 H    1.524974   -1.401005    1.066659
 H    1.858654   -1.349440   -0.674811
 H    3.311165    0.036149    1.582503
 H    3.605045    2.077941    0.367659
 H    3.383777    1.280409   -1.191941
 H    6.194754   -0.862309   -0.230101
