29 
3gs7_ligand_ani.xyz
 C   -3.438919    2.385253   -0.567224
 O   -3.354045    1.574881    0.591894
 C   -3.055341    0.259926    0.315218
 C   -4.088696   -0.645117    0.121985
 C   -3.790488   -1.982878   -0.112722
 C   -2.461740   -2.398730   -0.167019
 C   -1.429827   -1.485172    0.013002
 C   -1.709140   -0.135966    0.260692
 C   -0.685482    0.892623    0.521679
 N    0.549513    0.956468    0.190578
 O    0.974339   -0.104785   -0.574078
 C    2.354208    0.087230   -0.879142
 C    3.211933   -0.113618    0.361644
 C    4.691523   -0.035918    0.036293
 O    5.525030   -0.216354    1.086436
 O    5.134566    0.168268   -1.062061
 H   -3.655492    3.399867   -0.225870
 H   -2.491552    2.380517   -1.122978
 H   -4.246442    2.050084   -1.232697
 H   -5.112503   -0.281548    0.164634
 H   -4.594668   -2.698595   -0.259441
 H   -2.225434   -3.443117   -0.355360
 H   -0.398547   -1.808521   -0.032476
 H   -1.003525    1.761095    1.093451
 H    2.500462    1.082106   -1.308622
 H    2.589163   -0.662972   -1.636878
 H    2.984852   -1.090578    0.809256
 H    2.965322    0.644682    1.115482
 H    5.014472   -0.370179    1.893508
