29 
3gs7_ligand_xtb.xyz
 C   -4.419179    2.293862   -0.032073
 O   -3.133345    1.726685   -0.096003
 C   -2.998960    0.378121    0.033117
 C   -4.061472   -0.487611    0.254967
 C   -3.842666   -1.850215    0.375659
 C   -2.563664   -2.365777    0.275142
 C   -1.497311   -1.514693    0.053892
 C   -1.685841   -0.139069   -0.070285
 C   -0.598238    0.796142   -0.304864
 N    0.650436    0.642258   -0.469923
 O    1.198455   -0.638125   -0.436787
 C    2.586080   -0.575374   -0.692004
 C    3.342168    0.139523    0.429275
 C    4.832360    0.179518    0.162519
 O    5.548922    0.823378    1.104443
 O    5.367842   -0.309731   -0.786828
 H   -4.272436    3.364109   -0.170057
 H   -5.067145    1.912828   -0.827668
 H   -4.890748    2.117185    0.939827
 H   -5.069280   -0.111671    0.335992
 H   -4.682962   -2.506298    0.548499
 H   -2.396168   -3.427776    0.367966
 H   -0.499784   -1.912032   -0.027472
 H   -0.887562    1.838365   -0.356321
 H    2.777040   -0.066986   -1.643068
 H    2.906209   -1.615561   -0.773350
 H    3.160534   -0.371642    1.379855
 H    2.955652    1.160289    0.509841
 H    4.998963    1.179156    1.814741
