38 
3gsm_ligand_dft.xyz
 C    7.012538    0.220350    0.367008
 C    5.764784   -0.660528    0.343440
 C    4.493345    0.136614    0.051657
 C    3.250174   -0.746388    0.014951
 C    1.976317    0.029666   -0.274702
 O    1.999651    1.185910   -0.696651
 N    0.831105   -0.647948   -0.027724
 C   -0.492167   -0.240392   -0.470402
 C   -1.029834    1.037958    0.195900
 O   -0.441849    2.216146   -0.280168
 C   -2.515574    1.189677   -0.111825
 O   -3.039674    2.316703    0.541895
 C   -3.284966   -0.031104    0.350354
 C   -4.760173    0.000583   -0.006109
 O   -5.431737   -1.151395    0.441996
 O   -2.751005   -1.208752   -0.298049
 C   -1.419250   -1.431680   -0.232629
 N   -0.931322   -2.588966   -0.077725
 H    7.157165    0.720153   -0.597346
 H    6.929077    0.997830    1.134786
 H    7.911988   -0.366181    0.579918
 H    5.660346   -1.175993    1.307682
 H    5.884783   -1.446770   -0.414317
 H    4.589488    0.660230   -0.905637
 H    4.362083    0.916301    0.811797
 H    3.130196   -1.284725    0.963961
 H    3.355734   -1.517397   -0.761190
 H    0.885850   -1.635865    0.201272
 H   -0.482589   -0.052388   -1.555620
 H   -0.903659    0.937199    1.287564
 H    0.512417    2.048756   -0.436021
 H   -2.623029    1.282441   -1.206255
 H   -2.401398    3.027726    0.382362
 H   -3.177088   -0.161205    1.434346
 H   -4.860452    0.135777   -1.094712
 H   -5.218033    0.860094    0.486935
 H   -4.994260   -1.906254    0.028573
 H   -1.671351   -3.278765    0.052008
