73 
3gt9_ligand_dft.xyz
 O    1.687389   -0.017463   -2.191385
 C    1.932578    0.500347   -1.090096
 C    2.297966   -0.398267    0.105758
 C    3.819023   -0.588814    0.239091
 C    4.148411   -1.357863    1.525753
 C    5.659683   -1.523420    1.708128
 C    6.299810   -2.190745    0.488633
 C    5.973168   -1.420465   -0.792690
 C    4.460771   -1.265716   -0.980558
 N    1.566027   -1.642655   -0.109548
 C    0.279936   -1.687383    0.359479
 O   -0.062732   -1.247681    1.438401
 C   -0.770340   -2.171869   -0.654622
 C   -0.436434   -3.452384   -1.405813
 N   -0.925909   -1.000353   -1.604475
 C   -2.013021   -1.135678   -2.607909
 N    1.895883    1.829172   -0.912046
 C    1.674560    2.467155    0.384638
 C    1.769298    3.961146    0.027613
 C    1.109274    4.024624   -1.353457
 C    1.542625    2.719728   -2.030942
 C    0.298944    2.089966    0.911369
 S   -0.168934    2.378798    2.549389
 C   -1.736940    1.767818    2.195503
 C   -1.809879    1.388592    0.889678
 N   -0.640712    1.565992    0.172148
 C   -3.003187    0.891678    0.161774
 C   -3.405698    1.593989   -0.955946
 C   -4.546351    1.210714   -1.692826
 C   -5.270128    0.112484   -1.308075
 C   -4.874752   -0.660288   -0.184461
 C   -5.596961   -1.822557    0.196789
 C   -3.724321   -0.277087    0.568283
 C   -3.326624   -1.091283    1.665125
 C   -4.042319   -2.213622    1.997900
 C   -5.194662   -2.580479    1.264315
 H    1.915367    0.013311    1.040664
 H    4.246809    0.422484    0.326089
 H    3.671367   -2.345587    1.475833
 H    3.714799   -0.842525    2.392033
 H    6.116692   -0.535721    1.861398
 H    5.860490   -2.105457    2.613631
 H    5.922517   -3.218844    0.397856
 H    7.384129   -2.263175    0.621984
 H    6.434665   -0.424326   -0.746492
 H    6.402995   -1.924988   -1.664285
 H    4.019799   -2.265670   -1.107460
 H    4.246305   -0.704353   -1.896528
 H    1.703907   -1.985303   -1.052836
 H   -1.718176   -2.259163   -0.119414
 H   -0.150601   -4.224440   -0.687250
 H    0.390960   -3.322978   -2.112571
 H   -1.301213   -3.823956   -1.960433
 H   -0.015746   -0.805539   -2.069106
 H   -1.087367   -0.141081   -1.048485
 H   -2.108864   -0.187017   -3.134831
 H   -1.760117   -1.928925   -3.310061
 H   -2.944612   -1.358402   -2.086330
 H    2.446338    2.184068    1.105764
 H    1.288345    4.599344    0.771755
 H    2.826510    4.238287   -0.032445
 H    1.413407    4.905514   -1.921502
 H    0.020744    4.049571   -1.246755
 H    2.419890    2.847154   -2.671421
 H    0.750571    2.262739   -2.628356
 H   -2.514451    1.735186    2.945459
 H   -2.848502    2.477980   -1.252936
 H   -4.854190    1.800071   -2.550631
 H   -6.159307   -0.182566   -1.858553
 H   -6.478852   -2.099218   -0.374468
 H   -2.426089   -0.840907    2.214154
 H   -3.721668   -2.826622    2.834515
 H   -5.754765   -3.465573    1.548491
