73 
3gt9_ligand_xtb.xyz
 O    1.456602   -0.321261   -2.030359
 C    1.808098    0.317520   -1.027259
 C    1.991294   -0.425757    0.305035
 C    3.483232   -0.684063    0.584179
 C    3.662025   -1.344429    1.952351
 C    5.145310   -1.529489    2.262222
 C    5.826379   -2.355275    1.175499
 C    5.634761   -1.702662   -0.189879
 C    4.147379   -1.541394   -0.495619
 N    1.231869   -1.651560    0.168987
 C   -0.091111   -1.641133    0.445355
 O   -0.603278   -1.018043    1.341610
 C   -0.937472   -2.423533   -0.588314
 C   -0.409055   -3.816591   -0.893704
 N   -0.931322   -1.528770   -1.787767
 C   -1.502116   -2.104518   -3.013615
 N    2.107346    1.611647   -1.070228
 C    1.912789    2.492039    0.074210
 C    2.167084    3.889198   -0.502666
 C    1.617237    3.764924   -1.921349
 C    2.044414    2.357705   -2.324478
 C    0.488349    2.327924    0.527342
 S   -0.155328    3.135151    1.926159
 C   -1.660408    2.372129    1.611872
 C   -1.583452    1.573975    0.505718
 N   -0.357281    1.578053   -0.091835
 C   -2.658540    0.810853   -0.125456
 C   -2.722230    0.831101   -1.508130
 C   -3.777406    0.207756   -2.195312
 C   -4.747294   -0.455917   -1.498185
 C   -4.685144   -0.554221   -0.091303
 C   -5.669140   -1.260785    0.631635
 C   -3.617708    0.067519    0.616293
 C   -3.543460   -0.109785    2.012978
 C   -4.506485   -0.814124    2.681625
 C   -5.590224   -1.376501    1.990868
 H    1.550740    0.128619    1.135124
 H    3.982939    0.291000    0.597715
 H    3.162488   -2.315055    1.950687
 H    3.195144   -0.731295    2.725710
 H    5.626591   -0.551349    2.328908
 H    5.256856   -2.021929    3.228808
 H    5.399353   -3.360335    1.161146
 H    6.890364   -2.448698    1.394713
 H    6.117766   -0.723399   -0.197975
 H    6.103369   -2.311861   -0.964007
 H    3.691359   -2.533982   -0.513130
 H    4.015792   -1.084215   -1.478946
 H    1.549549   -2.211419   -0.610859
 H   -1.963012   -2.482681   -0.209798
 H   -0.201215   -4.329746    0.041775
 H    0.506215   -3.790227   -1.480579
 H   -1.147124   -4.403487   -1.433750
 H    0.062229   -1.178683   -1.970776
 H   -1.483219   -0.666659   -1.546993
 H   -1.524498   -1.342895   -3.789308
 H   -0.896911   -2.936208   -3.364388
 H   -2.518094   -2.448347   -2.826807
 H    2.601114    2.262267    0.892673
 H    1.677896    4.665787    0.080874
 H    3.238630    4.086225   -0.524387
 H    2.014102    4.522509   -2.591446
 H    0.529808    3.842422   -1.908510
 H    3.040728    2.356100   -2.775675
 H    1.350524    1.870609   -3.010851
 H   -2.511001    2.582150    2.227037
 H   -2.003464    1.424789   -2.057119
 H   -3.828963    0.287579   -3.270804
 H   -5.581396   -0.908849   -2.012787
 H   -6.485111   -1.711342    0.086087
 H   -2.693849    0.283651    2.545348
 H   -4.434732   -0.945042    3.750389
 H   -6.349237   -1.914370    2.537783
