73 
3gur_ligand_dft.xyz
 C    1.964239   -2.560850   -2.796467
 N    2.293789   -2.187994   -0.416316
 S   -0.080261    0.562465    1.707264
 C   -4.077343   -1.704818    0.334970
 N   -2.012823   -2.578443   -0.560689
 O   -4.702565   -2.302181   -0.524641
 C   -6.246013    0.606669    0.911719
 N   -4.633268   -1.136444    1.437631
 C    1.813024    2.923183   -0.810757
 C    1.337871    1.648833   -0.420102
 O    1.938920   -1.364418   -2.939857
 O    1.796242   -3.450925   -3.772721
 O   -5.355933    1.340131    0.548735
 O   -7.538182    0.933171    0.905773
 C    2.232999   -3.246012   -1.461315
 N    3.080973    2.834692   -1.092686
 C   -2.576880   -1.470894    0.174537
 O    3.400078    1.536514   -0.907474
 C   -6.035138   -0.802331    1.447300
 N    2.329621    0.807867   -0.494746
 O    0.365655    5.657690   -2.547694
 N    0.711214    4.509050   -2.360914
 O    0.824312    3.632543   -3.192254
 O    4.398825   -2.614800    1.308867
 C    1.248753   -4.380585   -1.118177
 C   -2.435424   -0.149693   -0.617500
 C   -0.784118   -3.054650   -0.306780
 C    4.117131   -1.946926    2.546636
 O   -0.120794   -2.667477    0.662572
 C    4.471313   -0.465777    2.503482
 C    4.043475    0.272565    3.780173
 C    2.539355    0.570201    3.840755
 C    2.133257    1.772814    2.984472
 C    0.622076    1.877462    2.775776
 C   -0.057905    1.372062    0.046028
 C   -0.834199    2.667109    0.080489
 C   -0.391812    3.870333   -0.290779
 C    0.962676    4.135590   -0.894438
 C   -0.244811   -4.082437   -1.289126
 S   -0.753908    0.211808   -1.210227
 H    2.319342   -1.240117   -0.829734
 H    3.133259   -2.303270    0.194442
 H    1.433777   -2.242356    0.177435
 H   -2.601369   -2.978535   -1.282257
 H   -4.032040   -0.552796    2.002829
 H    1.675730   -2.964920   -4.606435
 H   -7.617005    1.835532    0.554877
 H    3.232524   -3.687170   -1.534442
 H   -2.062887   -1.403772    1.134549
 H   -6.569272   -1.514430    0.814045
 H   -6.451964   -0.877075    2.455619
 H    5.329938   -2.477181    1.091953
 H    1.449984   -4.702703   -0.091845
 H    1.500698   -5.219788   -1.771092
 H   -3.037115   -0.227578   -1.528741
 H   -2.850847    0.685430   -0.048840
 H    3.045939   -2.097012    2.709172
 H    4.648362   -2.453413    3.361740
 H    3.999939   -0.013155    1.621435
 H    5.556100   -0.365437    2.367158
 H    4.598816    1.214548    3.855326
 H    4.339019   -0.322290    4.653458
 H    2.243541    0.761323    4.879066
 H    1.972394   -0.314059    3.520686
 H    2.475081    2.693742    3.474090
 H    2.637551    1.737345    2.012630
 H    0.097091    1.780282    3.731662
 H    0.337009    2.847284    2.356663
 H   -1.841901    2.587614    0.477637
 H   -1.049030    4.731311   -0.224873
 H    1.440022    5.018433   -0.466449
 H   -0.461215   -3.760940   -2.314227
 H   -0.798933   -5.017395   -1.141918
