22 
3guz_ligand_ani.xyz
 O   -1.461374    1.260515    0.927516
 C   -1.528442    0.398679    0.086261
 O   -2.712041    0.044031   -0.464890
 C   -0.385718   -0.412811   -0.519041
 O   -0.758735   -1.775562   -0.561388
 C    0.948646   -0.301235    0.233400
 C    1.973218   -1.157460   -0.520840
 C    0.820740   -0.809322    1.672504
 C    1.424717    1.150422    0.257938
 O    1.415647    1.651076   -1.066908
 H   -3.388803    0.593766   -0.035010
 H   -0.230299   -0.015474   -1.534255
 H   -1.660729   -1.809164   -0.904387
 H    2.956782   -1.076957   -0.044030
 H    2.074155   -0.828176   -1.559633
 H    1.667723   -2.206380   -0.514188
 H    1.801517   -0.790812    2.162086
 H    0.135115   -0.188261    2.257327
 H    0.448841   -1.838400    1.680742
 H    0.769689    1.738549    0.910240
 H    2.445793    1.173465    0.678303
 H    1.593262    2.597725   -1.033156
