27 
3gvb_ligand_ani.xyz
 O   -0.165113    2.389419   -0.700272
 C    0.467729    1.385061   -0.392723
 C    1.974887    1.287670   -0.369195
 N   -0.057145    0.172642   -0.025263
 C    0.998039   -0.815789    0.233033
 C    2.238384    0.040151    0.481706
 C    3.531019   -0.685107    0.169117
 O    4.600730    0.131513    0.265579
 O    3.636434   -1.849620   -0.132658
 C   -1.427184   -0.220965   -0.055891
 C   -2.506872    0.642761    0.256769
 O   -2.412230    1.951832    0.557674
 C   -3.800709    0.101585    0.316080
 C   -4.057422   -1.226885    0.021415
 C   -3.005357   -2.068326   -0.321906
 C   -1.714954   -1.562307   -0.344723
 H    2.420327    2.202237    0.021640
 H    2.321932    1.155633   -1.400192
 H    1.167291   -1.461951   -0.636103
 H    0.744729   -1.443260    1.089788
 H    2.273261    0.328986    1.536448
 H    5.375897   -0.413768    0.050466
 H   -1.613141    2.333784    0.125232
 H   -4.602335    0.781686    0.591295
 H   -5.076280   -1.602456    0.060509
 H   -3.180674   -3.114498   -0.556041
 H   -0.894920   -2.227126   -0.590879
