25 
3gxt_ligand_ani.xyz
 C    0.046381    1.636570    0.328472
 C    1.424035    0.981247    0.382290
 O    2.013757    1.087337   -0.905046
 C    1.260301   -0.489543    0.806202
 O    0.653032   -0.600282    2.081879
 C    0.367195   -1.253398   -0.176171
 O    1.113612   -1.521632   -1.379907
 C   -0.890866   -0.490005   -0.605036
 N   -0.688268    1.001033   -0.795162
 C   -2.083304   -0.642095    0.333584
 O   -3.017823    0.330211   -0.136181
 H   -0.482629    1.473407    1.265691
 H    0.140829    2.708780    0.158179
 H    2.069282    1.504157    1.101494
 H    2.004520    0.195585   -1.294324
 H    2.250784   -0.979390    0.810941
 H    1.226144   -0.160143    2.722842
 H    0.057091   -2.193705    0.295380
 H    1.672382   -2.295736   -1.230001
 H   -1.168869   -0.897613   -1.575704
 H   -1.656692    1.378468   -0.874869
 H   -0.104811    1.160576   -1.639430
 H   -2.493308   -1.659673    0.265840
 H   -1.785835   -0.448062    1.373707
 H   -3.754095    0.384394    0.484377
