49 
3gy3_ligand_xtb.xyz
 C    3.013926    0.694914    0.086478
 C    4.208772    1.115640   -0.491153
 C    5.286181    0.252734   -0.550888
 C    5.208898   -1.036243   -0.035976
 C    4.006436   -1.456807    0.530017
 C    2.925458   -0.605472    0.588603
 C    1.883627    2.761526   -0.315960
 C    0.494953    3.346884   -0.076276
 C    6.390934   -1.914191   -0.120926
 C   -0.568694    2.580719   -0.859077
 C   -3.237278    0.708564    0.743620
 C   -4.335568    0.892242   -0.090572
 C   -5.097704   -0.194784   -0.477789
 C   -4.783312   -1.483105   -0.063585
 C   -3.682039   -1.661929    0.772736
 C   -2.925813   -0.584201    1.174159
 C   -2.529684    3.004539    0.718893
 C   -1.975798    3.156689   -0.702731
 C   -5.623100   -2.632413   -0.483764
 O    1.893059    1.450035    0.208628
 O   -2.424885    1.688996    1.218096
 N    7.238929   -1.701430   -1.040152
 N    6.455386   -2.938824    0.794492
 N   -6.885897   -2.623999   -0.638353
 N   -4.955658   -3.815239   -0.652469
 H    4.309161    2.110630   -0.895653
 H    6.213585    0.565113   -1.003462
 H    3.899483   -2.465670    0.901197
 H    1.988499   -0.923406    1.018671
 H    2.643113    3.376248    0.187697
 H    2.105299    2.740721   -1.392319
 H    0.501243    4.397221   -0.374756
 H    0.283200    3.286145    0.991011
 H   -0.566409    1.542944   -0.523490
 H   -0.306075    2.591395   -1.919736
 H   -4.615053    1.873947   -0.439913
 H   -5.944316   -0.037756   -1.131988
 H   -3.434794   -2.651818    1.126629
 H   -2.078496   -0.710788    1.829756
 H   -3.567673    3.359221    0.760658
 H   -1.940782    3.604069    1.417233
 H   -2.635096    2.640443   -1.403281
 H   -1.978912    4.219097   -0.954831
 H    8.028896   -2.342746   -1.040544
 H    7.318185   -3.456091    0.852548
 H    5.927811   -2.869544    1.647475
 H   -7.328299   -1.739940   -0.410065
 H   -5.509970   -4.556429   -1.050219
 H   -3.988480   -3.780634   -0.925898
