19 
3gy4_ligand_dft.xyz
 N   -2.895804    1.064142    0.478462
 N   -2.806054   -1.055360   -0.408322
 C   -2.178794    0.094542    0.046265
 C   -0.689143    0.043564    0.017676
 C    1.391535   -1.184285    0.230736
 C    0.005291   -1.149630    0.238508
 C    0.053763    1.202136   -0.224829
 C    1.439053    1.177392   -0.242326
 C    2.132497   -0.019257   -0.010682
 N    3.520331   -0.059075   -0.075116
 H   -2.301381    1.777713    0.898099
 H   -3.808010   -0.941172   -0.493550
 H   -2.378461   -1.507471   -1.204437
 H    1.910616   -2.121767    0.414216
 H   -0.552323   -2.058472    0.444853
 H   -0.463946    2.136686   -0.424486
 H    1.995062    2.088126   -0.450017
 H    3.955514   -0.826519    0.416367
 H    3.988414    0.818162    0.101707
