17 
3gy7_ligand_ani.xyz
 C   -0.212701   -0.039060   -0.024716
 C    0.521662   -1.209410    0.176504
 C    1.909998   -1.168334    0.209513
 C    2.578844    0.039007    0.021638
 C    1.853039    1.205946   -0.203093
 C    0.462631    1.166357   -0.222224
 C   -1.707449   -0.108238   -0.045388
 N   -2.348476    1.064918    0.343120
 N   -2.269857   -1.188104   -0.429247
 H   -0.017126   -2.143807    0.303329
 H    2.472591   -2.082914    0.377619
 H    3.664946    0.068289    0.045051
 H    2.369651    2.150692   -0.354553
 H   -0.106283    2.073631   -0.410785
 H   -3.336682    0.968891    0.534782
 H   -1.867300    1.613678    1.043598
 H   -3.287603   -1.103774   -0.409553
