17 
3gy7_ligand_xtb.xyz
 C   -0.214444   -0.032235   -0.016211
 C    0.517405   -1.199600    0.181275
 C    1.898469   -1.163233    0.202069
 C    2.565075    0.037504    0.017944
 C    1.843855    1.199791   -0.195739
 C    0.460712    1.168744   -0.211006
 C   -1.690535   -0.106880   -0.032983
 N   -2.357873    1.032459    0.347897
 N   -2.234801   -1.180231   -0.430185
 H   -0.021446   -2.124535    0.311424
 H    2.458992   -2.072787    0.360403
 H    3.644747    0.066957    0.032919
 H    2.360696    2.135161   -0.354835
 H   -0.090244    2.078145   -0.404929
 H   -3.354401    0.969481    0.482006
 H   -1.880631    1.723894    0.900153
 H   -3.252219   -1.166451   -0.423222
