70 
3gyn_ligand_dft.xyz
 O    8.615619    0.734905   -0.542722
 S    7.255570    0.355091   -0.885181
 O    6.564714    0.985289   -1.999098
 C    7.154300   -1.408907   -1.116628
 N    6.387285    0.547704    0.550430
 C    4.959449    0.609089    0.478638
 C    4.283994    1.732536   -0.018610
 C    4.234287   -0.492416    0.904880
 C    2.845437   -0.464748    0.825977
 S    1.918904   -1.795318    1.497174
 O    2.539795   -3.073048    1.209533
 O    1.529342   -1.474948    2.857908
 N    0.583568   -1.647773    0.487462
 C    0.051198   -0.426509    0.180181
 N    0.772722    0.671351    0.139008
 C    2.147053    0.637834    0.311493
 C    2.904334    1.748402   -0.095210
 C   -1.364169   -0.350291   -0.176660
 C   -2.206625   -1.572965   -0.169653
 O   -1.719385   -2.703722   -0.019714
 N   -3.540662   -1.405975   -0.375325
 C   -4.423124   -2.569629   -0.381333
 C   -5.333046   -2.668993    0.862315
 C   -6.576721   -3.397044    0.348212
 C   -5.380292   -2.616029   -1.608533
 C   -6.799668   -2.759762   -1.029957
 C   -4.125794   -0.079564   -0.288649
 C   -3.324091    0.952584   -1.081375
 C   -3.357058    0.628879   -2.588802
 C   -1.885036    0.849454   -0.625982
 O   -1.184361    1.945045   -0.743120
 C   -3.888531    2.367917   -0.852691
 C   -3.937287    2.843784    0.603688
 C   -4.112718    4.362039    0.747997
 C   -4.075957    4.760524    2.225166
 C   -5.401366    4.858943    0.087298
 H    7.668279   -1.639536   -2.051574
 H    6.102629   -1.692877   -1.189655
 H    7.637730   -1.902319   -0.273569
 H    6.835561    1.282137    1.091392
 H    4.858340    2.582232   -0.372046
 H    4.745367   -1.363995    1.300956
 H   -0.081075   -2.438690    0.417211
 H    2.383434    2.610082   -0.499289
 H   -3.754885   -3.429179   -0.403353
 H   -4.831840   -3.171201    1.694170
 H   -5.618868   -1.667105    1.207318
 H   -6.367917   -4.468359    0.236121
 H   -7.438038   -3.296325    1.014962
 H   -5.127742   -3.480044   -2.230910
 H   -5.271919   -1.732809   -2.245788
 H   -7.259204   -1.771082   -0.900960
 H   -7.462812   -3.344926   -1.673228
 H   -4.197526    0.227383    0.762847
 H   -5.144215   -0.123248   -0.686466
 H   -3.014764   -0.390837   -2.786450
 H   -2.719454    1.324047   -3.142864
 H   -4.380971    0.729196   -2.965898
 H   -0.235003    1.712177   -0.417555
 H   -4.895541    2.388450   -1.287730
 H   -3.282344    3.067450   -1.438565
 H   -3.011502    2.554300    1.116937
 H   -4.760052    2.348655    1.138636
 H   -3.261245    4.841136    0.243497
 H   -3.146035    4.433628    2.703293
 H   -4.912220    4.304483    2.770016
 H   -4.154368    5.846506    2.344401
 H   -6.276405    4.360536    0.524301
 H   -5.525068    5.937077    0.235427
 H   -5.409500    4.670623   -0.991363
