33 
3h03_ligand_ani.xyz
 N   -0.279803   -1.400708    0.410393
 C    0.633094   -0.454551    0.838193
 O    0.295994    0.526869    1.490455
 N    1.947216   -0.652909    0.450555
 C    2.420110   -1.755699   -0.291041
 O    3.593692   -1.822483   -0.611880
 C    1.401411   -2.743540   -0.608281
 C    0.123906   -2.526956   -0.263810
 C   -1.696794   -1.141165    0.675928
 C   -2.319194   -0.138519   -0.311366
 N   -1.769958    1.240849   -0.160414
 C   -3.832050   -0.124728   -0.179358
 O   -4.327490    1.119380   -0.362176
 O   -4.529695   -1.084722    0.023463
 C    2.882510    0.436340    0.722731
 C    2.904432    1.496593   -0.389400
 C    1.582256    2.209830   -0.507344
 O    1.462700    3.210033    0.377062
 O    0.699351    1.920083   -1.286278
 H    1.704886   -3.631545   -1.146984
 H   -0.667294   -3.234426   -0.496991
 H   -2.235190   -2.086315    0.622022
 H   -1.775948   -0.747663    1.690852
 H   -2.116444   -0.480003   -1.332071
 H   -2.541364    1.922320   -0.200063
 H   -1.267513    1.309131    0.742102
 H   -1.077281    1.429583   -0.901601
 H   -5.293333    1.044026   -0.294769
 H    3.868383   -0.019148    0.804075
 H    2.601372    0.884851    1.676990
 H    3.682542    2.232769   -0.166766
 H    3.124479    1.017901   -1.345430
 H    0.556025    3.548982    0.282216
