56 
3h06_ligand_xtb.xyz
 C   -1.710237    1.675385   -1.330576
 C   -2.928689    0.750509   -1.450867
 C   -2.456940   -0.649686   -1.904711
 C   -3.382988   -1.791734   -1.506980
 C   -3.770134   -1.710454   -0.023843
 C   -4.584423   -0.420083    0.157287
 C   -3.752748    0.821069   -0.143139
 C   -2.589511   -1.804270    0.902714
 C    0.479545    0.713759   -0.569486
 C    4.749087   -1.221935    0.230994
 N    3.751193    0.246768   -1.334093
 C    3.577925   -0.195158    0.074244
 C    2.239692   -0.881818    0.360865
 N    1.049927   -0.021156    0.656652
 C    1.243092    0.937533    1.781890
 C   -0.104933    1.540144    2.153396
 C   -0.735204    2.241471    0.944062
 O    0.051106    3.291790    0.475292
 N   -0.852758    1.221475   -0.169592
 O   -1.582952   -1.056262    0.909616
 O   -2.701155   -2.785156    1.731474
 O    1.347460    1.637762   -1.030375
 O    4.425638   -2.235274   -0.672518
 O    5.873240   -0.498119   -0.137243
 H   -1.116635    1.662129   -2.245518
 H   -2.024118    2.704139   -1.154142
 H   -3.559291    1.147901   -2.249122
 H   -2.361458   -0.644044   -2.990629
 H   -1.469414   -0.885269   -1.502391
 H   -2.902297   -2.743839   -1.732131
 H   -4.306093   -1.748988   -2.082972
 H   -4.409725   -2.560671    0.224046
 H   -4.982693   -0.351101    1.169425
 H   -5.433069   -0.482341   -0.522451
 H   -3.118980    0.996885    0.728946
 H   -4.427528    1.674822   -0.210218
 H    0.341625   -0.055674   -1.347243
 H    4.819273   -1.599353    1.262459
 H    3.086165    0.971856   -1.643217
 H    3.719989   -0.593588   -1.938289
 H    4.734859    0.583867   -1.395728
 H    3.774292    0.646531    0.740803
 H    1.997239   -1.549547   -0.470598
 H    2.391620   -1.512898    1.241008
 H    0.281655   -0.670366    0.947565
 H    1.671144    0.412776    2.636529
 H    1.928305    1.729105    1.472756
 H    0.040765    2.274884    2.947665
 H   -0.785744    0.778347    2.535258
 H   -1.750243    2.568403    1.193164
 H   -0.311803    4.165414    0.672471
 H   -1.387954    0.341803    0.235501
 H   -1.997616   -2.922971    2.390551
 H    1.169479    2.528843   -0.645596
 H    5.094408   -2.934069   -0.698415
 H    6.707391   -0.928925    0.094684
