56 
3h06_ligand_dft.xyz
 C   -1.738294    1.744427   -1.310688
 C   -2.948574    0.809939   -1.423134
 C   -2.482359   -0.583112   -1.927798
 C   -3.385102   -1.752492   -1.541479
 C   -3.788844   -1.720322   -0.055465
 C   -4.575973   -0.419644    0.200455
 C   -3.763550    0.840697   -0.098372
 C   -2.604175   -1.881357    0.871100
 C    0.467500    0.725005   -0.571356
 C    4.746748   -1.238462    0.235023
 N    3.801405    0.274564   -1.364136
 C    3.600989   -0.211782    0.045724
 C    2.245297   -0.889189    0.280068
 N    1.046151   -0.023088    0.631181
 C    1.250248    0.905935    1.807819
 C   -0.079570    1.549278    2.183045
 C   -0.710926    2.274229    1.001104
 O    0.103134    3.305899    0.539127
 N   -0.857362    1.265834   -0.140250
 O   -1.595967   -1.139036    0.918297
 O   -2.713505   -2.913050    1.660732
 O    1.337010    1.655753   -1.039418
 O    4.394997   -2.258380   -0.652381
 O    5.884338   -0.536321   -0.130543
 H   -1.121591    1.750801   -2.212884
 H   -2.020924    2.774875   -1.086375
 H   -3.583653    1.241964   -2.203817
 H   -2.377995   -0.543143   -3.016421
 H   -1.484055   -0.822487   -1.541716
 H   -2.897127   -2.696152   -1.802650
 H   -4.316991   -1.720881   -2.115352
 H   -4.447049   -2.567179    0.150485
 H   -4.954503   -0.376558    1.225701
 H   -5.456568   -0.464388   -0.448435
 H   -3.115664    1.008127    0.773146
 H   -4.435133    1.704429   -0.121159
 H    0.285812   -0.030652   -1.338096
 H    4.793484   -1.588306    1.274662
 H    3.113109    0.983667   -1.647321
 H    3.784123   -0.526807   -2.011187
 H    4.758368    0.658772   -1.426888
 H    3.779135    0.638126    0.705781
 H    1.958136   -1.516100   -0.568629
 H    2.359394   -1.559541    1.136231
 H    0.301220   -0.698226    0.903392
 H    1.650695    0.311322    2.631207
 H    1.987558    1.656145    1.517951
 H    0.094289    2.276437    2.980893
 H   -0.779585    0.800103    2.568429
 H   -1.722629    2.610850    1.236248
 H   -0.339592    4.168320    0.526860
 H   -1.359907    0.425544    0.257665
 H   -1.959289   -2.995278    2.269822
 H    1.159096    2.537244   -0.634954
 H    5.035538   -2.986133   -0.642793
 H    6.700385   -0.913885    0.229850
