56 
3h06_ligand_ani.xyz
 C   -1.672814    1.713866   -1.309391
 C   -2.896107    0.780898   -1.482512
 C   -2.418173   -0.623820   -1.921722
 C   -3.345892   -1.785096   -1.558342
 C   -3.854243   -1.702423   -0.115311
 C   -4.653345   -0.395909    0.038136
 C   -3.784115    0.838250   -0.215249
 C   -2.760602   -1.791676    0.940361
 C    0.546239    0.679758   -0.559186
 C    4.724275   -1.328541    0.222268
 N    3.746129    0.335717   -1.213161
 C    3.595689   -0.309372    0.122585
 C    2.230647   -0.973679    0.310007
 N    1.082994   -0.050705    0.631332
 C    1.356730    0.945555    1.735394
 C    0.047313    1.610834    2.149645
 C   -0.644156    2.267401    0.962066
 O    0.101818    3.359765    0.428063
 N   -0.801286    1.263946   -0.155143
 O   -1.680183   -1.221896    0.936555
 O   -3.122489   -2.567246    1.973261
 O    1.429839    1.639164   -1.054792
 O    4.447986   -2.371333   -0.685045
 O    5.895405   -0.621325   -0.140613
 H   -1.051544    1.725916   -2.210844
 H   -1.991809    2.743181   -1.118216
 H   -3.494644    1.184659   -2.307821
 H   -2.252166   -0.611017   -3.006208
 H   -1.445711   -0.850445   -1.482198
 H   -2.830486   -2.737413   -1.736566
 H   -4.227655   -1.780740   -2.212321
 H   -4.519091   -2.548771    0.085949
 H   -5.097850   -0.339758    1.039490
 H   -5.485179   -0.427809   -0.676641
 H   -3.166361    0.987793    0.676529
 H   -4.420508    1.729973   -0.275795
 H    0.381362   -0.053227   -1.344965
 H    4.801178   -1.726547    1.243973
 H    3.025582    1.074614   -1.324709
 H    3.640420   -0.397030   -1.937990
 H    4.699049    0.735715   -1.263990
 H    3.755688    0.448453    0.891917
 H    1.963358   -1.517093   -0.600766
 H    2.294359   -1.705575    1.120155
 H    0.313986   -0.667822    0.956407
 H    1.826009    0.433542    2.580787
 H    2.043707    1.700886    1.348274
 H    0.237478    2.357944    2.925989
 H   -0.631745    0.864560    2.582763
 H   -1.643281    2.623396    1.238653
 H    0.294921    3.982480    1.145306
 H   -1.291363    0.447298    0.245914
 H   -2.387593   -2.558432    2.609874
 H    1.096073    2.498909   -0.728956
 H    5.287509   -2.662936   -1.060137
 H    6.673752   -1.090717    0.183020
