61 
3h0e_ligand_ani.xyz
 C   -6.883585   -3.161585    0.455699
 O    1.641785   -2.689717   -0.169450
 C   -2.531140    0.957145    2.371007
 C   -1.530273    2.069545    2.693706
 C   -7.212212   -1.460240   -1.205113
 N    4.573591   -2.617552    0.059405
 S   -1.099971    2.261281   -1.053847
 C   -2.401386    0.783157    0.847107
 C   -3.711402    0.409082    0.171327
 C    2.971965    0.490745   -0.217313
 C    2.449555   -1.738674   -0.825845
 C    3.835874   -1.619798   -0.201679
 C    5.876655   -2.279127    0.627314
 C    1.943476   -0.329992   -0.696681
 C    7.700129   -0.611294    1.051580
 C    6.435524   -0.890067    0.238874
 C    1.541542    2.387189   -0.316187
 C    0.507390    1.558079   -0.759248
 C    0.699382    0.196428   -0.973878
 C    2.793474    1.860822   -0.030549
 N    4.098687   -0.284556    0.031626
 C    5.360598    0.143787    0.595901
 O   -0.921331    3.687212   -1.258461
 O   -1.757566    1.422902   -2.044015
 N   -1.931080    2.093765    0.373431
 C   -1.649963    3.003677    1.489376
 O   -4.131552   -0.833003    0.713217
 C   -5.290275   -1.368318    0.242353
 C   -6.040301   -0.823458   -0.798875
 C   -7.641299   -2.625003   -0.585127
 C   -5.714560   -2.544268    0.870060
 C    6.758561   -0.829952   -1.260235
 H   -7.209904   -4.073567    0.949525
 H    2.234318   -3.432827    0.022989
 H   -3.549102    1.274272    2.629265
 H   -2.328084    0.024086    2.902461
 H   -1.742017    2.578617    3.638697
 H   -0.511546    1.665699    2.747220
 H   -7.791077   -1.029835   -2.019648
 H   -1.652582    0.012665    0.619818
 H   -3.551765    0.336026   -0.909378
 H   -4.464068    1.187287    0.363808
 H    2.577434   -2.008724   -1.888770
 H    5.800413   -2.325660    1.725121
 H    6.589952   -3.061585    0.336334
 H    8.106981    0.379955    0.816330
 H    7.501606   -0.643716    2.130198
 H    8.481654   -1.349165    0.831881
 H    1.358888    3.453349   -0.216211
 H   -0.104505   -0.416457   -1.371260
 H    3.598417    2.496604    0.328970
 H    5.280340    0.242054    1.688750
 H    5.619768    1.126237    0.189786
 H   -2.490912    3.697924    1.603404
 H   -0.750048    3.597003    1.300902
 H   -5.722846    0.087908   -1.297133
 H   -8.556661   -3.114202   -0.905884
 H   -5.113053   -2.951674    1.677616
 H    7.148748    0.159177   -1.527012
 H    7.520416   -1.575417   -1.516201
 H    5.873319   -1.024562   -1.873034
