65 
3h0q_ligand_dft.xyz
 C    5.801856    1.059535    0.538606
 C    7.388287    2.585454   -0.132924
 C    4.173184   -1.213277    0.099000
 C    3.259588   -2.391839   -0.137663
 C    1.980960   -2.026075   -0.910996
 C    1.142987   -3.274696   -1.210634
 C    1.126626   -0.991170   -0.170006
 C    7.514069    1.944011   -1.399845
 C    6.756826    0.841880   -1.674281
 C    5.856475    0.355824   -0.691614
 N    6.565997    2.160193    0.798646
 C    5.030738   -0.777126   -0.884350
 C    4.130996   -0.502650    1.326929
 C    4.916950    0.599455    1.544460
 C    8.222619    3.801156    0.171189
 C   -0.150322   -2.925943   -1.945762
 N   -0.902497   -1.932473   -1.192996
 C   -0.174403   -0.700910   -0.915996
 C   -2.228961   -2.139357   -0.949585
 C   -2.938113   -1.106393   -0.107727
 C   -2.677528   -0.970755    1.285797
 C   -3.407536    0.029718    1.980570
 N   -4.340764    0.816755    1.381545
 C   -4.593708    0.640826    0.101492
 C   -3.896474   -0.319437   -0.684035
 C   -1.739121   -1.762858    1.995330
 C   -1.527403   -1.554913    3.334285
 C   -2.243208   -0.548331    4.024168
 C   -3.163871    0.223650    3.364884
 C   -5.629116    1.516205   -0.510606
 C   -5.913187    2.756417    0.070648
 C   -6.872098    3.593212   -0.485270
 C   -7.568988    3.200423   -1.626026
 C   -7.303040    1.962790   -2.203580
 C   -6.338510    1.126507   -1.650722
 O   -2.843436   -3.112788   -1.360771
 H    2.974865   -2.840763    0.823183
 H    3.796299   -3.167218   -0.698497
 H    2.285615   -1.582957   -1.872386
 H    0.890539   -3.780143   -0.268169
 H    1.721865   -3.985069   -1.813190
 H    1.681840   -0.055602   -0.043798
 H    0.885710   -1.362850    0.835170
 H    8.212034    2.340888   -2.131197
 H    6.832648    0.332430   -2.631872
 H    5.084552   -1.308292   -1.833436
 H    3.455957   -0.846443    2.107000
 H    4.888092    1.145102    2.481943
 H    9.291658    3.567834    0.106557
 H    8.020093    4.604220   -0.546808
 H    7.998317    4.159901    1.177055
 H   -0.791804   -3.797220   -2.077151
 H    0.081943   -2.521187   -2.942416
 H    0.052304   -0.207695   -1.873688
 H   -0.803773   -0.021406   -0.341613
 H   -4.099326   -0.411768   -1.745124
 H   -1.197146   -2.542152    1.468066
 H   -0.811732   -2.169481    3.871892
 H   -2.064022   -0.394916    5.084036
 H   -3.734467    0.995193    3.871127
 H   -5.370639    3.047213    0.963700
 H   -7.076920    4.556397   -0.027223
 H   -8.319889    3.854389   -2.059515
 H   -7.852165    1.641886   -3.083731
 H   -6.163551    0.152679   -2.098517
