49 
3h0s_ligand_xtb.xyz
 C   -0.513806   -2.424702   -1.145956
 C   -3.273481   -1.301938    1.326085
 C   -3.060883    0.121625   -0.702159
 C    0.665411    0.056211   -0.208064
 C   -4.734371    0.670385    0.951161
 C    0.552551   -1.647282   -1.916068
 C   -6.328933    2.576821    0.658568
 C   -1.344698   -1.474121   -0.275090
 O   -2.014759   -0.591869   -1.179900
 C   -2.359325   -2.248417    0.568304
 C   -0.398674   -0.662191    0.628092
 C   -3.684679   -0.142615    0.524719
 C   -3.527874    1.174039   -1.484744
 O   -3.649904   -1.517955    2.455232
 C   -4.580843    1.952997   -1.048795
 C   -5.195581    1.722031    0.179946
 N    1.397271   -0.892938   -1.013241
 C    3.471631   -0.514257    0.180888
 C    4.623198    1.596532    0.708623
 C    4.891495   -0.279313    2.141436
 C    4.061511   -1.043562    1.311438
 C    2.645819   -1.356867   -0.734979
 C    5.179513    1.034902    1.860440
 C    3.779014    0.817359   -0.120485
 N    3.412713    1.626411   -1.147352
 N    3.960382    2.844904   -1.039268
 C    4.676980    2.855967    0.053674
 O    3.096432   -2.361145   -1.253319
 H   -0.034295   -3.167098   -0.507324
 H   -1.167799   -2.937223   -1.851807
 H    1.344317    0.594548    0.452910
 H    0.173282    0.773726   -0.874855
 H   -5.189022    0.440122    1.903553
 H    0.067846   -0.948216   -2.603970
 H    1.192321   -2.332732   -2.473942
 H   -7.213907    1.967838    0.836042
 H   -6.067187    3.061505    1.597933
 H   -6.574128    3.343172   -0.071792
 H   -2.992108   -2.851742   -0.090654
 H   -1.856418   -2.917223    1.266663
 H   -0.968430    0.074377    1.197968
 H    0.085947   -1.341148    1.331276
 H   -3.050867    1.363878   -2.433687
 H   -4.928463    2.763101   -1.673468
 H    5.314455   -0.745310    3.018563
 H    3.869616   -2.076290    1.560513
 H    5.821709    1.620336    2.500244
 H    5.209935    3.737885    0.347124
 H    2.852647    1.393986   -1.950574
