41 
3h1x_ligand_dft.xyz
 C   -0.527429    0.205203    0.131375
 C   -1.851564    0.359353   -0.312285
 C   -2.445324    1.617677   -0.355340
 C   -1.705292    2.719875    0.062010
 C   -0.393387    2.554313    0.539056
 C    0.201420    1.298439    0.587042
 C   -1.656590    5.066972    0.434005
 C   -2.365267   -0.958409   -0.615370
 C   -1.379978   -1.861989   -0.335605
 C    0.940063   -1.804848    0.549085
 C    2.235291   -1.117836    0.275645
 C    3.289562   -1.325571    1.166643
 C    4.534346   -0.760042    0.927474
 C    4.722499   -0.006903   -0.228143
 C    3.691359    0.188013   -1.142575
 C    2.445281   -0.366580   -0.883146
 C   -1.393972   -3.345946   -0.506191
 C   -3.744298   -1.221129   -1.131788
 C   -4.860671   -1.113309   -0.085257
 N   -0.230835   -1.173540    0.090710
 O   -2.339059    3.918426   -0.014003
 O    0.899763   -2.886553    1.096216
 O   -6.010730   -0.930840   -0.382590
 O   -4.486976   -1.278473    1.194278
Cl    6.284136    0.703443   -0.539693
 H   -3.469316    1.759248   -0.686018
 H    0.177627    3.406541    0.887291
 H    1.206656    1.199955    0.977574
 H   -1.396342    4.993462    1.497899
 H   -0.745188    5.249958   -0.150116
 H   -2.346173    5.899567    0.291025
 H    3.123825   -1.935467    2.048465
 H    5.353675   -0.904722    1.622545
 H    3.863933    0.766515   -2.043023
 H    1.632980   -0.212023   -1.585978
 H   -1.344569   -3.861573    0.455258
 H   -2.305840   -3.649544   -1.024909
 H   -0.537104   -3.686043   -1.095661
 H   -3.825105   -2.225056   -1.563315
 H   -4.003346   -0.523406   -1.933488
 H   -3.520468   -1.365345    1.231241
