23 
3h26_ligand_ani.xyz
 O    1.098400   -2.898872    0.000571
 C    1.426630   -1.727738    0.000068
 N    2.725080   -1.332471   -0.000310
 C    3.074870   -0.023271   -0.000505
 N    4.274321    0.428575   -0.000889
 N    2.076153    0.983227   -0.000224
 C    0.343602   -0.655056   -0.000132
 C    0.763362    0.676258    0.000072
 N   -0.169696    1.676130    0.000705
 C    0.229498    3.081443    0.001204
 C   -1.485941    1.306203    0.000836
 N   -0.929173   -1.010751   -0.000331
 C   -1.836326   -0.023244    0.000009
 C   -3.273549   -0.521748   -0.000114
 O   -3.557686   -1.683453    0.001952
 O   -4.235651    0.425616   -0.002561
 H    4.911549   -0.363906   -0.001016
 H    2.451986    1.921312   -0.000664
 H    0.811265    3.327997    0.896322
 H    0.812047    3.328387   -0.893290
 H   -0.677519    3.687416    0.000872
 H   -2.175414    2.146505    0.002132
 H   -3.864079    1.315916   -0.005340
