23 
3h26_ligand_xtb.xyz
 O    1.104197   -2.917920    0.000782
 C    1.441391   -1.757608    0.000241
 N    2.703786   -1.320648   -0.000510
 C    3.077509   -0.069799   -0.000813
 N    4.239258    0.461109   -0.000931
 N    2.060151    0.989658   -0.000956
 C    0.352021   -0.661562    0.000178
 C    0.781213    0.713534   -0.000207
 N   -0.179324    1.682301    0.000764
 C    0.205230    3.077806    0.001831
 C   -1.489888    1.315253    0.000941
 N   -0.901453   -0.979250    0.000056
 C   -1.842108   -0.009953   -0.000077
 C   -3.260148   -0.529927   -0.000232
 O   -3.514584   -1.691615    0.002222
 O   -4.245964    0.389953   -0.003147
 H    4.983182   -0.225737   -0.000719
 H    2.458608    1.920029   -0.000767
 H    0.794920    3.305729    0.892150
 H    0.796076    3.306669   -0.887480
 H   -0.683159    3.705082    0.001540
 H   -2.190919    2.138110    0.002547
 H   -3.956158    1.308124   -0.006259
