22 
3h2n_ligand_dft.xyz
 O    0.818032    2.675396    0.148572
 C    0.974399    1.477995    0.067320
 N    2.203940    0.874737    0.057824
 C   -0.162691    0.491448   -0.051633
 N   -1.339150    0.935140   -0.231383
 C   -2.432211   -0.019783   -0.388750
 C   -3.729835    0.623472    0.088349
 C   -2.167251   -1.345569    0.322439
 N   -0.835484   -1.815502   -0.015956
 C    0.208059   -0.956001   -0.011540
 N    1.420190   -1.402332   -0.016837
 C    2.479704   -0.500516   -0.020542
 N    3.705995   -0.838296   -0.066855
 H    3.013951    1.480547    0.099459
 H   -2.502607   -0.207877   -1.469863
 H   -3.677049    0.843438    1.159521
 H   -4.581011   -0.041670   -0.090220
 H   -3.897372    1.563260   -0.442334
 H   -2.276366   -1.208109    1.409267
 H   -2.896898   -2.093638    0.003447
 H   -0.594260   -2.786392    0.129556
 H    3.757877   -1.855231   -0.108819
