22 
3h2n_ligand_ani.xyz
 O    0.857863    2.685754    0.128332
 C    0.965337    1.480159    0.047554
 N    2.191944    0.862915    0.041842
 C   -0.171134    0.503858   -0.061974
 N   -1.377453    0.938105   -0.140983
 C   -2.431559   -0.031837   -0.357384
 C   -3.758466    0.598384    0.053065
 C   -2.124000   -1.337757    0.378288
 N   -0.834475   -1.808415   -0.080306
 C    0.204804   -0.916664   -0.056851
 N    1.413469   -1.405096   -0.057490
 C    2.474306   -0.515515   -0.014867
 N    3.704965   -0.844681   -0.017292
 H    3.003891    1.465478    0.094471
 H   -2.468794   -0.266790   -1.431413
 H   -3.744194    0.833030    1.122359
 H   -4.604727   -0.064807   -0.158004
 H   -3.886858    1.534134   -0.495776
 H   -2.139269   -1.163523    1.468744
 H   -2.881073   -2.093397    0.140944
 H   -0.557018   -2.754852    0.143211
 H    3.770272   -1.858863   -0.058582
