69 
3h5s_ligand_xtb.xyz
 C    3.708657   -1.455130    0.020962
 C    2.232046   -0.237660    1.379650
 C    1.460758   -0.751679    0.229928
 C    2.352885   -1.373481   -0.613850
 C    4.598394    0.083494    1.834874
 C    5.233457    1.029110    0.846176
 C    4.443468    1.982259    0.212581
 C    4.966864    2.858360   -0.724442
 C    6.325538    2.745561   -1.006107
 O    2.101066   -1.881200   -1.786960
 N    3.521972   -0.666293    1.218192
 C    7.137186    1.812580   -0.393047
 C    6.582505    0.947490    0.534937
 O    1.878517    0.464870    2.306757
 C    0.073708   -0.639157   -0.130659
 S   -1.921031   -0.947839   -1.564724
 N   -0.271591   -1.087898   -1.301445
 C   -2.234297   -0.208108    0.024356
 C   -1.020388   -0.090729    0.689435
 C   -1.012853    0.507833    1.945362
 C   -2.209386    0.986767    2.455323
 O   -2.484728   -2.255427   -1.696274
 O   -2.163499   -0.005934   -2.618291
 C    4.099213   -2.946495    0.296462
 C    5.336312   -3.014712    1.193510
 C    2.939993   -3.665620    0.988697
 C    4.426107   -3.619470   -1.036783
 F    6.873073    3.583517   -1.914073
 C    4.128213    3.885100   -1.416025
 C   -3.431150    0.247159    0.517468
 C   -3.414946    0.879211    1.767098
 C   -4.692143    1.434842    2.324207
 C   -5.671799    1.733246    1.187723
 N   -5.837074    0.532594    0.412446
 C   -4.671452    0.104587   -0.312683
 S   -7.309521    0.194463   -0.259774
 O   -7.300806   -1.180693   -0.645244
 O   -8.303892    0.654965    0.663186
 C   -7.416992    1.208741   -1.761338
 H    4.480370   -1.010381   -0.618768
 H    5.348496   -0.585261    2.256258
 H    4.131185    0.647599    2.648558
 H    3.394144    2.045445    0.462486
 H    1.120591   -1.733773   -1.962490
 H    8.184665    1.770110   -0.646009
 H    7.208275    0.214810    1.022457
 H   -0.093145    0.622046    2.496015
 H   -2.206960    1.471746    3.420519
 H    5.696910   -4.040376    1.228031
 H    6.136130   -2.389203    0.804417
 H    5.098009   -2.712533    2.209077
 H    2.092293   -3.783069    0.318202
 H    2.614126   -3.109005    1.865006
 H    3.258327   -4.654386    1.309837
 H    3.591972   -3.556035   -1.727836
 H    4.652256   -4.669729   -0.870220
 H    5.292934   -3.151317   -1.498307
 H    3.123523    3.903929   -1.003477
 H    4.068603    3.664847   -2.481624
 H    4.577399    4.871566   -1.311632
 H   -4.493748    2.335015    2.907914
 H   -5.144063    0.691926    2.986216
 H   -5.286508    2.559443    0.570664
 H   -6.656065    1.995485    1.575478
 H   -4.822094   -0.940295   -0.598101
 H   -4.519128    0.684950   -1.239689
 H   -8.398185    1.043368   -2.185868
 H   -7.295764    2.246706   -1.481408
 H   -6.649164    0.882643   -2.449732
