62 
3h5u_ligand_ani.xyz
 C    1.198703   -0.527017    0.330384
 C    1.881571   -1.395695   -0.488543
 C    3.282077   -1.628421   -0.057664
 N    3.370687   -0.696162    1.075178
 C    2.184890   -0.013668    1.301505
 O    2.070795    0.859711    2.145493
 O    1.403501   -1.982784   -1.583015
 C    4.615351   -0.038600    1.455659
 C    5.096489    1.007073    0.464703
 C    3.655314   -3.122205    0.281313
 C   -0.916199    1.156429    2.255604
 C   -1.971962    1.833597    2.831778
 C   -3.211072    1.945328    2.195323
 C   -3.431530    1.361358    0.953538
 C   -1.101811    0.558513    0.995094
 C   -2.367694    0.654927    0.405512
 S   -2.353777   -0.186080   -1.155092
 N   -0.757679   -0.680338   -0.960930
 C   -0.196796   -0.207186    0.128073
 O   -2.465760    0.766667   -2.250830
 O   -3.232267   -1.348493   -1.157122
 C    3.574027   -3.957918   -1.002795
 C    5.094639   -3.206161    0.804619
 C    2.712887   -3.704970    1.343315
 C    6.065386    0.690660   -0.491008
 C    6.486377    1.625446   -1.432175
 C    5.927941    2.892108   -1.398044
 C    4.978496    3.249868   -0.455138
 C    4.569948    2.301948    0.476884
 F    6.323786    3.804839   -2.303770
 C   -4.760002    1.431422    0.253885
 N   -5.496080    0.184360    0.465387
 S   -6.962363   -0.049733   -0.290738
 C   -6.455644   -0.806381   -1.823742
 O   -7.589767    1.225405   -0.600859
 O   -7.648609   -1.045009    0.513458
 H    3.979953   -1.298271   -0.848954
 H    0.475204   -1.659432   -1.696096
 H    5.389940   -0.795725    1.589053
 H    4.416814    0.418270    2.427849
 H    0.044720    1.094818    2.747554
 H   -1.832533    2.299823    3.803717
 H   -4.014656    2.497714    2.673773
 H    3.918460   -4.978785   -0.800912
 H    2.556408   -4.012557   -1.393004
 H    4.220251   -3.538022   -1.783107
 H    5.190531   -2.794606    1.814162
 H    5.404186   -4.255465    0.861528
 H    5.803160   -2.691963    0.142791
 H    1.673675   -3.721982    0.993938
 H    3.008142   -4.734391    1.575608
 H    2.752143   -3.121585    2.268694
 H    6.518165   -0.299862   -0.504819
 H    7.234319    1.387501   -2.181320
 H    4.575041    4.257442   -0.457635
 H    3.834955    2.578801    1.227408
 H   -5.345536    2.291793    0.597491
 H   -4.591949    1.541095   -0.822876
 H   -5.569409   -0.146161    1.422785
 H   -6.226095   -0.017806   -2.542274
 H   -7.288989   -1.412007   -2.184275
 H   -5.572713   -1.420923   -1.626800
