46 
3h9o_ligand_xtb.xyz
 C    6.548114   -1.351272    1.170198
 C    6.522550    0.354355   -0.465159
 C    0.909839    1.530849   -0.118829
 C    2.011683   -1.033764   -0.263584
 C   -2.312591   -0.401999   -0.031039
 C   -1.800708    1.963979    0.037274
 C   -5.825438   -2.866068    0.085564
 O    7.059577   -0.107075    0.745424
 C    5.100105    0.916888   -0.340234
 O    4.185046   -0.159729   -0.358708
 C    2.861408    0.113596   -0.273257
 C    2.304445    1.363751   -0.196353
 C    0.063027    0.399818   -0.116370
 C    0.650223   -0.875851   -0.188049
 O    2.664673   -2.223691   -0.329434
 C    1.906087   -3.407267   -0.326891
 C   -1.351920    0.622970   -0.037065
 C   -3.646018   -0.060306    0.053782
 N   -4.081704    1.201241    0.134276
 C   -3.207731    2.189163    0.123630
 C   -0.832669    2.998494    0.021998
 N    0.444626    2.804205   -0.050485
 N   -3.733835    3.436036    0.159493
 N   -4.658085   -1.017496    0.069033
 C   -4.551805   -2.387661    0.060032
 N   -6.714823   -1.832811    0.108575
 C   -5.997721   -0.751743    0.098984
 H    5.469719   -1.312040    1.343005
 H    6.754589   -2.130696    0.427281
 H    7.061809   -1.588091    2.099955
 H    6.517616   -0.445009   -1.219386
 H    7.188371    1.157591   -0.790366
 H   -2.015512   -1.433168   -0.093902
 H   -6.162491   -3.883254    0.088676
 H    4.903412    1.592001   -1.183430
 H    5.014093    1.479126    0.598544
 H    2.902128    2.259528   -0.193718
 H    0.014516   -1.745069   -0.181175
 H    1.325605   -3.511538    0.595989
 H    1.232542   -3.456197   -1.188943
 H    2.628769   -4.219096   -0.389611
 H   -1.135931    4.037731    0.067535
 H   -3.158224    4.230258    0.368193
 H   -4.722601    3.500803    0.328439
 H   -3.615429   -2.903768    0.041235
 H   -6.375883    0.249039    0.109393
