46 
3h9o_ligand_ani.xyz
 C    8.629346    0.124452    0.314719
 C    6.358016   -0.339954    0.061671
 C    0.907195    1.286214   -0.135682
 C    1.783821   -1.385821   -0.103854
 C   -2.476264   -0.360123   -0.011085
 C   -1.759287    1.945808   -0.054562
 C   -6.142638   -2.554473    0.123006
 O    7.334885    0.659592    0.210807
 C    5.007626    0.344896   -0.013022
 O    4.035745   -0.681930   -0.106197
 C    2.733097   -0.309348   -0.113622
 C    2.290536    0.984119   -0.138026
 C   -0.023047    0.236753   -0.091402
 C    0.440779   -1.098480   -0.086230
 O    2.317919   -2.630822   -0.107351
 C    1.412817   -3.711630   -0.129668
 C   -1.432657    0.577701   -0.051164
 C   -3.773264    0.104167    0.024040
 N   -4.116824    1.403805    0.034729
 C   -3.143592    2.290752    0.027633
 C   -0.705459    2.915949   -0.150148
 N    0.558928    2.621423   -0.182681
 N   -3.517349    3.615319    0.046770
 N   -4.861191   -0.787458    0.060899
 C   -4.836702   -2.173386    0.068963
 N   -6.976273   -1.457859    0.149338
 C   -6.182792   -0.423545    0.111672
 H    8.722081   -0.541243    1.187034
 H    8.904344   -0.445382   -0.586505
 H    9.322700    0.960355    0.431478
 H    6.369025   -1.036865    0.915058
 H    6.528476   -0.928341   -0.854562
 H   -2.272932   -1.424504   -0.010297
 H   -6.544884   -3.558046    0.145812
 H    4.964259    1.002631   -0.891860
 H    4.846326    0.953296    0.886977
 H    2.968692    1.830040   -0.161932
 H   -0.288137   -1.903446   -0.066026
 H    0.778657   -3.719091    0.766427
 H    0.775982   -3.679129   -1.023259
 H    2.022065   -4.616026   -0.150603
 H   -0.953094    3.976337   -0.224569
 H   -2.904907    4.236828    0.554799
 H   -4.497507    3.740336    0.269321
 H   -3.915055   -2.731989    0.034781
 H   -6.470698    0.618609    0.117024
