44 
3hab_ligand_ani.xyz
 F    5.530801    3.171074   -0.570344
 C    4.852927    2.054367   -0.284217
 C    5.472036    0.819422   -0.352792
 C    4.714746   -0.297803   -0.043190
 F    5.312878   -1.507367   -0.119254
 C    3.518122    2.151968    0.080615
 F    2.953762    3.366717    0.132461
 C    2.784660    1.019052    0.388920
 C    3.379135   -0.245062    0.340664
 C    2.638144   -1.535886    0.649616
 C    1.525508   -1.333037    1.694849
 C    2.095127   -2.187865   -0.649110
 N    1.510430   -3.543817   -0.345330
 C    0.972034   -1.334235   -1.246664
 N   -0.061067   -1.184581   -0.228248
 C    0.198734   -0.961296    1.105907
 N   -0.826632   -0.510480    1.776769
 C   -1.373324   -0.793536   -0.431666
 C   -2.176983   -0.783942   -1.570043
 C   -3.484189   -0.352041   -1.411475
 C   -1.836651   -0.390115    0.834332
 C   -3.155496    0.040597    0.982424
 C   -3.953362    0.061087   -0.150865
 S   -5.641831    0.617755   -0.008784
 O   -6.106688    0.310385    1.340371
 O   -6.366408    0.147649   -1.185268
 C   -5.525829    2.394013   -0.128574
 H    6.513468    0.732730   -0.639417
 H    1.741596    1.143580    0.665867
 H    3.383991   -2.219472    1.064105
 H    1.382486   -2.248483    2.281903
 H    1.810115   -0.566220    2.420112
 H    2.907576   -2.306611   -1.363215
 H    2.077807   -4.033405    0.365770
 H    1.471821   -4.121409   -1.205842
 H    0.544620   -3.397551    0.010794
 H    1.347411   -0.357672   -1.569352
 H    0.531701   -1.831669   -2.114531
 H   -1.800932   -1.101335   -2.538923
 H   -4.168214   -0.339329   -2.254289
 H   -3.537994    0.325120    1.956539
 H   -4.915709    2.770209    0.695443
 H   -5.097643    2.672313   -1.093301
 H   -6.546155    2.775056   -0.042441
