61 
3hb4_ligand_ani.xyz
 N    4.910758   -2.703297    2.227192
 C   -1.559451    0.052815   -0.293042
 C   -2.908274    0.806537   -0.391272
 C   -0.443784    1.043641   -0.610933
 C   -1.598358   -1.159583   -1.220723
 C   -0.392298    2.212112    0.393786
 C   -4.099589   -0.124758   -0.187610
 C   -1.715889    2.977936    0.311903
 C    1.013303    0.580543   -0.709063
 C    5.216402   -2.766425    0.891175
 C    5.726809   -1.356149   -1.081417
 C   -3.979182   -1.506710   -0.386007
 C   -2.928660    2.053009    0.519328
 C    1.842575    1.895090   -0.631236
 C    0.830996    2.979709   -0.163950
 C   -0.124638    1.753635    1.834314
 C    5.033550   -1.492504    0.119257
 C   -5.366240    0.377343    0.147576
 C    5.600604   -0.191428   -1.827117
 C    3.098096    1.798970    0.251084
 C    4.184476   -0.470028    0.544806
 C    4.764324    0.829790   -1.386933
 C   -2.651248   -2.152941   -0.733605
 C   -6.337476   -1.814025    0.102908
 C    4.042069    0.704081   -0.195683
 C   -5.095446   -2.333872   -0.236420
 C   -6.472529   -0.440306    0.294826
 O   -7.447687   -2.588460    0.257938
 O    5.596472   -3.796070    0.362609
 O    1.432360    3.883976    0.740472
 H    5.163336   -3.523827    2.759347
 H    4.953655   -1.820364    2.712485
 H   -1.439604   -0.324017    0.734316
 H   -2.966979    1.175846   -1.431842
 H   -0.695739    1.489082   -1.591233
 H   -0.619650   -1.654602   -1.268159
 H   -1.837699   -0.832741   -2.243126
 H   -1.727720    3.795166    1.046319
 H   -1.795941    3.446304   -0.680746
 H    1.270244   -0.088985    0.122553
 H    1.210181    0.022264   -1.631495
 H    6.357312   -2.177116   -1.410730
 H   -3.835957    2.634852    0.330936
 H   -2.984359    1.728522    1.566837
 H    2.165813    2.176661   -1.644206
 H    0.484952    3.530968   -1.057334
 H    0.048993    2.624116    2.475168
 H   -0.970715    1.195903    2.244635
 H    0.757183    1.109286    1.914180
 H   -5.504379    1.444209    0.297833
 H    6.148520   -0.080415   -2.759257
 H    2.801884    1.619686    1.290314
 H    3.606883    2.768352    0.242049
 H    3.598875   -0.607037    1.452937
 H    4.656147    1.735139   -1.982464
 H   -2.812857   -2.939348   -1.480880
 H   -2.274824   -2.666431    0.163698
 H   -4.983513   -3.408372   -0.388088
 H   -7.444515   -0.034225    0.556921
 H   -7.210832   -3.510450    0.092902
 H    0.775976    4.560206    0.951941
