43 
3hdz_ligand_ani.xyz
 N    2.054779    0.629109   -1.127508
 C   -0.324006    0.225413   -0.772588
 C    0.190769   -2.220931    0.290349
 C    2.679590   -1.755137    0.202476
 C    3.418790    0.142346   -1.211660
 C    1.893154    2.056179   -1.357350
 C   -2.734062   -0.151625   -0.166471
 C   -3.739524   -1.107282   -0.001719
 C   -5.073651   -0.722461    0.051712
 C   -4.422329    1.582160   -0.196737
 C   -5.419098    0.622632   -0.045964
 C    1.023698   -0.164037   -0.687006
 C    1.301145   -1.411361   -0.068716
 C   -1.312456   -0.583693   -0.227953
 N   -1.057006   -1.813354    0.260515
 N    0.417907   -3.532771    0.763972
 C    3.683637   -1.014359   -0.331571
 O    2.992033   -2.799768    0.990970
 C    2.211953    2.933556   -0.140105
 C    1.300112    2.712334    1.066313
 C   -3.088330    1.197012   -0.258351
 C    1.577812    3.715447    2.183043
 H   -0.607330    1.127967   -1.303858
 H    4.109420    0.963268   -0.941675
 H    3.685160   -0.097027   -2.263795
 H    0.874797    2.255978   -1.697889
 H    2.557075    2.337374   -2.186355
 H   -3.456214   -2.152463    0.085610
 H   -5.846931   -1.476991    0.174524
 H   -4.683389    2.634791   -0.272360
 H   -6.462784    0.921788   -0.001614
 H    0.856401   -4.112829    0.051037
 H   -0.468236   -3.948665    1.039522
 H    4.710765   -1.314468   -0.178373
 H    2.172529   -3.185443    1.364789
 H    2.144693    3.982586   -0.458417
 H    3.256038    2.766584    0.159173
 H    1.430581    1.692313    1.449107
 H    0.247492    2.793996    0.756588
 H   -2.322624    1.962012   -0.366287
 H    2.612182    3.637437    2.537963
 H    1.422149    4.744877    1.838406
 H    0.918977    3.547018    3.041069
