57 
3hf6_ligand_dft.xyz
 O   -3.681287   -1.034010    2.171017
 C   -4.197003   -1.612211    1.074657
 O   -4.733536   -2.682543    1.046759
 C   -4.065771   -0.707945   -0.152426
 N   -3.028027    0.342642    0.115492
 C   -3.723164   -1.509969   -1.427273
 C   -2.252698   -1.847322   -1.429010
 C   -1.360491   -0.962717   -2.046882
 C   -0.001160   -1.040347   -1.788874
 C    0.493043   -2.018616   -0.923219
 C   -0.374815   -2.976287   -0.400312
 C   -1.743264   -2.883520   -0.640515
 C    1.896381   -1.903472   -0.444157
 N    2.424244   -0.693862   -0.607247
 C    3.595309   -0.511614    0.020118
 N    4.292156   -1.457814    0.655160
 C    3.692669   -2.655155    0.665765
 N    4.349912   -3.674418    1.243452
 N    2.459207   -2.929925    0.174368
 N    4.065685    0.756419    0.032775
 C    3.378426    1.853455   -0.631525
 C    4.228054    3.118511   -0.493810
 C    1.977107    2.086948   -0.076116
 C    1.749830    2.078692    1.323474
 C    0.516837    2.369827    1.843786
 C   -0.570014    2.699872    0.991590
 C   -1.842621    3.089919    1.496319
 C   -2.860914    3.450663    0.646280
 C   -2.663333    3.402614   -0.759437
 C   -1.445595    3.018049   -1.274054
 C   -0.359924    2.681247   -0.416907
 C    0.929987    2.368804   -0.918490
 H   -3.819999   -1.631148    2.926512
 H   -5.020561   -0.185337   -0.267990
 H   -3.157173    0.801435    1.023488
 H   -2.085616   -0.070818    0.104939
 H   -3.010212    1.095762   -0.590137
 H   -3.988668   -0.912271   -2.304870
 H   -4.363920   -2.395546   -1.421948
 H   -1.740023   -0.178758   -2.699986
 H    0.687676   -0.314408   -2.203805
 H    0.025050   -3.753370    0.242799
 H   -2.422232   -3.598960   -0.184627
 H    3.954504   -4.599456    1.210734
 H    5.291300   -3.535742    1.572493
 H    4.973902    0.903772    0.446472
 H    3.272897    1.611793   -1.696163
 H    3.741821    3.955607   -1.000231
 H    4.357725    3.389114    0.559812
 H    5.214849    2.970505   -0.943979
 H    2.573989    1.830181    1.986123
 H    0.363831    2.375629    2.919652
 H   -1.983401    3.144926    2.573183
 H   -3.810205    3.796299    1.045119
 H   -3.462184    3.713483   -1.426884
 H   -1.283397    3.015034   -2.349245
 H    1.085136    2.366861   -1.995562
