25 
3hfv_ligand_ani.xyz
 N   -1.396548    0.079678    1.575134
 C   -1.780014    0.461239    0.176167
 C   -0.774798   -0.054994   -0.872763
 C    0.665854    0.194177   -0.489510
 C    1.119350    1.487566   -0.213022
 C    2.446848    1.701701    0.132341
 C    1.565114   -0.868909   -0.424748
 C    2.897191   -0.649314   -0.073407
 C    3.342275    0.640329    0.206755
 O    3.718135   -1.736218   -0.020372
 C   -3.153764   -0.166457   -0.027503
 O   -3.722455    0.128193   -1.200883
 O   -3.655221   -0.889211    0.804853
 H   -2.135172   -0.596768    1.863500
 H   -1.391144    0.892732    2.212764
 H   -0.469154   -0.366144    1.573254
 H   -1.873275    1.543050    0.103175
 H   -0.922568   -1.130211   -1.028348
 H   -1.005038    0.430330   -1.825460
 H    0.429725    2.326862   -0.272280
 H    2.792909    2.708867    0.350514
 H    1.243218   -1.885167   -0.638406
 H    4.382890    0.814561    0.478324
 H    4.604310   -1.447680    0.231208
 H   -4.572873   -0.342326   -1.228828
