25 
3hfv_ligand_dft.xyz
 N   -1.172293   -1.030030    1.102221
 C   -1.679879    0.194273    0.394472
 C   -0.813602    0.477546   -0.853075
 C    0.648458    0.529857   -0.478146
 C    1.195191    1.679490    0.094272
 C    2.524140    1.672197    0.508117
 C    1.430320   -0.621597   -0.613034
 C    2.765985   -0.621066   -0.190223
 C    3.309917    0.532383    0.378032
 O    3.453007   -1.766373   -0.360792
 C   -3.124916   -0.124056    0.026306
 O   -3.767963    0.950346   -0.387316
 O   -3.561843   -1.249272    0.087518
 H   -1.713124   -1.838631    0.751935
 H   -1.315054   -0.986476    2.114420
 H   -0.160552   -1.150487    0.913902
 H   -1.625683    1.033729    1.090183
 H   -0.997289   -0.298874   -1.604721
 H   -1.160103    1.425729   -1.272633
 H    0.598310    2.581693    0.194440
 H    2.958982    2.568403    0.938468
 H    1.052101   -1.509680   -1.115689
 H    4.346389    0.544740    0.704354
 H    4.373864   -1.655275   -0.090584
 H   -4.671080    0.703583   -0.655238
