58 
3hhk_ligand_ani.xyz
 O    8.479467    1.562357   -1.105422
 C    8.211057    0.501735   -0.588375
 N    9.152391   -0.434628   -0.268850
 C    6.788564    0.056484   -0.260020
 O    5.924808    1.122246   -0.533728
 C    4.596683    0.927173   -0.315996
 C    3.765200    2.026525   -0.570684
 C    4.041174   -0.267904    0.131289
 C    2.664460   -0.327028    0.315556
 S    1.902222   -1.756989    1.039533
 O    1.651923   -1.500582    2.446153
 O    2.630024   -2.933320    0.616130
 N    0.457097   -1.765708    0.224096
 C    1.820447    0.734349    0.034044
 C    2.393033    1.932717   -0.396575
 N    0.448462    0.579700    0.189763
 C   -0.190602   -0.635612    0.150364
 C   -1.655804   -0.630644   -0.050371
 C   -2.346169    0.594726   -0.467159
 O   -1.813619    1.711253   -0.476317
 C   -2.414853   -1.768322    0.143947
 O   -1.887686   -2.826807    0.781520
 C   -3.772941   -1.871610   -0.343146
 C   -4.489236   -3.092996   -0.365889
 C   -5.772613   -3.158956   -0.853349
 C   -4.386320   -0.710004   -0.847202
 C   -5.705994   -0.792984   -1.325080
 C   -6.387139   -1.995956   -1.331936
 N   -3.675368    0.493736   -0.854394
 C   -4.341244    1.733709   -1.277250
 C   -5.274340    2.336474   -0.221225
 C   -4.606653    2.878476    1.050650
 C   -5.682799    3.262868    2.068848
 C   -3.693406    4.075058    0.778458
 H   10.120043   -0.176751   -0.388050
 H    8.937367   -1.251080    0.279663
 H    6.724520   -0.239955    0.797588
 H    6.535109   -0.821319   -0.873664
 H    4.215436    2.952978   -0.912450
 H    4.623660   -1.159890    0.341458
 H    1.758300    2.792062   -0.603028
 H   -0.156612    1.373863   -0.014928
 H   -2.599543   -3.371919    1.140991
 H   -4.009647   -4.010263   -0.027283
 H   -6.308365   -4.105044   -0.862121
 H   -6.217937    0.090704   -1.688480
 H   -7.403129   -2.033786   -1.714724
 H   -4.894537    1.528895   -2.198355
 H   -3.552601    2.435471   -1.538703
 H   -6.013147    1.578931    0.071533
 H   -5.839878    3.149492   -0.699490
 H   -4.004410    2.073809    1.490926
 H   -6.327876    4.057836    1.671888
 H   -6.319815    2.407441    2.320392
 H   -5.232148    3.630653    2.997406
 H   -2.865967    3.823143    0.111238
 H   -4.261650    4.903149    0.333231
 H   -3.263172    4.440851    1.718043
