59 
3hhm_ligand_dft.xyz
 C    1.974903    1.245216   -0.013541
 O    3.282853    1.294647   -0.587236
 C    1.105424    0.123656   -0.648775
 C    2.106970    1.259371    1.503870
 C    4.027691    0.181433   -0.740293
 O    5.206565    0.305562   -0.957283
 C    3.322944   -1.143828   -0.709510
 C    1.868646   -1.192368   -0.483655
 C    4.109234   -2.207802   -0.936182
 C    1.232138   -2.336423   -0.153050
 C   -0.228380   -2.432560   -0.009017
 O    1.854815   -3.515345    0.063832
 O   -0.694734   -3.504336    0.358044
 C   -1.066159   -1.237405   -0.383355
 O   -0.573934    2.445043    0.398272
 C   -1.193808    1.300463   -0.217366
 C   -0.716574    3.632510   -0.231951
 C   -0.306100    0.058652    0.028510
 C   -2.464719   -1.283406    0.230435
 C    0.990099    0.430377   -2.160396
 C   -2.605062    1.196822    0.363502
 C   -3.290697   -0.048903   -0.166236
 C   -3.567429    0.064376   -1.683572
 C   -4.639017   -0.389647    0.462039
 C   -3.419262   -2.463729   -0.025148
 C   -4.772442   -1.916471    0.475021
 O   -5.449185    0.402203    0.878554
 O   -1.297419    3.768289   -1.280332
 C   -0.040539    4.728026    0.547675
 O    2.563950    0.013944    1.954116
 C    2.877643    0.004250    3.323254
 H    1.551311    2.205487   -0.298499
 H    1.143305    1.521932    1.962970
 H    2.826180    2.054175    1.758786
 H    5.168318   -2.042314   -1.101174
 H    3.724800   -3.217040   -0.963450
 H    1.137068   -4.125607    0.324744
 H   -1.156721   -1.276107   -1.478714
 H   -1.265054    1.504127   -1.286732
 H   -0.145522   -0.023948    1.111997
 H   -2.326178   -1.225772    1.322864
 H    0.342660   -0.293789   -2.663843
 H    0.592375    1.434858   -2.338424
 H    1.968658    0.378034   -2.642950
 H   -3.161881    2.102175    0.102550
 H   -2.538569    1.153685    1.457563
 H   -4.138513   -0.787509   -2.065049
 H   -2.649445    0.131596   -2.274338
 H   -4.151884    0.969557   -1.873512
 H   -3.105599   -3.363635    0.500164
 H   -3.456428   -2.707805   -1.092647
 H   -5.633930   -2.225494   -0.124991
 H   -4.980649   -2.225008    1.505625
 H   -0.472425    4.792021    1.550427
 H   -0.167182    5.676439    0.026721
 H    1.025784    4.507663    0.661303
 H    3.221148   -1.002864    3.565376
 H    3.675159    0.724903    3.557272
 H    1.996894    0.244517    3.938671
