36 
3hig_ligand_xtb.xyz
 C   -2.306198   -0.810355   -0.059559
 C   -2.489347    0.508871    0.372913
 C   -3.750980    1.056727    0.403305
 C   -4.862975    0.311133    0.011222
 C   -4.678732   -0.998614   -0.429388
 C   -3.418639   -1.555885   -0.459029
 C   -6.197284    0.939062    0.064745
 N   -6.273858    2.201446   -0.032512
 N   -7.269850    0.085835    0.171579
 N   -1.089454   -1.459206   -0.065793
 N   -0.042837   -0.735383   -0.047280
 N    1.071540   -1.427433    0.021045
 C    2.318272   -0.837649    0.001667
 C    2.456824    0.545791   -0.117240
 C    3.714440    1.109004   -0.136413
 C    4.856141    0.317755   -0.022472
 C    4.709590   -1.062551    0.098344
 C    3.456364   -1.638052    0.103594
 C    6.204937    0.937774   -0.064839
 N    6.555857    1.917542   -0.795174
 N    7.152448    0.331892    0.714848
 H   -1.627559    1.076631    0.690230
 H   -3.910038    2.072670    0.728452
 H   -5.520613   -1.580829   -0.775986
 H   -3.267673   -2.566964   -0.805672
 H   -7.221087    2.570888    0.005991
 H   -8.173359    0.493032    0.353017
 H   -7.128412   -0.845552    0.522356
 H    1.011170   -2.448613    0.077608
 H    1.570618    1.154132   -0.196937
 H    3.818728    2.181124   -0.224391
 H    5.587256   -1.688061    0.164319
 H    3.350450   -2.710369    0.186845
 H    5.829384    2.261630   -1.413922
 H    8.028802    0.826098    0.767806
 H    6.850924   -0.136731    1.552180
