35 
3hj0_ligand_ani.xyz
 C   -5.098608   -1.709797    0.395650
 O   -6.302300   -1.830835    0.389976
 C   -4.381074   -0.440527    0.116396
 C   -5.093373    0.722511   -0.179465
 C   -4.402443    1.901207   -0.435702
 C   -3.011858    1.915461   -0.400750
 C   -2.281541    0.753442   -0.116666
 C   -2.989702   -0.423038    0.149946
 C   -0.806993    0.828880   -0.113846
 C    0.043609   -0.205652   -0.092795
 C    1.511460   -0.140258   -0.035107
 C    2.240552   -1.323154   -0.212658
 C    3.625994   -1.348725   -0.182200
 C    4.413601   -2.617466   -0.374608
 C    4.297165   -0.136936    0.036450
 O    5.661843   -0.197678    0.053326
 C    3.609697    1.068203    0.229704
 C    4.354165    2.360885    0.471929
 C    2.220494    1.042728    0.191873
 H   -4.441638   -2.579195    0.619189
 H   -6.178505    0.681982   -0.202041
 H   -4.949106    2.812830   -0.663625
 H   -2.479743    2.841490   -0.605816
 H   -2.459717   -1.339738    0.406284
 H   -0.411700    1.842016   -0.158790
 H   -0.354442   -1.218200   -0.145812
 H    1.702099   -2.253318   -0.387312
 H    5.046802   -2.825553    0.494304
 H    3.743268   -3.469309   -0.523308
 H    5.074916   -2.544199   -1.244490
 H    6.015897    0.687444    0.204458
 H    4.978839    2.316030    1.373304
 H    4.999282    2.631456   -0.373813
 H    3.648293    3.184414    0.612338
 H    1.682230    1.973362    0.359799
