84 
3hkn_ligand_ani.xyz
 C    2.531571   -1.888815   -0.419358
 C    1.971726   -0.932040    0.625290
 O    0.532688    0.609770   -0.627985
 C   -0.590687    0.517116    0.183705
 C   -1.660700    1.462299   -0.346450
 C   -2.937266    1.318118    0.465833
 C   -3.397837   -0.147535    0.514714
 C   -2.223909   -1.051309    0.907947
 C   -2.523842   -2.531197    0.726008
 C   -0.502137   -2.768334   -2.344609
 C    0.505831   -2.826925   -1.229438
 C    2.451157   -0.387286    2.867097
 C    2.836179    0.807421   -1.036624
 C    3.226278    2.269871   -1.089862
 C   -0.165981    4.753792   -1.050278
 C   -0.844490    3.444434   -1.348140
 O   -1.075833    3.028214   -2.454838
 O   -1.170202    2.794870   -0.205773
 O   -3.939281    2.123889   -0.154121
 C   -4.897676    2.615262    0.669211
 C   -5.998919    3.272296   -0.111665
 O   -4.850922    2.521449    1.872045
 O   -3.845996   -0.566429   -0.779314
 C   -5.166684   -0.438570   -1.039709
 C   -5.513306   -0.929520   -2.415129
 O   -5.961218    0.012801   -0.248021
 O   -3.670372   -2.887486    1.509817
 C   -4.784210   -3.237835    0.838896
 C   -5.925031   -3.491107    1.786936
 O   -4.846391   -3.331183   -0.363830
 O   -1.078745   -0.803116    0.107961
 C    1.781545    0.488931    0.037736
 O    2.902558   -0.914029    1.710254
 C    3.488501   -0.485136    3.952562
 O    1.349075    0.096731    2.987032
 O    1.562090   -2.018749   -1.477826
 O    0.420342   -3.507877   -0.234173
 C    3.796156   -1.325147   -1.081467
 S    5.292297   -2.177209   -0.544274
 O    5.163365   -3.575243   -0.924760
 O    5.636096   -1.800476    0.814205
 N    6.397720   -1.498077   -1.599785
 O    4.011684    0.038183   -0.826120
 O    3.737612    2.671710    0.183615
 C    3.708419    3.993300    0.436581
 C    4.336955    4.302217    1.769502
 O    3.228264    4.805801   -0.318104
 H    2.715325   -2.871796    0.018480
 H    1.013061   -1.303595    0.982490
 H   -0.336401    0.760996    1.232188
 H   -1.842831    1.252851   -1.401953
 H   -2.774233    1.681832    1.484626
 H   -4.221898   -0.248558    1.228026
 H   -1.977678   -0.864448    1.967000
 H   -1.667943   -3.113947    1.074685
 H   -2.721861   -2.748408   -0.323116
 H   -1.294364   -3.492133   -2.141880
 H   -0.928705   -1.762347   -2.405612
 H   -0.026131   -3.000729   -3.302177
 H    2.394283    0.545331   -2.005862
 H    3.998099    2.414841   -1.852754
 H    2.363354    2.892050   -1.344087
 H   -0.046659    5.307098   -1.981936
 H    0.821007    4.575272   -0.607745
 H   -0.756595    5.337233   -0.338693
 H   -6.601596    2.490793   -0.584143
 H   -6.624756    3.849849    0.569195
 H   -5.585247    3.914879   -0.893336
 H   -5.404529   -2.017489   -2.438532
 H   -4.846084   -0.493527   -3.163975
 H   -6.547210   -0.659634   -2.631966
 H   -5.649024   -4.269638    2.503643
 H   -6.803379   -3.796027    1.218759
 H   -6.145765   -2.576052    2.346016
 H    1.829340    1.216954    0.857082
 H    3.113274   -0.001693    4.854013
 H    3.711058   -1.536282    4.160404
 H    4.417156   -0.006101    3.626544
 H    3.721895   -1.510886   -2.160930
 H    7.006889   -2.224160   -1.963081
 H    6.917501   -0.754299   -1.144648
 H    3.785182    3.797631    2.568972
 H    4.317204    5.379129    1.933113
 H    5.369101    3.940449    1.791788
