76 
3hl5_ligand_dft.xyz
 O   -2.551681   -2.484521   -1.646887
 C   -1.971838   -1.884281   -0.750099
 C   -1.698914   -0.383016   -0.934476
 C   -2.984616    0.435529   -1.049657
 C   -2.665216    1.890588   -1.415921
 C   -3.921313    2.764082   -1.422845
 C   -4.659342    2.688907   -0.084120
 C   -5.003294    1.240222    0.268740
 C   -3.751328    0.360504    0.279990
 N   -0.846435   -0.361130   -2.126555
 C    0.378360    0.172968   -2.061928
 O    0.712704    1.041804   -1.261469
 C    1.483164   -0.410047   -2.968432
 C    1.202483   -1.764702   -3.594795
 N    2.647319   -0.475078   -2.017126
 C    3.977280   -0.747028   -2.608455
 N   -1.495029   -2.510297    0.349351
 C   -1.609091   -3.970049    0.466776
 C   -0.577700   -4.318289    1.539426
 C   -0.518461   -3.061279    2.422642
 C   -1.654551   -2.994724    3.444177
 C   -0.652227   -1.925807    1.374710
 C    0.723940   -1.510278    0.840386
 O    1.240434   -2.043308   -0.147577
 N    1.303281   -0.541397    1.581777
 C    2.541734    0.068044    1.275434
 C    3.678024   -0.732055    1.148521
 C    4.906297   -0.161620    0.835456
 C    5.001470    1.214771    0.640214
 C    3.870962    2.011261    0.775043
 C    2.625294    1.462331    1.101585
 C    1.450967    2.375559    1.212997
 N    0.373042    1.962123    1.895288
 C   -0.665451    2.798283    1.957488
 C   -0.647330    4.044317    1.351925
 C    0.528188    4.386499    0.692251
 N    1.572712    3.566328    0.623150
 H   -1.099309    0.050515   -0.130711
 H   -3.604535   -0.011260   -1.838296
 H   -1.944025    2.289888   -0.687894
 H   -2.171466    1.928310   -2.393316
 H   -3.651641    3.800633   -1.653565
 H   -4.593964    2.428401   -2.223657
 H   -5.568856    3.298026   -0.114245
 H   -4.020516    3.111947    0.705999
 H   -5.712859    0.845717   -0.470597
 H   -5.502180    1.188345    1.242347
 H   -3.083244    0.699373    1.089227
 H   -4.022701   -0.678425    0.504835
 H   -1.046950   -1.104347   -2.784021
 H    1.746796    0.333675   -3.727386
 H    2.063807   -2.129918   -4.159747
 H    0.381864   -1.680485   -4.312851
 H    0.934673   -2.502304   -2.832095
 H    2.636776    0.429453   -1.519584
 H    2.398117   -1.166516   -1.272534
 H    3.996649   -1.754619   -3.021904
 H    4.175632   -0.013953   -3.391698
 H    4.720419   -0.657257   -1.816624
 H   -2.629948   -4.237477    0.758469
 H   -1.408696   -4.433827   -0.500823
 H   -0.851762   -5.210830    2.106904
 H    0.396333   -4.494704    1.073309
 H    0.440266   -2.983330    2.944630
 H   -1.595937   -3.839776    4.136273
 H   -1.600805   -2.073636    4.033682
 H   -2.634444   -3.025650    2.955161
 H   -1.133282   -1.051024    1.828111
 H    0.684858    0.061336    2.125590
 H    3.588127   -1.800145    1.314056
 H    5.789436   -0.789774    0.765565
 H    5.957627    1.671281    0.406477
 H    3.933354    3.083374    0.628046
 H   -1.532590    2.451732    2.514045
 H   -1.495883    4.716045    1.398721
 H    0.640025    5.351417    0.204176
