62 
3hmo_ligand_ani.xyz
 O   -0.856038   -1.822519   -1.775642
 C    0.153931   -2.468094   -1.021913
 C   -0.375096   -3.294995    0.156895
 C   -1.504647   -2.607411    0.901936
 C   -2.562475   -2.080922   -0.074661
 C   -1.952071   -1.147449   -1.147256
 C   -2.926927   -0.948978   -2.304457
 N   -1.528337    0.152031   -0.586234
 C   -0.211017    0.585441   -0.484548
 C    0.980916   -0.150802   -0.477064
 C    2.204461    0.466738   -0.198547
 C    2.233280    1.853078    0.008320
 C    1.059300    2.593395   -0.007027
 C   -0.166585    1.957474   -0.225603
 C   -1.525662    2.403229   -0.179670
 C   -2.334537    1.278302   -0.377838
 C   -3.729264    1.388109   -0.290230
 C   -4.278013    2.640553   -0.087502
 C   -3.471536    3.780854    0.060213
 C   -2.098893    3.667141    0.022029
 C    1.371681    4.046310    0.252797
 N    2.806399    4.008912    0.412746
 C    3.379466    2.772684    0.276571
 O    4.572657    2.544037    0.364905
 C    3.183386   -0.579466   -0.147095
 C    2.508288   -1.783272   -0.396656
 C    3.176152   -3.011527   -0.405569
 C    4.537747   -3.005998   -0.164208
 C    5.227785   -1.806493    0.082312
 C    4.562587   -0.596615    0.092923
 N    1.165629   -1.511783   -0.603221
 O   -3.502931   -1.351041    0.689884
 C   -4.601074   -2.109423    1.150606
 N   -1.097377   -1.417624    1.729324
 C   -0.752385   -1.673505    3.130616
 H    0.643961   -3.135061   -1.736536
 H    0.456892   -3.506735    0.836974
 H   -0.744216   -4.246375   -0.236641
 H   -1.976295   -3.328785    1.579729
 H   -3.039757   -2.915873   -0.602999
 H   -2.489546   -0.228180   -2.998271
 H   -3.032412   -1.907462   -2.821258
 H   -3.917569   -0.612813   -1.993259
 H   -4.364151    0.514081   -0.341164
 H   -5.358596    2.743058   -0.038837
 H   -3.931243    4.752730    0.215785
 H   -1.471055    4.545003    0.145944
 H    0.879226    4.420334    1.160492
 H    1.083605    4.692197   -0.587733
 H    3.380619    4.817361    0.589984
 H    2.642390   -3.939621   -0.593362
 H    5.084454   -3.945223   -0.166884
 H    6.298346   -1.834545    0.267469
 H    5.078829    0.339573    0.280642
 H   -4.290422   -2.853577    1.898871
 H   -5.116769   -2.619549    0.323277
 H   -5.295906   -1.407444    1.620528
 H   -0.296845   -0.946399    1.256622
 H   -1.906577   -0.765021    1.653278
 H   -1.522440   -2.279339    3.618501
 H   -0.658804   -0.734947    3.680888
 H    0.197792   -2.212100    3.214247
