28 
3hmp_ligand_xtb.xyz
 C   -5.434035   -0.679020   -0.464930
 C   -4.464612   -1.820591   -0.492933
 C   -3.962478   -0.406965   -0.526967
 C   -3.248400    0.156906    0.681254
 N   -1.858315   -0.239652    0.697775
 C   -0.853246    0.586857    0.359512
 C    0.499333    0.111988    0.242135
 C    0.921542   -1.213733    0.426310
 C    2.240412   -1.555696    0.280483
 C    3.179856   -0.571727   -0.056130
Cl    4.833925   -1.037421   -0.234371
 C    2.811872    0.733423   -0.242404
 C    1.460905    1.100730   -0.095010
 N    1.117087    2.396238   -0.279836
 C   -0.141970    2.690722   -0.133053
 N   -1.142244    1.866422    0.169965
 H   -5.948384   -0.470890    0.460705
 H   -6.028703   -0.485518   -1.343763
 H   -4.395909   -2.417397   -1.389384
 H   -4.328480   -2.387822    0.416162
 H   -3.561405   -0.045288   -1.465766
 H   -3.726319   -0.200194    1.599074
 H   -3.262675    1.248157    0.663656
 H   -1.675283   -1.229875    0.723326
 H    0.211740   -1.984705    0.690197
 H    2.566079   -2.574153    0.421898
 H    3.525451    1.498648   -0.499279
 H   -0.423603    3.726766   -0.277455
