42 
3hmv_ligand_xtb.xyz
 O   -2.339535   -1.096092    1.753970
 N   -3.514316   -1.238549    1.489049
 O   -4.293138   -1.921242    2.114667
 C   -4.027271   -0.499640    0.362290
 C   -5.381130   -0.196644    0.312857
 C   -5.863555    0.572458   -0.729180
 C   -4.995823    1.032008   -1.708894
 C   -3.647964    0.713349   -1.663015
 C   -3.147545   -0.060250   -0.624943
 C   -1.714199   -0.507776   -0.633485
 O   -1.385684   -1.638504   -0.933231
 N   -0.825120    0.474078   -0.364244
 C    0.519360    0.223354   -0.282786
 C    1.473348    1.146596    0.106549
 C    1.034907    2.484527    0.512037
 N    1.931902    3.287201    1.129251
 O   -0.111105    2.890063    0.313332
 S    1.159149   -1.326877   -0.645280
 C    2.764152   -0.736583   -0.310577
 C    3.950923   -1.626216   -0.455760
 C    5.173992   -1.001791    0.221036
 C    6.442260   -1.768746   -0.136827
 C    5.266401    0.463859   -0.202653
 C    4.086316    1.265232    0.349411
 C    2.786061    0.569176    0.066073
 H   -6.027085   -0.560049    1.097677
 H   -6.912914    0.818524   -0.774893
 H   -5.372189    1.638707   -2.518188
 H   -2.979153    1.056153   -2.437408
 H   -1.062868    1.442896   -0.111782
 H    2.809643    2.944826    1.470366
 H    1.592715    4.173783    1.465122
 H    3.733475   -2.606508   -0.026259
 H    4.162774   -1.779921   -1.519353
 H    5.031131   -1.041490    1.306442
 H    6.348043   -2.813932    0.148053
 H    6.626914   -1.719587   -1.207900
 H    7.302700   -1.348731    0.379063
 H    6.199843    0.901624    0.156621
 H    5.265811    0.519420   -1.292949
 H    4.216932    1.374440    1.433035
 H    4.084885    2.259473   -0.104268
