34 
3hp9_ligand_ani.xyz
 O   -2.154674    2.807991    0.917023
 C   -2.775761    1.782184    1.086410
 O   -3.762425    1.758056    2.003427
 C   -2.540382    0.513428    0.327517
 C   -3.609001   -0.367702    0.105898
 C   -3.426606   -1.540475   -0.617198
 O   -4.397798   -2.462169   -0.866674
 C   -5.694345   -2.167318   -0.398799
 C   -2.161658   -1.830016   -1.135423
 C   -1.105569   -0.960299   -0.935806
 C   -1.270942    0.224499   -0.206871
 N   -0.232045    1.132091   -0.043369
 C    1.126946    0.874595   -0.122858
 C    2.006466    1.884792   -0.545767
Cl    1.382306    3.457586   -0.958237
 C    3.371550    1.661168   -0.654985
 C    3.898825    0.421056   -0.316191
 C    1.681679   -0.353217    0.254002
 C    3.047664   -0.575294    0.145291
 C    3.618555   -1.913669    0.513772
 F    4.243937   -2.487989   -0.533243
 F    4.536509   -1.805922    1.494430
 F    2.675907   -2.773219    0.937749
 H   -4.067906    0.849402    2.133730
 H   -4.601718   -0.088420    0.453995
 H   -5.704349   -2.030092    0.690298
 H   -6.096246   -1.265647   -0.879143
 H   -6.315427   -3.024525   -0.662900
 H   -2.030761   -2.749990   -1.695382
 H   -0.135423   -1.192644   -1.367263
 H   -0.530599    2.085004    0.151180
 H    4.013487    2.463529   -1.002548
 H    4.962403    0.228659   -0.400661
 H    1.039146   -1.128106    0.657717
