15 
3hqr_ligand_xtb.xyz
 C    2.282434    0.490264    0.001805
 C    1.108575   -0.511741    0.001993
 C   -1.320808   -0.726681    0.005795
 C   -2.512048    0.228028   -0.003325
 O    2.131362    1.679064    0.010312
 O    3.435996   -0.150464   -0.009208
 O    1.364909   -1.707400   -0.004372
 O   -3.709266   -0.362215    0.002373
 N   -0.101328    0.038493    0.009025
 O   -2.384780    1.414771   -0.014763
 H   -1.354298   -1.374957   -0.880492
 H   -1.363043   -1.370523    0.894895
 H    3.237303   -1.116178   -0.013624
 H   -3.671026   -1.328122    0.013213
 H   -0.194322    1.051067    0.010484
