15 
3hqr_ligand_ani.xyz
 C    2.277910    0.484990    0.002266
 C    1.108780   -0.525148   -0.000755
 C   -1.309343   -0.720236    0.006298
 C   -2.497456    0.229268   -0.002574
 O    2.117668    1.677793    0.009554
 O    3.449092   -0.131987   -0.004015
 O    1.337431   -1.729644   -0.007718
 O   -3.700123   -0.370980    0.005253
 N   -0.097604    0.047497    0.005106
 O   -2.398889    1.425970   -0.015610
 H   -1.356051   -1.379954   -0.871187
 H   -1.361418   -1.370812    0.890453
 H    3.251333   -1.092113   -0.009179
 H   -3.592405   -1.332414    0.017361
 H   -0.179011    1.060348    0.005685
