44 
3hqw_ligand_ani.xyz
 C   10.829720   15.575706   40.499305
 C    9.015759   17.751524   37.450073
 C   13.433722   16.359784   41.084581
 C   12.703616   22.213605   40.111762
 C   12.665505   17.088817   40.183509
 C    7.376187   18.304901   35.567362
 C   12.279440   21.202973   40.979475
 C   13.819122   24.283423   39.838167
 O   13.373887   23.245976   40.684837
 C   12.426425   22.111994   38.748914
 C   11.726118   21.012447   38.267301
 C   11.592102   20.111044   40.484597
 C   11.300162   19.990504   39.118746
 C   10.559849   18.837014   38.609017
 N    9.622446   18.962702   37.609077
 C    7.946254   17.489567   36.511309
 S    7.229931   15.919131   36.507327
 C    6.156573   16.359951   35.244262
 C    6.340874   17.649885   34.837807
 N    9.536023   16.856113   38.254602
 C   10.517495   17.488672   38.957141
 C   11.351586   16.725295   39.891444
 C   11.579756   14.845325   41.398092
 C   12.888101   15.235798   41.701716
 O   13.544834   14.456490   42.598864
 C   14.869301   14.817291   42.925028
 H    9.818443   15.264325   40.250105
 H   14.447056   16.680830   41.293124
 H   13.103258   17.963151   39.710244
 H    7.690588   19.328984   35.391168
 H   12.504819   21.295686   42.035824
 H   14.327339   25.001921   40.482647
 H   14.522411   23.910203   39.082019
 H   12.978776   24.777368   39.332677
 H   12.742470   22.882064   38.053549
 H   11.524568   20.945498   37.199711
 H   11.284688   19.317843   41.159980
 H    5.442192   15.641938   34.862670
 H    5.762626   18.117387   34.048086
 H   11.179428   13.958961   41.881338
 H   15.521270   14.792406   42.041788
 H   14.913552   15.818101   43.374707
 H   15.213706   14.078809   43.650296
 H    9.293023   19.840591   37.234752
