44 
3hqw_ligand_xtb.xyz
 C   -0.011810    2.921220    0.602667
 C    2.486270   -0.339123   -0.011143
 C   -2.494443    2.700203   -0.608631
 C   -3.185429   -3.174088    0.244505
 C   -1.628763    1.621128   -0.594250
 C    4.607508   -1.713990   -0.113565
 C   -3.107471   -1.956927    0.927294
 C   -4.488797   -5.099018   -0.266550
 O   -4.349484   -3.864661    0.392693
 C   -2.100235   -3.589823   -0.518019
 C   -0.966154   -2.800734   -0.593339
 C   -1.978115   -1.177375    0.847884
 C   -0.883669   -1.583524    0.078091
 C    0.319936   -0.777359    0.009968
 N    1.567830   -1.348126   -0.036192
 C    3.900891   -0.540417   -0.038056
 S    4.958159    0.829778    0.026352
 C    6.335787   -0.195969   -0.049394
 C    5.999976   -1.511496   -0.120487
 N    1.888995    0.830071    0.031923
 C    0.551109    0.594517    0.038367
 C   -0.385359    1.707866    0.021987
 C   -0.868582    3.997355    0.594272
 C   -2.125252    3.897878   -0.006414
 O   -2.900665    5.019357    0.046331
 C   -4.170770    4.986278   -0.554467
 H    0.963569    2.997506    1.056574
 H   -3.450085    2.594329   -1.098217
 H   -1.924283    0.704015   -1.082146
 H    4.151887   -2.687440   -0.164833
 H   -3.953801   -1.650260    1.521082
 H   -4.421891   -4.985098   -1.353584
 H   -3.738910   -5.822525    0.070062
 H   -5.480890   -5.463071   -0.004318
 H   -2.124337   -4.521949   -1.060744
 H   -0.142158   -3.134003   -1.209153
 H   -1.925533   -0.245701    1.389439
 H    7.316415    0.235993   -0.037432
 H    6.718050   -2.310208   -0.175837
 H   -0.591423    4.936543    1.046553
 H   -4.102964    4.794789   -1.630586
 H   -4.816581    4.232220   -0.092143
 H   -4.599888    5.974005   -0.392496
 H    1.755936   -2.336389   -0.030498
