35 
3hrf_ligand_ani.xyz
 O   -4.783917   -1.029178   -0.439576
 C   -4.015338   -2.062108   -0.044038
 O   -4.514913   -3.080741    0.359112
 C   -2.524778   -1.920141   -0.152736
 C   -1.800788   -0.802589   -0.297568
 C   -2.320373    0.593740   -0.163998
 C   -2.782077    1.083082    1.065451
 C   -3.208098    2.402423    1.181080
 C   -3.169702    3.250872    0.078244
 C   -2.704153    2.775597   -1.145316
 C   -2.270819    1.459505   -1.262792
 C   -0.310572   -0.873015   -0.538206
 C    0.488150   -0.537836    0.735879
 C    1.967727   -0.359465    0.491658
 C    2.574549    0.890139    0.613877
 C    2.758556   -1.444833    0.109498
 C    4.118473   -1.295392   -0.136237
 C    4.696183   -0.037776   -0.003661
Cl    6.399090    0.160709   -0.310915
 C    3.933908    1.061502    0.369324
 H   -4.223013   -0.302813   -0.755521
 H   -2.016544   -2.879494   -0.093072
 H   -2.811374    0.417287    1.926593
 H   -3.573779    2.766557    2.136841
 H   -3.504213    4.280958    0.170009
 H   -2.670750    3.431475   -2.010423
 H   -1.904863    1.083605   -2.217191
 H   -0.053368   -0.142803   -1.312788
 H   -0.028324   -1.865542   -0.912888
 H    0.330764   -1.335616    1.474830
 H    0.068624    0.376340    1.173064
 H    1.975621    1.750174    0.905887
 H    2.304943   -2.428888    0.002261
 H    4.728451   -2.144074   -0.430196
 H    4.398853    2.037891    0.469114
