30 
3hw1_ligand_ani.xyz
 N   -0.925368    2.583681   -0.232409
 C   -0.044655    1.508873   -0.150845
 N    1.216610    1.742979    0.025075
 C    2.059380    0.657113    0.067044
 C    3.442310    0.859588    0.256609
 C    4.301147   -0.213342    0.275658
 C   -0.584181    0.141813   -0.237684
 N    0.224502   -0.885405   -0.261389
 C    1.562693   -0.650707   -0.095301
 C    2.461270   -1.741872   -0.078157
 C    3.806124   -1.525337    0.104762
 N   -1.935730   -0.061199   -0.327182
 C   -2.962967    0.725153    0.384162
 C   -4.146720   -0.238923    0.551748
 C   -3.539021   -1.630330    0.367874
 C   -2.444328   -1.389434   -0.664099
 H   -0.413991    3.456319   -0.312948
 H   -1.602378    2.480097   -0.979545
 H    3.792200    1.881064    0.381018
 H    5.367063   -0.055916    0.420608
 H    2.049420   -2.739536   -0.208897
 H    4.495635   -2.365782    0.119515
 H   -3.259619    1.601791   -0.196318
 H   -2.569625    1.082145    1.341062
 H   -4.888233   -0.043238   -0.230496
 H   -4.643523   -0.113377    1.517767
 H   -4.266501   -2.377832    0.039131
 H   -3.091229   -1.983411    1.304180
 H   -1.638531   -2.123576   -0.632231
 H   -2.857113   -1.374713   -1.682146
