64 
3hzk_ligand_ani.xyz
 C    2.088592    2.085806   -1.154085
 O    1.294239    2.992356   -1.293802
 O    3.283278    2.097859   -1.743309
 C    1.845915    0.855870   -0.270118
 C    0.402040    0.404436   -0.413948
 C    0.187165   -0.920343    0.312634
 O   -1.097966   -1.487549    0.021323
 C    1.199710   -1.952545   -0.184684
 O    0.944178   -2.253868   -1.536243
 C    2.607324   -1.391058   -0.028239
 O    2.723325   -0.143634   -0.717664
 C    3.746579   -2.313522   -0.479282
 O    4.949739   -1.899194    0.142764
 C    3.973982   -2.351214   -1.993422
 O    4.644278   -1.171776   -2.411177
 O    2.073189    1.212435    1.069223
 C    3.416731    1.571633    1.418628
 C    3.480636    1.624658    2.915496
 C    3.989549    2.637359    3.607861
 C   -1.853174   -1.522296    2.325404
 O   -2.323168   -0.982647    3.290092
 O   -1.021393   -2.582957    2.415948
 C   -2.173192   -1.162341    0.864851
 C   -3.402077   -1.966550    0.457996
 C   -3.920221   -1.534979   -0.909814
 O   -5.098529   -2.215809   -1.262198
 C   -4.156644   -0.031130   -0.911685
 O   -5.316791    0.205819   -0.130088
 C   -2.945571    0.733746   -0.372993
 O   -2.443509    0.213203    0.856973
 C   -3.296384    2.200266   -0.110494
 O   -4.234716    2.669997   -1.072016
 C   -2.063493    3.092817   -0.138018
 O   -1.499447    2.954683   -1.424878
 H    3.325042    2.942090   -2.222766
 H   -0.242697    1.173623    0.015493
 H    0.158204    0.286870   -1.474963
 H    0.320612   -0.766595    1.386924
 H    1.102515   -2.853795    0.443235
 H   -0.017774   -2.354288   -1.593676
 H    2.778348   -1.219887    1.044673
 H    3.523901   -3.324583   -0.111600
 H    5.372013   -1.304308   -0.501191
 H    3.034850   -2.497736   -2.538107
 H    4.652897   -3.181439   -2.217487
 H    4.044686   -0.442942   -2.183568
 H    3.672735    2.548022    0.982231
 H    4.116769    0.826557    1.009139
 H    3.071370    0.757514    3.436592
 H    4.024551    2.622304    4.693971
 H    4.389924    3.525270    3.120770
 H   -0.923051   -2.747384    3.368017
 H   -4.184247   -1.805927    1.208678
 H   -3.160193   -3.033433    0.446172
 H   -3.170251   -1.777221   -1.670332
 H   -5.812897   -1.767339   -0.782522
 H   -4.345778    0.288767   -1.949254
 H   -5.574949    1.122453   -0.319210
 H   -2.162669    0.671462   -1.142235
 H   -3.782834    2.268113    0.863573
 H   -3.727952    2.786597   -1.890843
 H   -1.356616    2.809349    0.658183
 H   -2.366980    4.134604    0.039389
 H   -0.537988    3.078243   -1.375401
