66 
3hzv_ligand_ani.xyz
 C    3.223052    1.516196   -2.260124
 O    3.942798    0.529678   -2.808610
 O    3.228137    2.646010   -2.681690
 C    2.354409    1.018212   -1.099335
 C    1.095782    0.383434   -1.670493
 C    0.285175   -0.281602   -0.570711
 O   -0.810071   -0.925268   -1.228398
 C    1.170063   -1.285381    0.187112
 O    1.492443   -2.391798   -0.633362
 C    2.461512   -0.607608    0.653130
 O    3.126823    0.067877   -0.409759
 C    3.484756   -1.574360    1.262180
 O    4.024021   -2.507013    0.342024
 C    2.942071   -2.369416    2.449812
 O    3.951043   -3.219327    2.934733
 O    1.967307    2.083856   -0.287165
 C    3.017215    2.833589    0.332515
 C    2.397697    3.643470    1.459759
 C    1.364135    4.652464    0.969933
 C   -1.535639   -2.598589    0.336536
 O   -1.123894   -3.586592   -0.499473
 O   -1.526977   -2.727348    1.528315
 C   -1.931513   -1.337443   -0.457175
 C   -3.068177   -1.663597   -1.416609
 C   -3.597962   -0.392241   -2.068097
 O   -4.780795   -0.641937   -2.814020
 C   -4.001780    0.601756   -0.980848
 O   -5.099363    0.092033   -0.260712
 C   -2.815479    0.835107   -0.051562
 O   -2.318046   -0.385874    0.483642
 C   -3.091844    1.790514    1.104183
 O   -1.836234    2.271643    1.550642
 C   -3.821283    1.163066    2.287188
 O   -3.860942    2.190013    3.279662
 H    4.415129    0.938150   -3.552608
 H    0.498512    1.149181   -2.174038
 H    1.375788   -0.371431   -2.409586
 H   -0.075354    0.463237    0.145792
 H    0.622336   -1.621535    1.081391
 H    0.679911   -2.712634   -1.055219
 H    2.183342    0.125721    1.428474
 H    4.333846   -0.973749    1.609193
 H    3.289239   -2.780519   -0.235053
 H    2.632538   -1.704739    3.264300
 H    2.065613   -2.961679    2.128814
 H    4.358042   -3.586930    2.133681
 H    3.487642    3.487184   -0.412976
 H    3.784815    2.145763    0.714353
 H    3.212408    4.158370    1.985230
 H    1.943955    2.954117    2.183573
 H    1.800703    5.336101    0.232089
 H    0.518982    4.146019    0.494274
 H    0.979247    5.252468    1.800643
 H   -0.857293   -4.323765    0.075003
 H   -3.882569   -2.140105   -0.862014
 H   -2.713974   -2.366787   -2.176046
 H   -2.820777    0.056589   -2.703561
 H   -4.640803   -1.428034   -3.356381
 H   -4.265551    1.560652   -1.461147
 H   -5.703058   -0.265435   -0.930300
 H   -2.029056    1.315600   -0.650309
 H   -3.699376    2.630756    0.727519
 H   -2.017768    2.662825    2.419459
 H   -3.239867    0.302956    2.641639
 H   -4.828724    0.838287    2.004206
 H   -4.011025    1.780303    4.138630
