63 
3i02_ligand_ani.xyz
 C   -2.451642    2.122385    2.120759
 O   -2.894321    3.234311    1.998432
 O   -2.422242    1.482882    3.300995
 C   -1.901651    1.254234    0.972236
 C   -0.663706    0.475260    1.386661
 C   -0.276387   -0.542610    0.323821
 C   -1.492483   -1.436838    0.034240
 O   -1.833024   -2.172584    1.200435
 C   -2.682904   -0.570040   -0.366024
 O   -2.967626    0.395051    0.648841
 C   -3.997123   -1.329685   -0.611052
 O   -4.450033   -2.080300    0.503129
 C   -3.923333   -2.294383   -1.795174
 O   -3.231402   -3.468693   -1.437550
 O   -1.538358    2.090372   -0.099009
 C   -2.535913    2.736074   -0.780987
 C   -2.270453    3.362558   -1.920350
 C   -3.298225    4.069374   -2.751115
 C    1.443292   -2.653989   -1.011157
 O    0.818040   -2.325835   -1.987920
 O    1.792708   -3.929968   -0.779724
 C    1.902643   -1.681191    0.094691
 O    0.772460   -1.345123    0.879860
 C    2.940949   -2.312169    1.006748
 C    3.560782   -1.261463    1.918854
 C    4.161695   -0.161075    1.049805
 O    5.177945   -0.755697    0.278328
 C    3.032493    0.435367    0.192414
 O    2.426988   -0.582889   -0.602450
 C    3.455332    1.548932   -0.763722
 O    4.585403    1.153619   -1.529311
 C    3.800041    2.847638   -0.041582
 O    4.313562    3.720284   -1.041953
 H   -2.818639    2.089899    3.948008
 H    0.154995    1.179117    1.560979
 H   -0.861607   -0.054162    2.319785
 H    0.056101   -0.053348   -0.597015
 H   -1.246960   -2.117910   -0.788983
 H   -1.012783   -2.566629    1.532258
 H   -2.420869   -0.043435   -1.296519
 H   -4.755647   -0.562313   -0.820799
 H   -3.724409   -2.106913    1.149763
 H   -4.947567   -2.524262   -2.124009
 H   -3.394604   -1.837345   -2.641141
 H   -3.600030   -3.707843   -0.571478
 H   -3.526250    2.682903   -0.323808
 H   -1.242409    3.360105   -2.277970
 H   -4.296910    4.023458   -2.303368
 H   -3.356010    3.631832   -3.755252
 H   -3.033776    5.125188   -2.884316
 H    1.454515   -4.436387   -1.536446
 H    3.722186   -2.750810    0.379379
 H    2.470587   -3.114080    1.580699
 H    4.347933   -1.704795    2.535694
 H    2.801436   -0.839278    2.590632
 H    4.586674    0.628609    1.697833
 H    5.298927   -0.201689   -0.513875
 H    2.274099    0.850628    0.874934
 H    2.611080    1.732582   -1.443631
 H    4.975035    1.982706   -1.851962
 H    2.903929    3.270064    0.435425
 H    4.560848    2.655228    0.729219
 H    4.798884    4.435177   -0.615273
