63 
3i02_ligand_dft.xyz
 C   -2.701774    1.960676    2.225377
 O   -2.799020    3.158216    2.307434
 O   -3.172392    1.111154    3.145863
 C   -1.991213    1.208754    1.080048
 C   -0.771505    0.447140    1.606505
 C   -0.198671   -0.423129    0.498479
 C   -1.299711   -1.327075   -0.060286
 O   -1.713811   -2.244160    0.936991
 C   -2.495262   -0.490201   -0.503490
 O   -2.963147    0.354787    0.547583
 C   -3.699812   -1.307068   -0.980595
 O   -4.271705   -2.109610    0.034503
 C   -3.356409   -2.214990   -2.174735
 O   -2.653323   -3.365756   -1.758461
 O   -1.493110    2.110259    0.126401
 C   -2.416513    2.770905   -0.649884
 C   -2.105831    3.150230   -1.884002
 C   -3.024014    3.947199   -2.761102
 C    1.359244   -2.704650   -0.747694
 O    1.536856   -2.718935   -1.933433
 O    0.654387   -3.659122   -0.093672
 C    1.880451   -1.645228    0.243091
 O    0.839922   -1.198922    1.092242
 C    2.950169   -2.248684    1.158040
 C    3.634932   -1.147946    1.969341
 C    4.159636   -0.064864    1.027827
 O    5.183942   -0.642384    0.261468
 C    2.980774    0.446241    0.182543
 O    2.380279   -0.615904   -0.550676
 C    3.296790    1.541705   -0.829393
 O    4.477895    1.230175   -1.545355
 C    3.459229    2.904184   -0.163387
 O    3.873157    3.783128   -1.195998
 H   -3.598783    1.652428    3.829978
 H   -0.024321    1.160504    1.965599
 H   -1.083671   -0.192080    2.434642
 H    0.207016    0.196953   -0.306974
 H   -0.952131   -1.865046   -0.947860
 H   -0.946629   -2.806455    1.120699
 H   -2.167836    0.135081   -1.346067
 H   -4.458913   -0.581687   -1.299390
 H   -3.607567   -2.207743    0.734814
 H   -4.295695   -2.495627   -2.672746
 H   -2.730868   -1.691710   -2.905887
 H   -3.121340   -3.645571   -0.956152
 H   -3.372555    2.981073   -0.179516
 H   -1.121133    2.894141   -2.271081
 H   -3.992864    4.113728   -2.279261
 H   -3.202948    3.437556   -3.715142
 H   -2.593611    4.927880   -2.996682
 H    0.294514   -4.247832   -0.778725
 H    3.691945   -2.744384    0.525499
 H    2.483444   -2.994611    1.805717
 H    4.474648   -1.567702    2.530620
 H    2.930837   -0.711439    2.685847
 H    4.537041    0.784052    1.625206
 H    5.291786   -0.089575   -0.529906
 H    2.238415    0.863052    0.882441
 H    2.447214    1.597575   -1.525536
 H    4.760785    2.060656   -1.957179
 H    2.505649    3.222802    0.280017
 H    4.217844    2.847424    0.630472
 H    4.187218    4.603959   -0.802694
