63 
3i02_ligand_xtb.xyz
 C   -2.705730    1.703868    2.205923
 O   -2.949800    2.875314    2.228981
 O   -3.025932    0.857563    3.174756
 C   -1.965801    0.985536    1.053901
 C   -0.729541    0.259548    1.599818
 C   -0.108334   -0.557131    0.469634
 C   -1.167244   -1.530162   -0.076027
 O   -1.478444   -2.490296    0.909152
 C   -2.412993   -0.743438   -0.508319
 O   -2.908558    0.089963    0.528518
 C   -3.582936   -1.643073   -0.943059
 O   -4.078792   -2.425639    0.111034
 C   -3.193933   -2.560733   -2.125817
 O   -2.377382   -3.627573   -1.719402
 O   -1.507169    1.909828    0.106099
 C   -2.473313    2.638170   -0.557613
 C   -2.153674    3.665188   -1.325857
 C   -3.152071    4.461383   -2.096025
 C    1.622184   -2.525449   -0.981028
 O    1.681425   -2.341156   -2.160870
 O    1.152487   -3.648170   -0.429743
 C    2.064402   -1.526474    0.107186
 O    0.992860   -1.280797    1.005564
 C    3.207418   -2.147703    0.922252
 C    3.767489   -1.111104    1.890114
 C    4.202201    0.132712    1.113133
 O    5.321110   -0.201937    0.332790
 C    3.010508    0.637161    0.273736
 O    2.458811   -0.370688   -0.562793
 C    3.400620    1.780883   -0.669482
 O    4.196641    2.706663    0.030500
 C    2.153051    2.459789   -1.243781
 O    2.599187    3.576015   -1.989675
 H   -3.530640    1.308822    3.872746
 H   -0.018669    0.990020    1.983358
 H   -1.038851   -0.411341    2.401522
 H    0.230730    0.105460   -0.334513
 H   -0.778156   -2.028546   -0.974096
 H   -0.635590   -2.784281    1.283638
 H   -2.114817   -0.119817   -1.366064
 H   -4.400480   -0.986269   -1.266748
 H   -3.365328   -2.537318    0.756615
 H   -4.121100   -2.949181   -2.569124
 H   -2.643089   -2.003468   -2.885659
 H   -2.785425   -3.993453   -0.920769
 H   -3.489554    2.289127   -0.432309
 H   -1.119166    3.964441   -1.406451
 H   -4.155669    4.076334   -1.939094
 H   -2.924688    4.430648   -3.161507
 H   -3.123917    5.503807   -1.781298
 H    0.827621   -4.254275   -1.118324
 H    3.990147   -2.450109    0.226005
 H    2.826010   -3.017567    1.454417
 H    4.631746   -1.523360    2.409805
 H    3.005429   -0.834853    2.618830
 H    4.460256    0.938672    1.816511
 H    5.637567    0.602198   -0.092451
 H    2.246970    0.994934    0.980843
 H    3.965674    1.352106   -1.512076
 H    4.158291    3.529566   -0.476259
 H    1.618096    1.742409   -1.874119
 H    1.494027    2.785275   -0.426504
 H    1.847214    3.973475   -2.438354
