34 
3i06_ligand_ani.xyz
 N    0.262984    1.109356   -0.182241
 C    1.467952    1.696694   -0.302251
 N    2.465566    3.902249   -0.569096
 N    2.681013    1.140572   -0.300192
 C    2.611622   -0.185185   -0.177028
 C    1.447772   -0.930532   -0.073210
 C    0.231117   -0.215294   -0.071901
 N   -0.921707   -0.942164    0.028735
 N    1.731424   -2.284997    0.011100
 C    3.036349   -2.328465   -0.036812
 N    3.640077   -1.098709   -0.149754
 C    5.739444   -0.900458    1.165291
 F   -4.405646    2.230572    0.890874
 F   -5.472542   -2.082140   -0.593905
 C   -5.002362    0.092663    0.150486
 C   -2.663697    0.728190    0.471243
 C   -3.222773   -1.505377   -0.285559
 C    5.062083   -0.785760   -0.195169
 C    1.437786    3.172372   -0.456581
 C   -4.021231    1.005179    0.502034
 C   -4.561630   -1.161145   -0.243207
 C   -2.266319   -0.547027    0.067160
 H    3.300517    3.299814   -0.535483
 H   -0.747621   -1.940546    0.037479
 H    3.631473   -3.234109   -0.001591
 H    5.256878   -0.240618    1.891250
 H    5.696285   -1.926280    1.546521
 H    6.791348   -0.610957    1.080629
 H   -6.054758    0.347458    0.183010
 H   -1.937081    1.482779    0.749972
 H   -2.937207   -2.502611   -0.605465
 H    5.141426    0.234742   -0.581507
 H    5.531399   -1.456971   -0.922654
 H    0.438862    3.612119   -0.471732
