52 
3i28_ligand_dft.xyz
 C    0.994010   -1.437669    0.457234
 C    0.328613   -0.925566   -0.652723
 C   -0.852707   -0.219875   -0.468001
 C   -1.373512   -0.015232    0.812709
 C    0.495195   -1.253353    1.742078
 C   -1.387033    3.041156    1.475241
 C    0.584235    2.872351    0.042422
 C    1.896909    2.179499   -0.188732
 C    4.252568    0.813637   -0.770167
 C    3.894073    1.044278    0.560257
 C    2.718585    1.726149    0.844825
 C   -4.333434    0.648700   -0.905216
 C   -5.908760   -1.148254   -0.983552
 F   -6.923849   -1.776449   -1.595000
 C   -5.385133    0.000880   -1.549467
 C   -5.411842   -1.667693    0.203642
 C   -4.362652   -1.007708    0.828523
 C   -3.807933    0.158328    0.290658
 C   -2.635640    0.812675    1.013999
 C   -0.694336   -0.551727    1.910031
 S    2.519606   -2.337306    0.231933
 O    3.370439   -2.068707    1.388575
 O    2.990695   -2.091655   -1.127149
 C    2.008623   -4.052062    0.323084
 C   -2.429958    2.290651    0.636382
 N   -0.011462    2.628873    1.246131
 O    0.073937    3.586706   -0.809422
 C    5.465779    0.104058   -1.070737
 N    6.456048   -0.444603   -1.317047
 C    3.441861    1.278661   -1.810739
 C    2.274298    1.963595   -1.515295
 H    0.754252   -1.060866   -1.641438
 H   -1.371517    0.190299   -1.329686
 H    1.040080   -1.638079    2.598698
 H   -1.454669    4.105992    1.240257
 H   -1.591518    2.923292    2.544930
 H    4.524708    0.672801    1.359130
 H    2.462680    1.918349    1.882383
 H   -3.932794    1.552224   -1.353144
 H   -5.799652    0.381041   -2.476601
 H   -5.847530   -2.568696    0.621141
 H   -3.961076   -1.410426    1.755468
 H   -2.869098    0.785434    2.087499
 H   -1.090885   -0.401074    2.911374
 H    2.911846   -4.651315    0.188276
 H    1.566836   -4.244967    1.302056
 H    1.294666   -4.253879   -0.477071
 H   -2.141193    2.391979   -0.414462
 H   -3.390396    2.806944    0.753430
 H    0.313099    1.821967    1.757109
 H    3.728523    1.091768   -2.839658
 H    1.631070    2.338619   -2.303982
