14 
3i4y_ligand_xtb.xyz
 C    0.109406    1.594086   -0.000657
 C    1.164614    0.662603    0.000792
 C    0.841528   -0.691106   -0.000794
 C   -0.467697   -1.144732   -0.001982
 C   -1.484044   -0.208441   -0.000509
 C   -1.203980    1.149956   -0.000233
 O    0.430883    2.906805   -0.002067
 O    2.435158    1.108039    0.003736
Cl    2.146726   -1.838815   -0.000814
Cl   -3.126315   -0.734508    0.001336
 H   -0.683778   -2.199926   -0.003632
 H   -2.013191    1.865093    0.000658
 H   -0.370344    3.445006   -0.005226
 H    3.033040    0.343379    0.006294
