86 
3i6o_ligand_ani.xyz
 C    0.981040    3.853179   -0.774014
 C    2.248148    3.354175   -0.480208
 C    2.557005    2.017482   -0.692160
 C    1.603391    1.164935   -1.261134
 C    0.342452    1.674472   -1.560250
 C    0.007294    3.000236   -1.304689
 S    1.917657   -0.550582   -1.613925
 O    0.752317   -1.056793   -2.320050
 O    3.239782   -0.680020   -2.203059
 N    1.953255   -1.315688   -0.120643
 C    3.196295   -1.187035    0.648396
 C    3.543514   -2.441057    1.445146
 C    4.747904   -2.255376    2.381788
 C    6.075104   -1.850671    1.709778
 C    0.709323   -1.249655    0.657275
 C   -0.169430   -2.479972    0.394098
 O    0.587548   -3.660258    0.617172
 C   -1.386838   -2.503347    1.323987
 N   -2.294616   -1.414471    1.025191
 C   -2.302505   -0.277375    1.770200
 O   -1.645846   -0.090010    2.777044
 O   -3.144157    0.632233    1.216884
 C   -3.192579    1.920478    1.867677
 C   -2.141665    2.844620    1.267496
 O   -2.757098    3.471418    0.144571
 C   -4.134975    3.657839    0.423036
 O   -4.918173    3.361321   -0.688752
 C   -5.339784    2.002079   -0.593483
 C   -5.604557    1.788590    0.894056
 C   -4.509930    2.640065    1.543450
 C   -2.122302   -3.851185    1.310971
 C   -4.066201   -3.866206   -0.300060
 C   -4.633942   -4.162132   -1.536930
 C   -3.873842   -4.787631   -2.520285
 C   -2.545604   -5.114924   -2.259867
 C   -1.980317   -4.817882   -1.023613
 C   -2.735732   -4.193667   -0.025802
 O    0.787186    5.169857   -0.510167
 C   -0.481388    5.712561   -0.828593
 O    3.757750    1.554544   -0.241093
 C    4.896104    1.830257   -1.062930
 C    6.148249    1.553252   -0.240915
 C    6.298432    0.102348    0.114925
 C    6.164963   -0.392894    1.343775
 H    2.995295    4.017826   -0.056413
 H   -0.388325    1.003725   -2.004193
 H   -1.016619    3.328330   -1.451993
 H    3.115614   -0.319027    1.316688
 H    3.987603   -0.987819   -0.072795
 H    3.755712   -3.260518    0.741916
 H    2.679387   -2.765085    2.041100
 H    4.499582   -1.505823    3.147017
 H    4.904119   -3.197109    2.921894
 H    6.888819   -2.071144    2.413045
 H    6.254345   -2.480803    0.825981
 H    0.984197   -1.220551    1.716012
 H    0.157666   -0.330338    0.429891
 H   -0.499267   -2.439389   -0.653551
 H    1.364561   -3.571747    0.045656
 H   -1.028159   -2.322977    2.342936
 H   -2.873386   -1.447254    0.198688
 H   -3.043467    1.759483    2.936210
 H   -1.256936    2.306325    0.925253
 H   -1.828997    3.603419    2.001081
 H   -4.300949    4.715191    0.673499
 H   -4.545326    1.342711   -0.959782
 H   -6.225362    1.885498   -1.224141
 H   -6.592406    2.182355    1.158117
 H   -5.558930    0.740560    1.192466
 H   -4.871538    3.154331    2.440705
 H   -1.416642   -4.631553    1.613651
 H   -2.909765   -3.796190    2.071338
 H   -4.662555   -3.373146    0.466925
 H   -5.670905   -3.901005   -1.731039
 H   -4.314331   -5.019360   -3.486387
 H   -1.946264   -5.602283   -3.023943
 H   -0.934783   -5.048360   -0.826092
 H   -0.431321    6.770926   -0.568210
 H   -1.280636    5.220980   -0.259050
 H   -0.689951    5.612228   -1.902511
 H    4.840185    1.189731   -1.950749
 H    4.872207    2.881424   -1.379274
 H    7.015814    1.880794   -0.829615
 H    6.115823    2.162271    0.670897
 H    6.448069   -0.580500   -0.726866
 H    6.054579    0.302602    2.179485
