77 
3i7e_ligand_xtb.xyz
 C   -2.774806   -3.649721    0.550009
 O   -3.831853   -1.552280    1.016810
 C   -4.010727   -2.747916    0.281251
 O   -4.076479   -2.502162   -1.083089
 C   -2.792335   -2.736559   -1.650482
 C   -2.217157   -3.907738   -0.851048
 C   -2.856461   -1.750950    2.014928
 C   -1.880993   -2.804013    1.471803
 O   -0.822107   -2.203828    0.738700
 C    0.222822   -1.760395    1.483961
 O    0.240827   -1.812677    2.698336
 N    1.200610   -1.288152    0.704597
 C    2.393656   -0.661047    1.241506
 C    3.417454   -0.524196    0.108627
 C    3.667874   -1.858825   -0.537687
 C    3.014047   -2.203518   -1.713899
 C    3.215743   -3.446335   -2.288854
 C    4.071822   -4.357994   -1.694797
 C    4.727571   -4.021091   -0.522844
 C    4.525324   -2.778947    0.051930
 C    2.091499    0.692486    1.931633
 O    1.740380    0.501824    3.279341
 C    0.989033    1.517366    1.223275
 N    1.417986    2.177818    0.008973
 S    0.586960    1.717323   -1.373550
 O    0.734778    0.289405   -1.512236
 O    1.065214    2.527171   -2.452496
 C   -1.134352    2.056123   -1.060842
 C   -1.630728    3.338692   -1.223170
 C   -2.957689    3.590782   -0.948968
 C   -3.800546    2.560561   -0.510719
 O   -5.082992    2.908841   -0.269149
 C   -5.986815    1.908346    0.151068
 C   -3.289396    1.272370   -0.355970
 C   -1.955333    1.033213   -0.630608
 C    1.647193    3.606288    0.102989
 C    2.964011    3.965665    0.800285
 C    3.058643    5.482351    0.948462
 C    4.147207    3.428190    0.002485
 H   -3.055028   -4.570050    1.060709
 H   -4.967509   -3.203264    0.578166
 H   -2.157925   -1.849714   -1.547583
 H   -2.944380   -2.955157   -2.707011
 H   -1.131118   -3.922415   -0.868928
 H   -2.603382   -4.852667   -1.233027
 H   -3.326656   -2.118185    2.937248
 H   -2.370549   -0.794987    2.214067
 H   -1.444675   -3.389022    2.287609
 H    0.997252   -1.081898   -0.270059
 H    2.791402   -1.328528    2.018480
 H    4.345205   -0.129255    0.526559
 H    3.025897    0.178085   -0.627732
 H    2.348781   -1.490539   -2.179035
 H    2.704083   -3.703563   -3.204984
 H    4.230112   -5.327308   -2.144440
 H    5.398672   -4.727612   -0.056310
 H    5.040839   -2.518871    0.965829
 H    3.011484    1.285822    1.949249
 H    1.151869   -0.272016    3.342772
 H    0.144643    0.864347    0.989313
 H    0.638382    2.260961    1.948919
 H   -0.976358    4.116744   -1.582213
 H   -3.376040    4.577141   -1.070743
 H   -6.084440    1.117867   -0.597963
 H   -6.943013    2.413804    0.274947
 H   -5.680479    1.466336    1.103223
 H   -3.905098    0.450889   -0.028020
 H   -1.549665    0.038850   -0.529885
 H    1.681431    3.971342   -0.924181
 H    0.809559    4.091782    0.626902
 H    2.965789    3.517708    1.798715
 H    3.030107    5.960448   -0.028062
 H    3.990779    5.754267    1.437107
 H    2.234607    5.867090    1.545092
 H    5.079765    3.606258    0.533099
 H    4.198695    3.919705   -0.966301
 H    4.033937    2.361285   -0.165411
