49 
3i7g_ligand_ani.xyz
 C   -4.503715   -1.343903   -0.342048
 C   -3.196071   -0.859298   -0.254758
 C   -2.989069    0.440462    0.226513
 C   -4.062044    1.233173    0.609281
 C   -5.354495    0.725214    0.512540
 C   -5.585572   -0.561196    0.038734
 C   -2.075361   -1.702915   -0.665105
Cl   -6.701094    1.716456    0.992523
 C   -1.977123   -2.937039   -1.250618
 C   -0.587006   -3.205637   -1.407374
 C    0.063496   -2.123538   -0.909911
 O   -0.831023   -1.202364   -0.455352
 C    1.490256   -1.805574   -0.793911
 O    2.354928   -2.603982   -1.154035
 N    1.759730   -0.583406   -0.278876
 C    3.128360   -0.127379   -0.096415
 C    3.260710    1.397252   -0.222682
 C    3.705495   -0.674928    1.228628
 O    3.876514    0.023085    2.218966
 N    4.003327   -1.997858    1.196424
 C    4.564150   -2.677486    2.343393
 C    2.282074    2.192952    0.651718
 C    2.533816    3.696187    0.512164
 C    2.386724    4.136732   -0.946173
 C    3.322129    3.339189   -1.857830
 C    3.117178    1.831505   -1.688348
 H   -4.683295   -2.350822   -0.708717
 H   -1.983142    0.840717    0.301531
 H   -3.902629    2.240880    0.981709
 H   -6.599494   -0.941534   -0.029973
 H   -2.792305   -3.582716   -1.548155
 H   -0.108334   -4.077450   -1.831737
 H    1.010376   -0.082888    0.177934
 H    3.693578   -0.595334   -0.911133
 H    4.277538    1.643701    0.112378
 H    3.778308   -2.519787    0.358340
 H    5.627197   -2.902730    2.196645
 H    4.462466   -2.024328    3.212491
 H    4.024970   -3.611919    2.530123
 H    1.247754    1.994043    0.328479
 H    2.371406    1.870573    1.693875
 H    3.549355    3.927536    0.864944
 H    1.843732    4.256265    1.154429
 H    1.346920    3.969688   -1.263792
 H    2.575810    5.212509   -1.047283
 H    3.174825    3.625819   -2.906128
 H    4.364667    3.588215   -1.610485
 H    2.114719    1.547395   -2.041355
 H    3.835834    1.284732   -2.313265
