47 
3iad_ligand_ani.xyz
 C   -2.744875    0.003336    0.542994
 C   -3.320729    0.913864   -0.342431
 C   -4.213958    1.855073    0.139408
 C   -4.523825    1.971426    1.485483
 C   -3.922346    1.085400    2.370840
 C   -3.054352    0.101944    1.905392
 C   -0.053522   -2.993959   -0.977690
 C    0.144381   -1.668630   -1.339616
 C   -0.765801   -0.752691   -0.827128
 C   -1.820904   -1.053751    0.026890
 C   -1.981863   -2.415710    0.352211
 C   -1.102530   -3.374692   -0.148135
 C    1.317495   -1.219549   -2.188598
 C    2.499398   -0.758989   -1.358002
 C    2.568312    0.547897   -0.872994
 C    3.633952    0.976073   -0.093404
 C    4.662653    0.088948    0.235747
 C    4.581096   -1.233011   -0.209096
 C    3.520358   -1.641088   -1.003811
 C   -3.273253   -4.077444    1.450019
 O   -3.037276   -2.721653    1.147551
 N   -4.845283    2.770559   -0.821732
 O   -5.621264    3.601075   -0.382419
 N    5.752550    0.466932    1.043792
 O   -4.556648    2.641810   -1.998643
 C    6.517497    1.620648    1.021729
 N    6.219369    2.536371    0.032009
 O    7.381183    1.809852    1.858768
 F   -0.589096    0.545607   -1.178800
 H   -3.088540    0.897118   -1.401020
 H   -5.215628    2.737286    1.816550
 H   -4.145193    1.154199    3.431362
 H   -2.616915   -0.605124    2.602901
 H    0.619900   -3.760451   -1.355776
 H   -1.225278   -4.422580    0.101301
 H    0.996116   -0.410214   -2.854443
 H    1.625913   -2.047087   -2.838451
 H    1.775845    1.251902   -1.111031
 H    3.664940    1.997302    0.275078
 H    5.368810   -1.934347    0.057476
 H    3.494451   -2.671237   -1.354831
 H   -3.451796   -4.667365    0.541567
 H   -2.435346   -4.515466    2.007560
 H   -4.169055   -4.092573    2.072068
 H    6.104608   -0.206780    1.708228
 H    6.914002    3.266312   -0.033964
 H    5.867510    2.202370   -0.854780
