38 
3ibl_ligand_dft.xyz
 C   -4.163245    1.071157   -0.584751
 N   -6.631067   -0.686321   -1.174781
 O   -6.622613    0.641353    0.930520
 S   -5.987775   -0.525232    0.358779
 C   -2.658374    1.148124   -0.753196
 N    6.090119    1.372910    0.150674
 O   -5.949593   -1.796967    1.036233
 S    6.096184   -0.280794    0.391204
 C   -1.899128    1.125939    0.575174
 O   -4.459640   -0.210414    0.019448
 C   -0.389456    1.334417    0.427199
 O    4.557782   -0.629623    0.145103
 C    0.326218    0.229431   -0.352510
 O    6.907993   -0.828709   -0.672504
 C    1.843950    0.408509   -0.369515
 O    6.319508   -0.598996    1.779314
 C    2.559056   -0.689522   -1.156428
 C    4.063888   -0.514789   -1.210873
 H   -4.683157    1.125148   -1.546753
 H   -4.537077    1.859772    0.075189
 H   -7.582953   -0.335176   -1.188457
 H   -6.580317   -1.648865   -1.493836
 H   -2.439453    2.079847   -1.292290
 H   -2.336871    0.323998   -1.399829
 H    6.970459    1.664717   -0.261031
 H    5.897741    1.867525    1.016295
 H   -2.090786    0.173565    1.083322
 H   -2.305552    1.911555    1.225807
 H    0.053492    1.401417    1.429345
 H   -0.198543    2.302633   -0.057916
 H   -0.041908    0.198721   -1.387006
 H    0.078868   -0.744923    0.091900
 H    2.223415    0.419973    0.659149
 H    2.092524    1.386901   -0.805131
 H    2.196952   -0.704242   -2.192954
 H    2.329651   -1.672373   -0.727391
 H    4.544897   -1.286401   -1.817254
 H    4.335752    0.473768   -1.597648
