38 
3ibl_ligand_ani.xyz
 C   -4.162608    1.011773   -0.696445
 N   -6.719715   -0.586236   -1.143605
 O   -6.551370    0.680016    0.993581
 S   -6.003195   -0.496915    0.358324
 C   -2.651836    1.080679   -0.805614
 N    6.301816    1.324669   -0.145564
 O   -5.992647   -1.786494    1.000578
 S    6.139451   -0.253604    0.365744
 C   -1.956707    1.094987    0.556835
 O   -4.479148   -0.243092   -0.046007
 C   -0.442018    1.300686    0.469696
 O    4.563631   -0.465911    0.213414
 C    0.298493    0.184644   -0.266748
 O    6.840752   -1.062248   -0.605250
 C    1.814441    0.371873   -0.267191
 O    6.380612   -0.359982    1.782051
 C    2.539682   -0.745914   -1.014212
 C    4.034159   -0.521601   -1.132763
 H   -4.639798    1.023674   -1.682509
 H   -4.564011    1.829641   -0.088254
 H   -7.666932   -0.224412   -1.102698
 H   -6.693313   -1.538632   -1.495965
 H   -2.396539    1.989272   -1.365426
 H   -2.310091    0.230455   -1.406885
 H    7.196116    1.453510   -0.607904
 H    6.180302    1.967224    0.631815
 H   -2.175297    0.155825    1.081788
 H   -2.393751    1.897600    1.167497
 H   -0.036409    1.386602    1.487072
 H   -0.230780    2.259975   -0.026654
 H   -0.054664    0.125119   -1.305813
 H    0.052728   -0.782321    0.196853
 H    2.185506    0.420332    0.764309
 H    2.065013    1.338725   -0.728825
 H    2.140377   -0.838801   -2.032101
 H    2.364358   -1.707224   -0.515635
 H    4.529606   -1.337262   -1.668469
 H    4.256500    0.428913   -1.631373
