44 
3ibn_ligand_ani.xyz
 C   -5.310790    0.223697    1.168489
 N   -8.069417    0.875762    0.092854
 O   -7.491475   -1.540663    0.235856
 S   -7.171206   -0.371039   -0.551138
 C   -3.805587    0.402299    1.210773
 N    7.335077   -0.771567    1.431650
 O   -7.242013   -0.367040   -1.989952
 S    7.398935   -0.540131   -0.216622
 C   -3.048420   -0.791441    0.625626
 O   -5.686557    0.119947   -0.226292
 C   -1.534103   -0.720484    0.837015
 O    5.842375   -0.420404   -0.560530
 C   -0.855503    0.467110    0.156182
 O    8.050500    0.733586   -0.418195
 C    0.658640    0.476096    0.360750
 O    7.819159   -1.741629   -0.890258
 C    1.351089    1.650575   -0.329979
 C    2.843710    1.774074   -0.007534
 C    3.688133    0.581040   -0.452562
 C    5.156340    0.770603   -0.113215
 H   -5.831827    1.083044    1.604518
 H   -5.624109   -0.690675    1.683894
 H   -8.947926    0.522678    0.458097
 H   -8.213861    1.606198   -0.598004
 H   -3.516578    0.550665    2.259006
 H   -3.549599    1.324678    0.676814
 H    8.159493   -0.378617    1.874218
 H    7.220509   -1.756838    1.652083
 H   -3.274108   -0.870582   -0.445903
 H   -3.427842   -1.713324    1.088756
 H   -1.082722   -1.650247    0.465170
 H   -1.318398   -0.685485    1.915766
 H   -1.272735    1.408026    0.541145
 H   -1.080552    0.448685   -0.920747
 H    1.075849   -0.472634   -0.004845
 H    0.874811    0.510514    1.439209
 H    0.850606    2.582872   -0.035222
 H    1.214766    1.559027   -1.417761
 H    2.964670    1.911215    1.078025
 H    3.238357    2.685227   -0.478865
 H    3.594024    0.428097   -1.534284
 H    3.343493   -0.339892    0.032027
 H    5.593893    1.634329   -0.625260
 H    5.309539    0.880604    0.966491
