35 
3ie3_ligand_ani.xyz
 O   -6.871915    2.340899    0.644131
 C   -5.683140    1.875377    0.033118
 C   -5.404863    0.473869    0.546978
 C   -4.123536   -0.118081   -0.036026
 C   -3.848060   -1.541523    0.451421
 C   -2.627082   -2.209429   -0.193079
 C   -1.300440   -1.565672    0.204249
 S    0.085829   -2.498544   -0.535673
 C    1.421884   -1.404399   -0.207826
 C    1.378568   -0.003918   -0.537188
 N    0.420085    0.737915   -1.048439
 O    0.936359    1.983151   -1.123950
 N    2.198168    2.070486   -0.673551
 C    2.510784    0.847699   -0.298609
 C    2.594686   -1.869748    0.339278
 C    3.714949   -1.041953    0.579592
 C    3.692877    0.291937    0.269270
 N    4.875476    1.111269    0.524050
 O    4.820370    2.283614    0.210828
 O    5.841971    0.565367    1.033705
 H   -7.033955    3.238284    0.331761
 H   -4.830852    2.532883    0.273192
 H   -5.783992    1.852667   -1.065287
 H   -6.263829   -0.164775    0.303194
 H   -5.341202    0.509986    1.642028
 H   -3.277811    0.538396    0.217472
 H   -4.189664   -0.121391   -1.134960
 H   -4.730286   -2.161890    0.243843
 H   -3.727191   -1.539274    1.545178
 H   -2.728278   -2.187694   -1.286708
 H   -2.601094   -3.266862    0.098066
 H   -1.181893   -1.564568    1.293810
 H   -1.198258   -0.534262   -0.152862
 H    2.672243   -2.919631    0.607906
 H    4.612661   -1.462062    1.014911
