25 
3ig1_ligand_xtb.xyz
 C   -1.862677    0.520015   -0.184340
 O   -2.762004    0.793117   -0.935805
 C   -0.702229    1.455687    0.134178
 O   -0.946737    2.622962    0.363974
 C    0.648862    0.924249    0.208439
 C    1.124520   -0.285143   -0.154777
 C    0.329752   -1.387749   -0.661959
 C   -0.939188   -1.658056   -0.356636
 C   -1.822157   -0.821223    0.534812
 O   -3.096215   -1.370088    0.680068
 C    3.365855    0.321214   -1.078260
 C    2.613017   -0.552884   -0.070574
 C    3.143570   -0.331415    1.347087
 H    1.348283    1.668065    0.568209
 H    0.863999   -2.089596   -1.289215
 H   -1.429971   -2.532152   -0.758932
 H   -1.370448   -0.708236    1.529356
 H   -3.661628   -0.976602   -0.003496
 H    3.246453    1.374585   -0.839929
 H    4.425800    0.079729   -1.059112
 H    2.990536    0.152730   -2.085123
 H    2.789637   -1.601283   -0.332411
 H    4.190779   -0.619666    1.396197
 H    3.064151    0.711228    1.640953
 H    2.586106   -0.934894    2.059789
