25 
3ig1_ligand_dft.xyz
 C   -1.966195    0.446308   -0.010525
 O   -3.077170    0.754268   -0.368691
 C   -0.830424    1.491793    0.061701
 O   -1.159393    2.656664    0.149408
 C    0.587511    1.093301    0.118522
 C    1.169676   -0.038048   -0.333406
 C    0.451659   -1.183200   -0.918056
 C   -0.768406   -1.612186   -0.584143
 C   -1.667861   -0.974750    0.447934
 O   -2.851650   -1.692374    0.615623
 C    3.489438    1.028831    0.018095
 C    2.678581   -0.230242   -0.282453
 C    3.015035   -1.345226    0.724147
 H    1.209221    1.899768    0.494114
 H    1.013459   -1.759100   -1.651163
 H   -1.197109   -2.485798   -1.066990
 H   -1.126852   -0.906664    1.407350
 H   -3.554211   -1.137408    0.235886
 H    3.310303    1.389177    1.037370
 H    4.557688    0.806250   -0.065820
 H    3.256418    1.838699   -0.680304
 H    2.973533   -0.587562   -1.280059
 H    4.089571   -1.554040    0.715075
 H    2.735203   -1.036688    1.737633
 H    2.484406   -2.274586    0.495296
