47 
3ig7_ligand_ani.xyz
 C    3.513692   -1.531230   -0.910534
 N    2.132858   -1.907201   -0.659670
 C    1.215376   -1.223991    0.121559
 C    0.070264   -1.968154    0.050628
 N   -1.177692   -1.764001    0.647377
 C   -1.438806   -0.789279    1.570604
 C   -2.858606   -0.795421    2.117900
 C   -3.796603   -0.075126    1.177024
 C   -4.929596   -0.686428    0.657778
 C   -5.796042   -0.003934   -0.197708
 C   -5.523076    1.319333   -0.536789
 O   -6.298872    2.081711   -1.353360
 C   -7.460073    1.485116   -1.888090
 C   -4.381238    1.944936   -0.023649
 C   -3.530009    1.249163    0.815184
 O   -0.609104    0.041353    1.891265
 N    0.237705   -3.069186   -0.743535
 C    1.483452   -2.999147   -1.146654
 C    4.387558   -1.151013    0.307254
 C    4.943695    0.043136   -0.501793
 N    5.078995    1.308129    0.172987
 C    6.198858    2.091280    0.048005
 C    6.134933    3.397364    0.812303
 O    7.159309    1.749051   -0.618489
 C    3.783079   -0.132823   -1.514640
 H    3.967316   -2.326879   -1.504814
 H    1.433115   -0.303778    0.638634
 H   -1.892401   -2.428385    0.392043
 H   -2.810490   -0.288548    3.086591
 H   -3.198682   -1.822534    2.295798
 H   -5.155509   -1.718186    0.921791
 H   -6.673017   -0.512750   -0.584041
 H   -7.214235    0.616135   -2.512709
 H   -8.152563    1.171998   -1.095539
 H   -7.936390    2.249809   -2.503232
 H   -4.188729    2.976034   -0.304713
 H   -2.633895    1.728297    1.204770
 H    1.983626   -3.708105   -1.795454
 H    5.100312   -1.896338    0.667375
 H    3.767916   -0.817383    1.147383
 H    5.913621   -0.175852   -0.954396
 H    4.317154    1.629035    0.749756
 H    6.129238    3.212060    1.892023
 H    7.013264    3.991517    0.560709
 H    5.230983    3.963302    0.562016
 H    2.952944    0.553279   -1.312072
 H    4.031553   -0.086523   -2.577676
