40 
3igb_ligand_xtb.xyz
 C    2.707751    3.302139   -0.543161
 N   -1.256112    0.235279   -1.655450
 C    2.440020    2.322840   -1.486304
 N   -2.196608    0.226569    0.504531
 C    1.605174    1.266449   -1.174407
 N   -0.391433    0.032466    1.756535
 C    1.028732    1.184531    0.086786
 N   -2.570965   -0.019524    2.774580
 C    1.286974    2.171070    1.025326
 C    2.127813    3.225539    0.710325
 C    0.116070    0.007348    0.391473
 C   -1.168136    0.164822   -0.396269
 C   -2.577378    0.390120   -2.219643
 C   -3.688110   -0.181881   -1.329985
 C   -3.561796    0.394969    0.079152
 C   -1.766150    0.054820    1.801987
 C    0.868142   -1.287055    0.130769
 C    2.057822   -1.496347    0.820754
 C    2.770036   -2.668698    0.650709
 C    2.302118   -3.644494   -0.213630
 C    1.122292   -3.438374   -0.906177
 C    0.404844   -2.266345   -0.733776
 H    3.363225    4.125344   -0.786766
 H    2.884382    2.383123   -2.468743
 H    1.377572    0.506321   -1.904782
 H    0.147959   -0.381644    2.498326
 H   -2.127100   -0.143849    3.676852
 H    0.827525    2.119056    2.001543
 H    2.327139    3.989222    1.448051
 H   -2.566781   -0.112303   -3.191257
 H   -2.747698    1.457461   -2.400545
 H   -3.579973   -1.267958   -1.283093
 H   -4.667068    0.052308   -1.746421
 H   -3.817827    1.461731    0.081504
 H   -4.206396   -0.115696    0.798397
 H    2.432165   -0.728671    1.484148
 H    3.693441   -2.819119    1.190473
 H    2.858863   -4.559816   -0.349264
 H    0.755535   -4.193410   -1.585808
 H   -0.506430   -2.104348   -1.287555
