40 
3igb_ligand_ani.xyz
 C    2.620845    3.510055   -0.346279
 N   -1.206864    0.490261   -1.661138
 C    2.844001    2.346050   -1.075360
 N   -2.197137    0.078295    0.453188
 C    2.076288    1.213474   -0.825803
 N   -0.386002   -0.002338    1.749198
 C    1.085104    1.225579    0.157810
 N   -2.583132   -0.393433    2.703804
 C    0.861310    2.400994    0.873426
 C    1.627919    3.534503    0.629854
 C    0.165967    0.016282    0.372565
 C   -1.134735    0.208971   -0.427255
 C   -2.572542    0.698700   -2.162077
 C   -3.631014   -0.149503   -1.446726
 C   -3.594255    0.135770    0.046560
 C   -1.773420   -0.143518    1.755238
 C    0.892816   -1.315236    0.097985
 C    1.987172   -1.671902    0.895153
 C    2.671071   -2.863033    0.680948
 C    2.265831   -3.726072   -0.335182
 C    1.179004   -3.382814   -1.133695
 C    0.500572   -2.187164   -0.916039
 H    3.217626    4.398133   -0.538997
 H    3.616109    2.321273   -1.839867
 H    2.242389    0.294425   -1.384992
 H    0.118978   -0.573688    2.407730
 H   -2.086710   -0.515535    3.584376
 H    0.087474    2.409722    1.634767
 H    1.448235    4.441406    1.202012
 H   -2.575328    0.486747   -3.237232
 H   -2.820218    1.764558   -2.045822
 H   -3.439216   -1.214272   -1.628718
 H   -4.624436    0.071995   -1.847526
 H   -4.005132    1.124946    0.281569
 H   -4.145535   -0.599138    0.633737
 H    2.318723   -0.992883    1.679636
 H    3.517252   -3.121251    1.312827
 H    2.796970   -4.658885   -0.504419
 H    0.857468   -4.047018   -1.931710
 H   -0.344290   -1.906858   -1.539477
