34 
3igp_ligand_dft.xyz
 C    4.692311   -2.142959    0.264495
 C    3.459366    3.095858   -0.097767
 N   -3.624376    1.120872    1.415968
 O   -3.970504    1.100252   -1.040093
 O   -4.436412   -1.027963    0.220703
 C    1.978635   -1.443905    0.044846
 C    1.346815    1.243735   -0.131619
 C   -0.456649   -2.106175   -0.073312
 C   -1.756115   -1.561566   -0.651259
 O    4.318810   -0.789177    0.167726
 O    3.728958    1.717577    0.000103
 C    0.632946   -1.059343   -0.066431
 C    2.997699   -0.507616    0.066193
 C    2.674441    0.867928   -0.026359
 C    0.319740    0.287389   -0.149452
 C   -1.104888    0.771714   -0.296581
 N   -2.054957   -0.295768    0.031848
 S   -3.648777    0.178551    0.037059
 H    4.265461   -2.616701    1.158512
 H    4.386614   -2.710882   -0.624277
 H    5.780370   -2.149459    0.338555
 H    2.957741    3.342978   -1.042837
 H    2.842157    3.447099    0.739865
 H    4.428750    3.594358   -0.063789
 H   -4.384956    1.792624    1.378362
 H   -3.670239    0.545961    2.251792
 H    2.209618   -2.502134    0.111176
 H    1.081799    2.293961   -0.199923
 H   -0.142636   -2.977925   -0.659320
 H   -0.644331   -2.456527    0.949522
 H   -2.579832   -2.253280   -0.477198
 H   -1.658276   -1.398863   -1.735386
 H   -1.277665    1.134278   -1.321885
 H   -1.291429    1.606097    0.385144
