115 
3iiy_ligand_dft.xyz
 N    2.114162   -0.523286   -1.826847
 C    1.920728    0.943702   -1.979962
 C    0.540113    1.317504   -1.419953
 O   -0.497919    1.043565   -2.035192
 C    2.051400    1.336718   -3.441912
 N    0.588579    1.943385   -0.237723
 C   -0.520081    2.632727    0.430813
 C   -1.588863    1.642470    0.931964
 O   -1.631282    1.315852    2.109744
 C   -1.071747    3.816514   -0.386624
 C    0.027698    4.697077   -0.991512
 C    1.014342    5.346428    0.007036
 N    2.368234    5.437868   -0.536274
 C    3.113507    4.282928   -0.666894
 N    3.800299    4.139065   -1.849980
 N    3.165454    3.320068    0.199092
 N   -2.457837    1.171006   -0.003061
 C   -3.423397    0.131444    0.303556
 C   -4.830526    0.512595   -0.173105
 C   -5.935982   -0.298374    0.507457
 C   -7.327580    0.109734    0.005255
 C   -8.387731   -0.715653    0.721809
 N   -9.834184   -0.433023    0.343038
 C   -2.973630   -1.226467   -0.273349
 O   -3.759639   -2.041749   -0.736281
 C  -10.711401   -1.331282    1.163818
 C  -10.073853   -0.719935   -1.107543
 C  -10.195397    0.990841    0.636052
 N   -1.638652   -1.441719   -0.221725
 C   -1.021020   -2.673323   -0.648622
 C    0.366251   -2.704699   -0.010603
 O    0.884505   -1.660801    0.409466
 C   -0.925410   -2.746459   -2.191046
 O   -0.226974   -1.657753   -2.749311
 N    0.979307   -3.892031    0.050887
 C    2.373472   -4.020483    0.432372
 C    3.271175   -3.507123   -0.711825
 O    2.818244   -3.189482   -1.802247
 C    2.679447   -5.472279    0.802486
 N    4.593506   -3.459194   -0.394638
 C    5.538881   -2.740674   -1.240682
 C    5.518589   -1.291508   -0.761767
 O    4.718268   -0.474910   -1.217217
 N    6.303232   -1.012444    0.304083
 C    5.874504   -0.036386    1.305920
 C    4.509672   -0.516783    1.855438
 O    4.286478   -1.724439    1.957587
 C    5.954956    1.412112    0.833802
 N    3.636292    0.416009    2.270570
 C    2.388592    0.040473    2.907722
 C    1.475462    1.235485    2.975074
 O    1.800475    2.350726    2.622361
 C    2.584853   -0.528182    4.322319
 H    3.102674   -0.774113   -1.997177
 H    1.914838   -0.831185   -0.862635
 H    1.465860   -1.083926   -2.411460
 H    2.704681    1.415905   -1.381349
 H    1.997059    2.423990   -3.535933
 H    3.020844    1.014398   -3.832792
 H    1.252269    0.888530   -4.038459
 H    1.524061    2.227123    0.069833
 H   -0.081915    3.008223    1.355667
 H   -1.719396    4.399925    0.278343
 H   -1.703019    3.457638   -1.205069
 H    0.608264    4.086571   -1.693146
 H   -0.446891    5.477109   -1.596352
 H    0.693610    6.356001    0.274749
 H    1.064605    4.794446    0.948528
 H    2.451474    6.097280   -1.298666
 H    4.617699    3.548410   -1.790109
 H    3.913260    4.940162   -2.453444
 H    2.747760    3.600264    1.083319
 H   -2.171829    1.286902   -0.971243
 H   -3.416577    0.037981    1.396297
 H   -4.894923    0.382388   -1.260090
 H   -4.969232    1.578433    0.040131
 H   -5.879162   -0.145690    1.593640
 H   -5.765309   -1.360892    0.311956
 H   -7.372424   -0.053327   -1.077138
 H   -7.475434    1.179944    0.188245
 H   -8.233755   -1.781540    0.530585
 H   -8.329405   -0.554939    1.802322
 H  -10.543885   -1.122653    2.221196
 H  -10.461129   -2.370264    0.945682
 H  -11.754967   -1.140759    0.910011
 H   -9.488499   -0.032684   -1.716409
 H  -11.135080   -0.584110   -1.320268
 H   -9.781390   -1.749648   -1.317928
 H  -11.260247    1.129466    0.444653
 H   -9.619736    1.652532   -0.009186
 H   -9.976532    1.202888    1.683590
 H   -1.020319   -0.779567    0.228773
 H   -1.619660   -3.527777   -0.308733
 H   -1.946182   -2.801629   -2.583993
 H   -0.386321   -3.647707   -2.493837
 H   -0.700286   -0.823476   -2.579547
 H    0.541936   -4.687050   -0.394973
 H    2.545801   -3.364611    1.292879
 H    3.711324   -5.576490    1.143472
 H    2.546236   -6.135469   -0.059036
 H    2.019699   -5.801529    1.609449
 H    4.793295   -3.417685    0.600008
 H    5.198871   -2.799257   -2.273664
 H    6.527201   -3.201230   -1.157276
 H    6.865397   -1.773416    0.656982
 H    6.570847   -0.160240    2.142902
 H    5.880197    2.094611    1.686083
 H    5.162447    1.657027    0.126176
 H    6.926399    1.579294    0.362099
 H    3.769290    1.396473    2.048822
 H    1.882728   -0.716219    2.291769
 H    0.465316    1.041880    3.372040
 H    3.092494    0.197585    4.964078
 H    1.619680   -0.780903    4.772197
 H    3.187254   -1.436269    4.265237
