93 
3ij0_ligand_ani.xyz
 N    3.702026    1.653204   -1.824129
 C    2.929503    2.450619   -0.841568
 C    1.437529    2.074114   -0.934959
 O    1.024472    1.242484   -1.747785
 C    3.175799    3.946340   -1.051150
 N    0.638530    2.703761   -0.049388
 C   -0.815783    2.571984    0.116131
 C   -1.182962    1.210201    0.735882
 O   -1.676384    1.137014    1.862014
 C   -1.584370    2.923817   -1.167067
 C   -3.112809    2.879928   -1.038650
 C   -3.694759    3.675290    0.144234
 N   -3.914230    2.888781    1.348390
 C   -4.946664    1.960059    1.386762
 N   -5.933211    1.825556    0.578227
 N   -4.835808    1.073113    2.448777
 N   -0.926575    0.122690   -0.022160
 C   -1.068412   -1.237617    0.472573
 C   -2.308365   -1.957272   -0.063959
 C   -3.624128   -1.250427    0.242925
 C   -4.833064   -2.070580   -0.214735
 C   -6.136972   -1.304235   -0.028022
 N   -7.421883   -2.045380   -0.385497
 C    0.183256   -2.067359    0.131346
 O    0.115642   -3.222113   -0.269060
 C   -7.457785   -2.412966   -1.826999
 C   -8.562075   -1.136661   -0.117995
 C   -7.604772   -3.265691    0.446009
 N    1.372775   -1.436502    0.295429
 C    2.620776   -2.052354   -0.090425
 C    3.757668   -1.211008    0.495150
 O    3.559755   -0.139227    1.061106
 C    2.740223   -2.162543   -1.622622
 O    2.787633   -0.891076   -2.242725
 N    5.009319   -1.690313    0.311830
 C    6.148976   -1.037059    0.917156
 C    6.136332    0.445294    0.568202
 O    6.013752    0.883587   -0.555249
 C    7.431847   -1.669032    0.354933
 O    7.228080   -3.076583    0.434082
 C    8.672565   -1.248305    1.126811
 O    6.372448    1.216500    1.631864
 H    4.706427    1.708035   -1.586690
 H    3.448899    0.644047   -1.766266
 H    3.536665    1.975917   -2.794643
 H    3.271437    2.157933    0.156647
 H    2.747016    4.285908   -2.000084
 H    4.251955    4.145593   -1.060077
 H    2.739598    4.553720   -0.253348
 H    1.080090    3.343127    0.593999
 H   -1.063850    3.306194    0.885861
 H   -1.260937    2.267290   -1.977909
 H   -1.275534    3.937495   -1.448134
 H   -3.539212    3.268315   -1.971593
 H   -3.451233    1.837333   -0.961809
 H   -4.645626    4.145436   -0.135461
 H   -3.035942    4.513804    0.404775
 H   -3.067436    2.535169    1.787754
 H   -5.901317    2.514913   -0.168035
 H   -5.713859    0.643326    2.697208
 H   -4.288277    1.382823    3.237263
 H   -0.447927    0.272449   -0.904897
 H   -1.136950   -1.147561    1.567200
 H   -2.194541   -2.085353   -1.147482
 H   -2.307825   -2.966934    0.360421
 H   -3.638048   -0.272612   -0.258922
 H   -3.704898   -1.042745    1.318963
 H   -4.700869   -2.339060   -1.272412
 H   -4.853591   -3.013876    0.348042
 H   -6.243082   -0.982363    1.013954
 H   -6.131654   -0.404462   -0.647962
 H   -7.323611   -1.510234   -2.428994
 H   -6.673565   -3.134532   -2.054890
 H   -8.431184   -2.858913   -2.049489
 H   -8.456317   -0.239462   -0.732962
 H   -9.493941   -1.648775   -0.369864
 H   -8.563727   -0.865113    0.940622
 H   -6.832703   -4.000157    0.218610
 H   -7.560269   -2.989859    1.502608
 H   -8.584699   -3.696644    0.221969
 H    1.433151   -0.511461    0.699236
 H    2.660318   -3.071709    0.315311
 H    1.896520   -2.756948   -1.989518
 H    3.670495   -2.680056   -1.885843
 H    1.913332   -0.467703   -2.192198
 H    5.165368   -2.650577    0.036488
 H    6.134796   -1.131444    2.010314
 H    7.518169   -1.362852   -0.698679
 H    7.984576   -3.504438    0.015195
 H    8.608815   -1.595864    2.163371
 H    8.781797   -0.160573    1.125277
 H    9.571613   -1.679704    0.674170
 H    6.352476    2.136890    1.318787
