67 
3ikc_ligand_ani.xyz
 C    3.208459   -2.006317   -1.510164
 O    2.657390   -2.797714   -2.233654
 O    4.518312   -1.730909   -1.605543
 C    2.556744   -1.224734   -0.354553
 C    3.097072   -1.766512    0.971547
 C    2.915480   -0.789132    2.140161
 O    3.653958   -1.190850    3.266760
 C    3.323367    0.626546    1.714561
 O    4.725762    0.657943    1.495752
 C    2.536100    1.003607    0.467765
 O    2.940277    0.116784   -0.572819
 C    2.674844    2.448333    0.008418
 O    1.647875    2.680545   -0.941507
 C    4.018637    2.803363   -0.620440
 O    3.852169    4.131345   -1.118655
 C   -5.347033    0.033062   -0.227312
 C   -3.906563    0.269761    0.266166
 O   -3.614001    1.648113    0.195289
 C   -3.727324   -0.154603    1.716195
 C   -2.256678   -0.090918    2.125526
 O   -2.062187   -0.563284    3.436492
 C   -1.435509   -0.915483    1.132649
 O   -1.820706   -2.257234    1.348336
 C   -1.706767   -0.426986   -0.296597
 O   -3.103079   -0.498584   -0.593876
 C   -0.987871   -1.190316   -1.414988
 O   -1.200303   -2.583814   -1.256251
 C    0.491533   -0.839523   -1.518381
 O    1.165999   -1.384087   -0.380139
 C   -0.857141   -3.368729   -2.386813
 C   -3.505041    2.252060   -1.032947
 C   -2.751106    3.333096   -1.191881
 C   -1.905999    3.955221   -0.122846
 O   -6.007817    0.818454   -0.855401
 O   -5.796700   -1.186737    0.106254
 H    4.848835   -2.273415   -2.340614
 H    4.168917   -1.975283    0.865283
 H    2.610007   -2.720521    1.198716
 H    1.859752   -0.777814    2.444273
 H    4.559117   -0.883425    3.101591
 H    3.119289    1.324818    2.536763
 H    4.870538    0.273333    0.615169
 H    1.467387    0.863003    0.675411
 H    2.521148    3.103292    0.882274
 H    1.930546    3.477835   -1.416165
 H    4.828369    2.758389    0.118700
 H    4.227422    2.103616   -1.439919
 H    4.527802    4.295838   -1.785196
 H   -4.325913    0.492246    2.363866
 H   -4.078997   -1.183929    1.835504
 H   -1.910806    0.949256    2.109729
 H   -2.128827   -1.528929    3.374690
 H   -0.366376   -0.792946    1.363671
 H   -1.583938   -2.742613    0.539511
 H   -1.387113    0.623935   -0.355245
 H   -1.480645   -0.871143   -2.345491
 H    0.906668   -1.261100   -2.441030
 H    0.623789    0.250568   -1.556559
 H   -1.338111   -4.341381   -2.257555
 H    0.228044   -3.503038   -2.455879
 H   -1.232033   -2.911140   -3.313774
 H   -4.066403    1.792229   -1.843894
 H   -2.726645    3.772991   -2.186563
 H   -2.115164    5.027272   -0.025760
 H   -0.841112    3.852573   -0.361945
 H   -2.091126    3.473882    0.842168
 H   -6.691244   -1.258949   -0.266434
