61 
3il6_ligand_xtb.xyz
 C    4.789392   -0.118813   -0.380017
 C    4.056742   -1.298783   -0.121283
 C    4.747015   -2.511185   -0.039674
 C    6.113747   -2.565879   -0.209462
 C    6.838208   -1.411129   -0.474592
 C    6.175024   -0.208427   -0.558770
 C    4.246154    1.246650   -0.492837
 O    2.948420    1.411564   -0.127447
 O    4.884082    2.198968   -0.871465
 N    2.685192   -1.244871    0.031795
 C    1.779876   -2.243982    0.300296
 O    2.059071   -3.423500    0.386365
 C    0.391337   -1.744952    0.442899
 C   -0.662003   -2.636337    0.254040
 C   -1.969663   -2.219992    0.350717
 C   -2.318626   -0.889771    0.638357
 C   -1.238065   -0.003619    0.866964
 C    0.072208   -0.431805    0.779489
 O   -1.486745    1.292135    1.284495
 C   -0.692159    2.299454    0.804861
 C   -0.459892    3.385216    1.644481
 C    0.303313    4.448869    1.202632
 C    0.839525    4.444255   -0.075168
 C    0.588838    3.373620   -0.918651
 C   -0.175992    2.304009   -0.488011
 N   -3.625752   -0.489667    0.779785
 C   -4.695983   -1.458512    0.853878
 C   -5.287170   -1.781999   -0.526543
 C   -5.756780   -0.476897   -1.173130
 C   -4.630322    0.557807   -1.199301
 C   -4.100836    0.761147    0.228420
 C   -5.106260    1.881443   -1.787282
 C   -6.429722   -2.783767   -0.403274
 H    4.184534   -3.408083    0.159295
 H    6.618876   -3.517556   -0.137688
 H    7.907420   -1.454030   -0.612413
 H    6.710250    0.706837   -0.762094
 H    2.695556    2.345293   -0.236004
 H    2.299039   -0.316151   -0.061576
 H   -0.431009   -3.662143    0.011764
 H   -2.745489   -2.945424    0.171220
 H    0.838422    0.286879    1.034498
 H   -0.883106    3.373065    2.636492
 H    0.485573    5.283984    1.861758
 H    1.442088    5.272609   -0.415195
 H    0.982281    3.372216   -1.925093
 H   -0.373679    1.471903   -1.148341
 H   -4.345190   -2.359799    1.357101
 H   -5.483857   -1.017952    1.476442
 H   -4.499842   -2.214795   -1.153477
 H   -6.598007   -0.074910   -0.602105
 H   -6.107223   -0.671432   -2.189167
 H   -3.809335    0.168648   -1.813960
 H   -4.911048    1.129161    0.867507
 H   -3.308891    1.504350    0.228808
 H   -4.293666    2.604179   -1.813564
 H   -5.472331    1.738129   -2.801280
 H   -5.913608    2.295057   -1.186660
 H   -7.221782   -2.381987    0.225345
 H   -6.848383   -3.005795   -1.382037
 H   -6.079735   -3.713537    0.039560
