54 
3in4_ligand_ani.xyz
 C    0.929174    3.833201    2.577340
 N   -1.144515    3.443714    0.326283
 O   -3.045413   -1.265070    1.822291
 C   -0.513946    3.329611    2.656235
 N   -3.432505   -2.081225   -0.291810
 C   -0.930835    2.648236    1.379593
 N   -1.681696   -1.276249   -1.417534
 C   -1.034479    1.262300    1.299622
 N   -3.027535   -2.824195   -2.554037
 C   -1.380987    0.668977    0.090221
 N    4.847944    0.863719   -0.803941
 C   -1.661913    1.506511   -0.980073
 N    5.746308   -1.326189   -1.074441
 C   -1.536036    2.886757   -0.823206
 C   -1.842224    3.831977   -1.962771
 C   -0.674676    4.757433   -2.304904
 C   -1.443936   -0.856511   -0.030946
 C   -2.715376   -1.389861    0.663528
 C   -2.758219   -2.140393   -1.518507
 C   -4.648354   -2.806575   -0.008700
 C   -0.154575   -1.500611    0.498082
 C   -0.140241   -2.547204    1.416689
 C    1.069041   -3.122074    1.798435
 C    2.270339   -2.662293    1.271031
 C    2.275586   -1.603271    0.359551
 C    1.057237   -1.043748   -0.018015
 C    3.539380   -1.048506   -0.183267
 C    3.725857    0.325112   -0.332823
 C    5.800030    0.001776   -1.156032
 C    4.620186   -1.836284   -0.579653
 H    1.629296    3.000440    2.447661
 H    1.204879    4.372545    3.489239
 H    1.045528    4.510830    1.724635
 H   -0.628998    2.635519    3.497983
 H   -1.193106    4.171446    2.832528
 H   -0.877902   -1.517508   -1.977367
 H   -0.843780    0.640023    2.169152
 H   -3.870720   -3.376720   -2.418137
 H   -1.968966    1.081498   -1.928338
 H   -2.135899    3.244610   -2.842221
 H   -2.716586    4.432091   -1.679167
 H   -0.956717    5.451307   -3.103275
 H   -0.379356    5.337340   -1.424658
 H    0.197784    4.187557   -2.642098
 H   -5.432763   -2.530868   -0.721258
 H   -4.485229   -3.890300   -0.053559
 H   -4.962161   -2.535150    0.999432
 H   -1.074011   -2.909426    1.836470
 H    1.074208   -3.939672    2.513810
 H    3.212278   -3.105364    1.587359
 H    1.037424   -0.229353   -0.740874
 H    2.939662    1.021486   -0.034191
 H    6.719488    0.428249   -1.552102
 H    4.566740   -2.924403   -0.519563
