51 
3inf_ligand_dft.xyz
 C    1.733375    3.350444    2.380264
 N    2.145001   -2.849271   -0.995591
 O    2.786921    4.248865    0.024605
 C    1.841580    2.452796    1.178558
 N    2.064456   -1.909731    1.023390
 O    0.439790   -1.742964   -2.076149
 C    1.409896    1.136731    1.199927
 N    3.844427   -3.387197    0.641973
 C    1.509746    0.297298    0.082063
 N   -5.794386    1.351464    0.073862
 C    2.047441    0.814350   -1.087454
 C    2.484273    2.138442   -1.143938
 C    2.388433    2.952024   -0.019530
 C    3.325324    4.819750   -1.146556
 C    1.085605   -1.162433    0.237663
 C    1.140005   -1.922538   -1.104237
 C    2.798283   -2.784211    0.247290
 C    2.510696   -3.758876   -2.054517
 C   -0.329867   -1.280334    0.801365
 C   -0.616416   -2.088615    1.896805
 C   -1.925305   -2.179862    2.365603
 C   -2.948931   -1.485018    1.735640
 C   -2.674687   -0.674712    0.626994
 C   -1.358101   -0.573938    0.178763
 C   -3.757154    0.057807   -0.071325
 C   -3.792247    0.157854   -1.464375
 C   -4.830408    0.854800   -2.067857
 C   -5.806635    1.427678   -1.258497
 C   -4.788330    0.684345    0.637518
 H    1.131156    4.236736    2.154450
 H    2.719513    3.710593    2.692518
 H    1.273247    2.824141    3.220916
 H    2.584644   -1.423817    1.739849
 H    0.963866    0.750483    2.114568
 H    4.227457   -3.989739   -0.082615
 H    2.114922    0.205718   -1.983050
 H    2.893502    2.517007   -2.073311
 H    2.598453    4.807954   -1.968563
 H    3.566262    5.853180   -0.894974
 H    4.239175    4.300957   -1.462955
 H    1.788916   -3.624784   -2.861283
 H    3.516308   -3.539498   -2.428327
 H    2.472852   -4.792513   -1.697657
 H    0.183497   -2.645166    2.373175
 H   -2.148294   -2.811559    3.220292
 H   -3.971312   -1.589287    2.087694
 H   -1.122451    0.071305   -0.661837
 H   -3.023391   -0.323536   -2.063048
 H   -4.890564    0.946195   -3.147458
 H   -6.638970    1.972693   -1.698590
 H   -4.788429    0.656182    1.726116
