51 
3inf_ligand_ani.xyz
 C    1.274646    3.441650    2.585882
 N    2.892373   -2.362092   -0.945153
 O    1.534740    4.702262    0.150132
 C    1.362714    2.669421    1.296050
 N    2.380729   -1.498741    1.048768
 O    1.126459   -1.645514   -2.230347
 C    1.320658    1.283438    1.264674
 N    4.493491   -2.498246    0.856406
 C    1.411764    0.545143    0.077163
 N   -5.911908    0.271791    0.332826
 C    1.547259    1.241097   -1.117820
 C    1.592474    2.633642   -1.126931
 C    1.501240    3.343449    0.068268
 C    1.644338    5.422034   -1.055118
 C    1.332089   -0.985174    0.155448
 C    1.718283   -1.675579   -1.174390
 C    3.377432   -2.161203    0.353227
 C    3.600804   -3.102939   -1.961664
 C   -0.058619   -1.472182    0.580605
 C   -0.199304   -2.641726    1.327511
 C   -1.465520   -3.106223    1.664340
 C   -2.601679   -2.422807    1.243909
 C   -2.480643   -1.267817    0.469845
 C   -1.202794   -0.803029    0.155309
 C   -3.674413   -0.553232   -0.041052
 C   -3.702715   -0.041027   -1.338054
 C   -4.842343    0.607962   -1.789587
 C   -5.917283    0.741147   -0.916282
 C   -4.815987   -0.363126    0.743720
 H    0.413156    4.118753    2.588915
 H    2.165552    4.059922    2.743617
 H    1.176840    2.759131    3.436274
 H    2.703137   -0.893731    1.788555
 H    1.190021    0.747870    2.204371
 H    5.067936   -2.989822    0.175594
 H    1.604878    0.698356   -2.056749
 H    1.694702    3.152537   -2.074157
 H    0.796504    5.217825   -1.722569
 H    1.642487    6.477607   -0.779728
 H    2.578374    5.184049   -1.581225
 H    2.961000   -3.137918   -2.843501
 H    4.547557   -2.615354   -2.223623
 H    3.804524   -4.123004   -1.619343
 H    0.690956   -3.169867    1.654179
 H   -1.570186   -4.009773    2.259317
 H   -3.589287   -2.804866    1.492411
 H   -1.088639    0.129603   -0.394043
 H   -2.842085   -0.177742   -1.990477
 H   -4.894659    1.011535   -2.796594
 H   -6.826201    1.250032   -1.231323
 H   -4.833357   -0.725639    1.771560
