55 
3io7_ligand_ani.xyz
 N   -5.286079    0.220100    0.579621
 C   -4.638648    0.709957    1.789274
 C   -4.911591   -0.157588    3.014537
 C   -4.704338   -0.612169   -0.342576
 C   -3.271975   -1.071068   -0.099774
 C   -3.027969   -2.454952   -0.698253
 C    0.048663    0.490226   -0.494821
 C    2.329395    1.167236   -0.233831
 C    3.719904    0.845403    0.013698
 C    4.317845   -0.428268    0.169706
 C    4.721194   -2.658406    0.341767
 C    6.575561   -1.172056    0.510676
 C   -6.625030    1.929173   -0.633525
 C   -6.632022    0.708640    0.281773
 O   -5.300374   -0.951911   -1.356778
 C   -1.566754   -2.845006   -0.496247
 C   -0.641309   -1.785570   -1.079981
 N   -0.934373   -0.469997   -0.518055
 C   -2.313578   -0.051111   -0.723494
 C    1.386799    0.150490   -0.233314
 N    1.964559    2.451982   -0.474771
 C    0.675162    2.655291   -0.680585
 N   -0.313548    1.764661   -0.687110
 N    3.838903   -1.695411    0.177523
 C    6.113092   -2.452450    0.514999
 N    5.666920   -0.180442    0.336921
 N    5.981667    1.142861    0.310837
 C    4.816921    1.756914    0.121930
 N    4.749089    3.122722    0.089316
 H   -3.560909    0.807711    1.616079
 H   -5.012631    1.725431    1.973801
 H   -5.988692   -0.234556    3.203617
 H   -4.441536    0.277252    3.903490
 H   -4.521018   -1.173930    2.889809
 H   -3.064890   -1.122810    0.976181
 H   -3.692280   -3.190802   -0.231863
 H   -3.286546   -2.426953   -1.763969
 H    4.328426   -3.672772    0.342788
 H    7.604546   -0.856475    0.632843
 H   -6.192391    1.673216   -1.605545
 H   -6.038101    2.747445   -0.197652
 H   -7.646109    2.290796   -0.796417
 H   -7.186982   -0.110507   -0.184871
 H   -7.118660    0.948581    1.236169
 H   -1.358369   -2.953087    0.575700
 H   -1.353177   -3.813255   -0.964047
 H   -0.751863   -1.760091   -2.178381
 H    0.398589   -2.034966   -0.872680
 H   -2.445409    0.940449   -0.288247
 H   -2.533054    0.041475   -1.800220
 H    1.702007   -0.856284    0.009396
 H    0.377455    3.685077   -0.862333
 H    6.785533   -3.290187    0.647655
 H    5.611027    3.611778   -0.092810
 H    3.890134    3.519292   -0.266015
