32 
3iob_ligand_ani.xyz
 N   -4.116851    0.879110    0.651330
 C   -3.098342    1.734740    0.692558
 N   -1.830375    1.534887    0.309828
 C   -1.639981    0.304548   -0.174946
 C   -2.598346   -0.693385   -0.277568
 C   -3.887601   -0.353198    0.169134
 N   -4.896260   -1.248305    0.136235
 N   -2.063580   -1.845940   -0.832326
 C   -0.818003   -1.536346   -1.055983
 N   -0.482914   -0.248290   -0.674681
 O    3.203190    2.215629   -0.643411
 O    0.838003    2.450849    0.495015
 S    2.697413   -1.917414    1.500090
 C    3.634072   -1.350916    0.051374
 O    1.749390   -0.538711   -1.198249
 C    2.812633    1.116052    0.149285
 C    1.300723    1.136608    0.373447
 C    3.028342   -0.158302   -0.680943
 C    0.778374    0.436097   -0.884488
 H   -3.321378    2.716860    1.092184
 H   -5.830070   -0.942090    0.357447
 H   -4.749595   -2.131377   -0.327453
 H   -0.070846   -2.184184   -1.496794
 H    2.606153    2.942191   -0.407101
 H   -0.140430    2.412638    0.522563
 H    1.537606   -2.092569    0.844546
 H    4.631210   -1.086164    0.422340
 H    3.756063   -2.179263   -0.652203
 H    3.368489    1.102980    1.100595
 H    1.032269    0.526280    1.246015
 H    3.678068    0.097470   -1.526986
 H    0.677834    1.158103   -1.707363
