48 
3iod_ligand_ani.xyz
 N    3.851005   -1.710869    1.494237
 C    2.735438   -2.354934    1.846493
 N    1.585054   -2.450528    1.172595
 C    1.633791   -1.809054    0.000965
 C    2.725301   -1.110749   -0.504611
 C    3.859650   -1.067406    0.318432
 N    4.947524   -0.329828   -0.034664
 N    2.437328   -0.570136   -1.748681
 C    1.204908   -0.933980   -1.972769
 N    0.649261   -1.687851   -0.953312
 O    0.972752    3.035327   -2.318966
 O   -3.394236   -3.195766   -0.300715
 O   -1.219428   -3.165531    1.296288
 O    2.964547    2.881150   -1.495389
 C    1.479461    1.680339    2.127893
 C    0.117683    1.869161    2.362738
 C    2.034383    2.018487    0.898861
 C   -0.172696    2.696620    0.126601
 C   -2.174259    2.678072    1.670985
 C   -2.363652    0.276022   -1.324831
 O   -1.476565   -1.839589   -1.949153
 S   -3.308357    1.265760    1.398212
 S   -3.675043    1.318718   -0.622900
 C   -0.718302    2.402324    1.375793
 C    1.186259    2.504740   -0.085744
 C   -2.822370   -1.936962   -0.040498
 C   -1.376954   -2.097109    0.406199
 C   -2.643503   -1.227843   -1.382748
 C   -0.647440   -2.347546   -0.925882
 N    1.748190    2.828313   -1.401114
 H    2.770454   -2.858157    2.807266
 H    5.800173   -0.518264    0.472321
 H    5.029769   -0.091739   -1.013918
 H    0.630626   -0.697258   -2.859381
 H   -3.069580   -3.786315    0.395219
 H   -0.266678   -3.189703    1.515265
 H    2.114240    1.288886    2.921172
 H   -0.297749    1.616000    3.336369
 H    3.096258    1.950023    0.695463
 H   -0.786255    3.056770   -0.693844
 H   -2.311539    2.923626    2.729672
 H   -2.542952    3.525985    1.083976
 H   -1.416807    0.460670   -0.803500
 H   -2.238669    0.630603   -2.353997
 H   -3.416340   -1.363560    0.683951
 H   -1.014622   -1.159093    0.853851
 H   -3.490858   -1.435837   -2.042440
 H   -0.506340   -3.423805   -1.079642
