42 
3iok_ligand_xtb.xyz
 C   -4.568749   -1.314924   -1.111711
 C   -3.059007   -1.092182   -1.016196
 N   -2.461646   -2.230973   -0.358152
 C   -1.138578   -2.400242   -0.134687
 N   -0.786992   -3.610326    0.336136
 C    0.489062   -3.791578    0.598546
 N    1.467869   -2.920727    0.477815
 C    1.125316   -1.698522    0.015646
 C   -0.184488   -1.399487   -0.333911
 C    2.161418   -0.706081   -0.067028
 C    2.060688    0.649972   -0.372632
 N    1.042655    1.427123   -0.724133
 C    1.286991    2.698682   -0.925927
 C    2.560961    3.273083   -0.795800
 C    3.607975    2.460425   -0.436275
 N    3.361346    1.164205   -0.226039
 N    4.237038    0.234750    0.139702
 C    3.536931   -0.901999    0.242010
 N    4.081048   -2.086068    0.553389
 C   -2.783384    0.201111   -0.275705
 C   -2.643547    1.386771   -0.985873
 C   -2.400592    2.579383   -0.331357
 C   -2.289163    2.568040    1.046098
 F   -2.035806    3.727425    1.691998
 C   -2.432685    1.405616    1.779813
 C   -2.688276    0.223764    1.109527
 H   -4.785924   -2.218964   -1.676475
 H   -4.994578   -1.407354   -0.115102
 H   -5.038146   -0.471392   -1.610493
 H   -2.647472   -0.998318   -2.034599
 H   -3.028324   -3.051568   -0.212121
 H    0.763723   -4.774752    0.964723
 H   -0.429163   -0.422354   -0.707827
 H    0.433920    3.300132   -1.205518
 H    2.716868    4.323621   -0.970659
 H    4.625877    2.795109   -0.306433
 H    3.402556   -2.821738    0.725379
 H    5.015434   -2.119057    0.917790
 H   -2.715874    1.376882   -2.063576
 H   -2.293740    3.506473   -0.872072
 H   -2.341617    1.434033    2.854079
 H   -2.795765   -0.694447    1.666675
