64 
3ion_ligand_ani.xyz
 C   -7.510241   -3.371372    0.165137
 N   -0.667950    1.716034    0.844184
 O   -6.440978   -2.850590   -0.617158
 C   -6.176342   -1.514853   -0.517823
 N   -5.258212    2.572552   -0.382090
 O   -8.380700   -0.982671   -1.176186
 C   -4.904218   -1.122443   -0.183118
 N   -1.448652    3.881022    0.776735
 O    3.974501   -0.224959    1.183346
 C   -4.536059    0.237413   -0.124434
 N    1.279272   -2.561889    1.670834
 C   -3.197330    0.683003    0.213957
 N    6.408114    0.545922    1.394543
 C   -2.105009   -0.168132    0.458958
 C   -0.881063    0.378857    0.777569
 C   -1.685101    2.524660    0.662177
 C   -2.989104    2.069289    0.287297
 C   -4.064382    2.959654   -0.048612
 C   -5.504372    1.214253   -0.413330
 C   -6.812547    0.809374   -0.769442
 C   -7.152756   -0.519100   -0.827162
 C   -9.354528   -0.020554   -1.521551
 C    0.313957   -0.453930    1.061670
 C    1.578463    0.122761    0.983390
 C    2.687356   -0.670059    1.230799
 C    2.486054   -2.011227    1.582923
 C    0.218746   -1.800271    1.409087
 C    4.235852    0.945013    0.399317
 C    5.735725    0.909072    0.108568
 C    6.078074   -0.152507   -0.955192
 C    7.567127   -0.323072   -1.141779
 C    8.310764    0.656591   -1.806180
 C    9.684440    0.517317   -1.974685
 C   10.339528   -0.604359   -1.473573
 C    9.612932   -1.584489   -0.804593
 C    8.235872   -1.441877   -0.639990
 H   -8.474667   -3.218781   -0.326980
 H   -7.310159   -4.440918    0.268528
 H   -7.526444   -2.907107    1.158738
 H   -4.185753   -1.906733    0.045452
 H   -0.545005    4.082656    1.188266
 H   -2.199001    4.412267    1.195580
 H    7.309806    0.086916    1.190516
 H    6.557363    1.377222    1.994772
 H    5.756878   -0.118940    1.859260
 H   -2.211468   -1.242472    0.354575
 H   -3.884815    4.035784   -0.061797
 H   -7.520331    1.599411   -0.990290
 H  -10.255694   -0.577225   -1.780835
 H   -9.570142    0.646303   -0.677312
 H   -9.036373    0.576812   -2.385430
 H    1.653109    1.179104    0.742854
 H    3.342150   -2.646912    1.798557
 H   -0.752268   -2.285954    1.501785
 H    3.953808    1.834836    0.977579
 H    3.647467    0.919102   -0.524425
 H    6.081666    1.887991   -0.223366
 H    5.619793   -1.107164   -0.667500
 H    5.619134    0.149681   -1.904675
 H    7.803911    1.540343   -2.192577
 H   10.245885    1.287218   -2.499102
 H   11.413272   -0.714134   -1.604048
 H   10.117589   -2.459228   -0.402854
 H    7.668660   -2.213896   -0.121014
