64 
3iop_ligand_xtb.xyz
 C    8.085247    2.822578    0.993383
 N    0.512389   -1.217835   -0.930472
 O    6.764793    2.412400    0.706540
 C    6.429470    1.112228    0.526966
 N    4.993017   -2.744935   -0.085268
 O    8.601801    0.202342    0.925421
 C    5.095471    0.915204    0.223293
 N    0.925364   -3.448745   -0.987571
 O   -3.840515    1.361988   -0.648822
 C    4.549145   -0.351580    0.004168
 N   -0.882901    3.293787   -1.314648
 C    3.173972   -0.599372   -0.316204
 N   -6.064065    1.379541    0.560754
 C    2.202719    0.408421   -0.448784
 C    0.904955    0.057737   -0.752289
 C    1.402014   -2.185394   -0.827603
 C    2.772788   -1.941376   -0.509870
 C    3.750383   -2.961433   -0.372060
 C    5.412397   -1.469332    0.102347
 C    6.766668   -1.272511    0.409720
 C    7.292789   -0.018944    0.623074
 C    9.471835   -0.901674    1.020705
 C   -0.159367    1.057193   -0.887582
 C   -1.486973    0.662705   -0.705342
 C   -2.483670    1.610787   -0.825533
 C   -2.131910    2.925939   -1.126795
 C    0.077018    2.396240   -1.203314
 C   -4.252364    0.048605   -0.325219
 C   -5.778975    0.125753   -0.215753
 C   -6.427361   -1.068234    0.475837
 C   -7.906333   -0.821897    0.660751
 C   -8.401556   -0.377612    1.881207
 C   -9.754463   -0.128604    2.040906
 C  -10.622183   -0.311481    0.977731
 C  -10.135336   -0.750263   -0.242876
 C   -8.784016   -1.003013   -0.401209
 H    8.777649    2.542315    0.197707
 H    8.030966    3.908882    1.061380
 H    8.438364    2.415545    1.942401
 H    4.486016    1.802244    0.162267
 H    1.565795   -4.197768   -1.180069
 H   -0.000112   -3.526112   -1.373562
 H   -5.358106    2.060929    0.208277
 H   -7.025744    1.704888    0.421679
 H   -5.912768    1.216865    1.563775
 H    2.465566    1.439118   -0.289645
 H    3.483746   -4.003665   -0.499075
 H    7.376622   -2.157816    0.471252
 H   10.446147   -0.480515    1.263061
 H    9.535473   -1.444294    0.073190
 H    9.163717   -1.586886    1.815655
 H   -1.676273   -0.374987   -0.482004
 H   -2.885402    3.694564   -1.227080
 H    1.073740    2.765699   -1.392941
 H   -3.962801   -0.663561   -1.104383
 H   -3.806932   -0.271682    0.626920
 H   -6.203433    0.269620   -1.213370
 H   -5.949401   -1.241681    1.442140
 H   -6.270830   -1.956016   -0.136817
 H   -7.735702   -0.258420    2.725733
 H  -10.129421    0.200484    2.997379
 H  -11.676526   -0.123566    1.103285
 H  -10.809689   -0.904597   -1.070318
 H   -8.410115   -1.360128   -1.349461
