64 
3iop_ligand_ani.xyz
 C    7.965267    2.817758    0.306868
 N    0.512724   -1.152827   -1.072316
 O    6.835126    2.311027    1.008474
 C    6.400052    1.058385    0.682956
 N    4.963752   -2.788583   -0.159184
 O    8.508907    0.141108    1.214339
 C    5.091157    0.897585    0.302990
 N    1.010597   -3.371880   -1.432602
 O   -3.820916    1.472114   -0.584953
 C    4.550855   -0.372511    0.015185
 N   -0.843515    3.419968   -1.090808
 C    3.165532   -0.576869   -0.363072
 N   -6.059833    1.366921    0.601820
 C    2.191642    0.435113   -0.419447
 C    0.901160    0.112169   -0.778391
 C    1.421528   -2.100703   -1.081244
 C    2.777917   -1.889530   -0.675181
 C    3.730516   -2.954576   -0.531217
 C    5.383112   -1.500870    0.110739
 C    6.729124   -1.336478    0.515658
 C    7.236279   -0.093500    0.802380
 C    9.346136   -0.983207    1.381586
 C   -0.175754    1.130691   -0.846606
 C   -1.504445    0.734589   -0.717965
 C   -2.491737    1.707890   -0.745186
 C   -2.108464    3.042868   -0.943538
 C    0.101992    2.482957   -1.034483
 C   -4.226714    0.119051   -0.372593
 C   -5.744965    0.177805   -0.254862
 C   -6.386711   -1.096289    0.307172
 C   -7.857830   -0.897841    0.593674
 C   -8.320859   -0.769337    1.904743
 C   -9.669566   -0.545976    2.170718
 C  -10.576708   -0.443136    1.120699
 C  -10.128526   -0.565474   -0.192032
 C   -8.779690   -0.786960   -0.451568
 H    7.924157    2.534329   -0.751964
 H    7.906215    3.905798    0.392780
 H    8.900149    2.459436    0.746603
 H    4.482242    1.795580    0.223624
 H    1.681161   -3.906730   -1.966600
 H    0.083648   -3.379290   -1.841447
 H   -5.412426    2.122800    0.313313
 H   -7.040589    1.653181    0.451518
 H   -5.913043    1.138385    1.606738
 H    2.437262    1.452184   -0.133036
 H    3.414531   -3.983827   -0.708438
 H    7.327469   -2.237002    0.585770
 H   10.305964   -0.600277    1.729935
 H    9.489975   -1.515141    0.432821
 H    8.939323   -1.675928    2.129208
 H   -1.719048   -0.323447   -0.598418
 H   -2.868248    3.820290   -0.984226
 H    1.127050    2.828652   -1.165366
 H   -3.909545   -0.509047   -1.212375
 H   -3.763522   -0.259502    0.549337
 H   -6.149617    0.377731   -1.251099
 H   -5.871042   -1.392672    1.230392
 H   -6.245231   -1.910446   -0.412903
 H   -7.613348   -0.844850    2.729521
 H  -10.010907   -0.452018    3.198971
 H  -11.630537   -0.268792    1.323882
 H  -10.832467   -0.485972   -1.017182
 H   -8.432399   -0.874233   -1.480497
