47 
3iph_ligand_ani.xyz
 C   -1.182783    1.266340    0.062297
 C    0.264065    0.969573    0.267811
 C   -2.077363    0.194764    0.093620
 C   -1.673361    2.574380   -0.142521
 C    0.665865    0.061839    1.255657
 N    1.152238    1.582945   -0.529602
 C   -3.443240    0.372746   -0.091047
 C   -3.054302    2.736939   -0.284636
 C   -0.797918    3.797859   -0.182732
 C    2.437095    1.271356   -0.396302
 C    2.009889   -0.218275    1.414657
 C   -4.302621   -0.853010   -0.051229
 C   -3.934833    1.664475   -0.263077
 C    2.928760    0.374992    0.550763
 N   -5.572111   -0.725019   -0.547067
 O   -3.890221   -1.908621    0.399970
 C    4.378831    0.049870    0.734367
 C   -6.401724   -1.880746   -0.734248
 N    5.189995    0.305254   -0.338291
 O    4.787543   -0.413693    1.787471
 C   -6.848341   -2.638309    0.482506
 C   -7.829121   -1.796496   -0.275613
 C    6.601231   -0.042843   -0.332246
 C    6.889630   -1.270309   -1.182666
 C    6.707084   -2.644949   -0.636126
 C    7.929347   -2.284892   -0.847510
 H   -1.717460   -0.819580    0.249486
 H   -0.073754   -0.395058    1.907698
 H   -3.451557    3.741330   -0.421031
 H   -0.105322    3.820507    0.664741
 H   -0.181587    3.812625   -1.086864
 H   -1.407935    4.705370   -0.159745
 H    3.110804    1.813370   -1.056597
 H    2.367166   -0.896595    2.183976
 H   -5.001906    1.857571   -0.352176
 H   -5.794287    0.084846   -1.106178
 H   -6.195275   -2.472037   -1.625024
 H    4.754795    0.422539   -1.240153
 H   -6.489176   -2.252838    1.430866
 H   -6.910691   -3.720882    0.418580
 H   -8.588107   -2.285996   -0.879157
 H   -8.148547   -0.869483    0.191737
 H    6.873541   -0.212027    0.711887
 H    7.179666    0.810666   -0.706214
 H    6.658753   -1.092483   -2.242424
 H    5.968477   -3.347840   -0.274767
 H    8.985813   -2.499581   -0.853808
