53 
3ips_ligand_dft.xyz
 C   -4.956921   -1.437760   -0.923324
 C   -5.326164   -0.147610   -0.548412
 C   -4.402132    0.888663   -0.583496
 C   -3.070119    0.664631   -0.960399
 C   -2.718961   -0.635241   -1.336159
 C   -3.645729   -1.670018   -1.327967
 S   -1.815586    1.922848   -1.051407
 C   -1.662345    2.477653    0.688620
 C   -1.624051    1.371753    1.740404
 C   -0.518577    0.350012    1.542554
 O    0.705718    1.059504    1.451241
 C    1.830562    0.409875    1.069392
 C    2.890595    1.242369    0.696402
 C    4.042689    0.563525    0.316251
 C    4.176669   -0.822337    0.295002
 C    3.102871   -1.629505    0.677003
 C    1.933937   -1.001200    1.062462
 C    5.520158   -0.991696   -0.163907
 N    6.112164    0.142714   -0.391725
 O    5.198891    1.137222   -0.095422
 C    6.224372   -2.289510   -0.420215
 F    7.521731   -2.129727   -0.664580
 F    5.672154   -2.920689   -1.469487
 F    6.089347   -3.102006    0.642835
 C    2.751029    2.738491    0.637411
 C    2.074486    3.197996   -0.664101
 C    1.790712    4.697534   -0.672360
Cl   -4.962983    2.482442   -0.146785
 C   -5.966111   -2.553513   -0.875280
 C   -6.386989   -2.927446    0.547789
 O   -6.083230   -2.321127    1.536016
 O   -7.178359   -4.019100    0.629756
 H   -6.340147    0.058663   -0.222675
 H   -1.693722   -0.827224   -1.637122
 H   -3.336109   -2.667932   -1.625997
 H   -2.468152    3.177920    0.916269
 H   -0.719006    3.031551    0.692850
 H   -2.580808    0.838003    1.770137
 H   -1.498098    1.851998    2.718015
 H   -0.679494   -0.227146    0.623840
 H   -0.496966   -0.344982    2.392210
 H    3.182327   -2.710730    0.675853
 H    1.087415   -1.602881    1.370559
 H    3.739195    3.203669    0.721364
 H    2.158732    3.077944    1.493919
 H    1.140384    2.638925   -0.796514
 H    2.716900    2.932282   -1.512134
 H    1.120936    4.975426    0.150551
 H    2.714473    5.275888   -0.556937
 H    1.315669    5.005073   -1.609209
 H   -5.568590   -3.446083   -1.374171
 H   -6.877006   -2.272266   -1.421728
 H   -7.336122   -4.394379   -0.246779
