58 
3ipu_ligand_xtb.xyz
 C    3.489453   -1.338866    0.659922
 C    2.939847   -0.102737    0.264979
 C    3.738429    0.906976   -0.284590
 C    5.087917    0.606088   -0.401900
 C    5.643184   -0.628108   -0.008630
 C    4.828401   -1.618391    0.533574
 O    6.070316    1.392804   -0.892793
 N    7.241627    0.723564   -0.837648
 C    7.022297   -0.453344   -0.325935
 C   -6.373663   -1.057816   -0.063673
 O    1.624924    0.195789    0.383087
 C    3.200744    2.245025   -0.692737
 C   -7.690730   -1.458119    0.035550
 C    8.107928   -1.457470   -0.134948
 C    0.729099   -0.742738    0.951225
 C   -8.728829   -0.529193   -0.016514
 C    3.565238    3.333491    0.325660
 C   -8.410095    0.822109   -0.157093
 C   -7.100329    1.227109   -0.266438
 C    2.953496    3.067403    1.694812
 N   -2.456721    0.808058   -0.456583
 C   -2.436836    2.246529   -0.317272
 C   -3.587407    0.042461   -0.367437
 N   -4.762557    0.766886   -0.329715
 C   -0.651435   -0.097928    0.970225
 C   -1.188353    0.109029   -0.450022
 O  -10.495545   -2.170765   -0.145319
 C  -10.167516   -0.885664    0.093789
 O   -3.538982   -1.170631   -0.345765
 O  -11.019668   -0.084301    0.370237
 F    9.331992   -0.967964   -0.317953
 F    7.969544   -2.498188   -0.977778
 F    8.074742   -1.982187    1.104254
 C   -6.061958    0.291456   -0.225808
 H    2.844418   -2.094641    1.077103
 H    5.235656   -2.566709    0.843308
 H   -5.577348   -1.781089   -0.018977
 H    2.117160    2.179113   -0.785755
 H    3.626851    2.514638   -1.661121
 H   -7.886718   -2.511663    0.188761
 H    1.039958   -0.988707    1.974723
 H    0.705092   -1.661412    0.351520
 H    3.208948    4.293811   -0.052050
 H    4.651440    3.391220    0.412443
 H   -9.216744    1.538461   -0.182160
 H   -6.869037    2.276997   -0.382176
 H    1.871971    2.979146    1.618327
 H    3.342452    2.143300    2.116577
 H    3.186308    3.880131    2.378678
 H   -2.932155    2.736310   -1.161804
 H   -2.903283    2.574417    0.616985
 H   -1.400762    2.576718   -0.307632
 H   -4.696665    1.767965   -0.429131
 H   -0.581934    0.862570    1.484099
 H   -1.338880   -0.741024    1.519691
 H   -0.468407    0.675660   -1.044006
 H   -1.351137   -0.863933   -0.918529
 H   -9.731772   -2.702763   -0.403977
