29 
3ipx_ligand_xtb.xyz
 C    3.296237    0.104583    0.039445
 N    2.819543   -1.191551   -0.087202
 C    1.522394   -1.620387   -0.148869
 N    0.570251   -0.614775   -0.067522
 C    0.922915    0.701716    0.063319
 C    2.210088    1.071871    0.118809
 N    4.550308    0.282920    0.073525
 F    2.540930    2.376337    0.255073
 O    1.230802   -2.789359   -0.245445
 C   -0.833631   -0.966545   -0.193728
 O   -1.432118   -0.159746   -1.177512
 C   -2.684748    0.341942   -0.743828
 C   -3.002021   -0.330778    0.602579
 O   -3.859280   -1.413783    0.346092
 C   -1.619204   -0.749062    1.105753
 C   -2.662194    1.872449   -0.660967
 O   -1.870834    2.279546    0.436786
 H    3.531297   -1.909923   -0.147460
 H    0.108870    1.410060    0.115361
 H    4.831307    1.253015    0.168661
 H   -0.852010   -2.019560   -0.509040
 H   -3.441155    0.045829   -1.480146
 H   -3.479437    0.379324    1.290692
 H   -3.986851   -1.920530    1.155880
 H   -1.647149   -1.649390    1.715636
 H   -1.176478    0.068626    1.673594
 H   -2.247819    2.256061   -1.601172
 H   -3.692524    2.233284   -0.547784
 H   -1.844724    3.242029    0.464079
