57 
3iqh_ligand_dft.xyz
 N   -1.732244    0.272488    1.233019
 C   -1.955039   -1.211017    1.095435
 C   -0.565071   -1.762403    1.462832
 O   -0.101743   -1.421340    2.535027
 C   -2.536173   -1.501337   -0.289167
 C   -3.842959   -0.771217   -0.501741
 C   -5.030703   -1.244941    0.059380
 C   -3.881128    0.430081   -1.220471
 C   -6.222729   -0.548023   -0.088761
 C   -5.063791    1.139950   -1.372806
 C   -6.244004    0.651340   -0.806989
 O   -7.362188    1.382672   -0.991386
 N    0.155906   -2.437954    0.515416
 C    1.544046   -1.992124    0.433639
 C    1.479529   -0.465608    0.144138
 O    0.484776   -0.005338   -0.431235
 C    2.298479   -2.767562   -0.643808
 C    3.794878   -2.564566   -0.548420
 O    4.438880   -3.235755   -1.498107
 O    4.354851   -1.891149    0.291147
 N    2.504737    0.261414    0.585519
 C    2.612270    1.712061    0.499080
 C    1.646018    2.351968    1.496493
 O    2.209176    3.386994    2.118539
 C    2.417279    2.286446   -0.930740
 C    3.213216    1.474205   -1.968893
 C    2.783277    3.774309   -0.963149
 C    4.711867    1.333422   -1.699397
 O    0.505107    1.998980    1.708244
 H   -0.954473    0.564259    0.603067
 H   -2.585117    0.792891    1.000970
 H   -1.410662    0.503435    2.178771
 H   -2.662130   -1.493944    1.879238
 H   -1.810286   -1.193213   -1.050648
 H   -2.678273   -2.584796   -0.374287
 H   -5.034203   -2.182355    0.611090
 H   -2.974866    0.807084   -1.691297
 H   -7.137554   -0.941436    0.346924
 H   -5.097627    2.064388   -1.938839
 H   -8.123424    0.942908   -0.592420
 H   -0.292108   -2.496725   -0.390134
 H    2.013174   -2.161050    1.403759
 H    1.968633   -2.491564   -1.652644
 H    2.098356   -3.838630   -0.528437
 H    5.392039   -3.086548   -1.378772
 H    3.299545   -0.257077    0.945604
 H    3.624490    1.957263    0.829907
 H    1.547180    3.779739    2.712090
 H    1.357627    2.181327   -1.181217
 H    3.064253    1.961827   -2.939262
 H    2.765140    0.478227   -2.066463
 H    2.133639    4.374450   -0.319975
 H    2.681327    4.157732   -1.982564
 H    3.814978    3.948085   -0.639716
 H    4.915808    0.731137   -0.806751
 H    5.198407    2.305543   -1.571807
 H    5.200901    0.834985   -2.541651
