65 
3irx_ligand_ani.xyz
 C   -2.145349    3.964927   -1.762129
 C   -3.667990    1.910750    3.326388
 C   -0.800329    1.746104   -3.924954
 C   -6.012782    0.156016    0.654721
 C    5.896949   -2.938150   -0.287981
 C    4.346716    2.897760    0.996841
 O   -3.276137    2.725901    0.670021
 O    7.132061    2.040547    1.154744
 C    0.599369   -2.686311   -0.359129
 C    0.131206    0.199803   -2.151236
 C    3.510149   -2.097697   -0.372023
 C   -0.736665    0.184674    0.089572
 C    2.871400    0.201713    0.102338
 C   -0.700348   -3.213130   -0.903920
 C   -1.575013   -3.936228    0.132520
 C   -2.358906   -3.020422    1.075582
 N   -4.996552   -1.522361   -0.907140
 N   -3.947382   -2.429385   -0.795088
 O   -2.566452    2.622424   -1.940653
 O   -4.172923   -1.386040    1.125271
 O    6.402371   -0.028123    0.525743
 S   -2.475185    0.931211    2.392690
 C   -2.537814    1.777848    0.824796
 C    1.077724   -1.438233   -0.492197
 C   -0.768384    1.196742   -2.519890
 C   -5.089409   -0.928573    0.231955
 C    4.863810   -1.851691   -0.143358
 C    0.149484   -0.322105   -0.856547
 C    2.515782   -1.105617   -0.254668
 C   -3.481239   -2.306057    0.400848
 C   -1.627773    1.211680   -0.226757
 C   -1.650950    1.691199   -1.547200
 C    6.235316    1.303807    0.841165
 C    4.206528    0.447609    0.344565
 C    5.166776   -0.550573    0.225198
 N    4.892954    1.589518    0.726022
 H   -1.862478    4.158692   -0.722987
 H   -1.302648    4.209362   -2.424457
 H   -3.002609    4.588540   -2.022355
 H   -3.290288    2.916764    3.517778
 H   -4.616163    1.979647    2.789343
 H   -3.828286    1.396564    4.276367
 H   -0.136575    2.614014   -4.042547
 H   -0.469072    0.994612   -4.649064
 H   -1.813000    2.064631   -4.187784
 H   -6.786799    0.287808   -0.101950
 H   -6.476560   -0.082649    1.614995
 H   -5.456999    1.095720    0.756982
 H    5.653244   -3.788457    0.358213
 H    5.925103   -3.310452   -1.318207
 H    6.898211   -2.585683   -0.025900
 H    3.614917    2.855784    1.809412
 H    5.181042    3.534168    1.295326
 H    3.872635    3.318198    0.104690
 H    1.205574   -3.425955    0.167776
 H    0.823089   -0.195702   -2.892803
 H    3.218694   -3.102146   -0.676104
 H   -0.717215   -0.210704    1.098586
 H    2.115773    0.977302    0.184954
 H   -0.450627   -3.946173   -1.685277
 H   -1.277533   -2.421904   -1.399438
 H   -0.935828   -4.601713    0.724671
 H   -2.293279   -4.571676   -0.394705
 H   -1.707022   -2.275151    1.550608
 H   -2.786401   -3.609983    1.896272
