22 
3iu7_ligand_dft.xyz
 O   -1.256953    0.453067   -0.075975
 C   -2.388826   -0.281401    0.110144
 C   -3.684347    0.354201   -0.186424
 O   -3.614976    1.614424   -0.655866
 C   -2.069995   -1.529978    0.542839
 C   -0.651405   -1.570865    0.626674
 C   -0.195604   -0.340170    0.239711
 O   -4.734960   -0.209134   -0.021360
 C    1.116088    0.308072    0.159203
 C    1.188575    1.695663    0.358262
 C    2.393391    2.378330    0.296621
 C    3.570182    1.682957    0.035975
 C    3.529131    0.309785   -0.166391
 C    2.315437   -0.367985   -0.107825
Cl    2.352024   -2.088662   -0.414760
 H   -2.687852    1.882653   -0.740348
 H   -2.774655   -2.315875    0.769531
 H   -0.045292   -2.401739    0.950423
 H    0.273465    2.235287    0.575751
 H    2.413614    3.450938    0.459139
 H    4.520657    2.204373   -0.011750
 H    4.435005   -0.246894   -0.378944
