45 
3iue_ligand_ani.xyz
 C    1.077534    2.981947   -1.018402
 N    1.495865    0.821254    0.035934
 O    1.877001    3.885726   -1.057142
 C    0.880214    2.114175    0.230974
 C    6.993495   -2.091702    0.831888
 C   -5.889064    1.998937    2.271758
 O   -1.125264    0.479492   -1.126204
 O   -2.940317   -3.341766   -0.264759
 O   -2.880630   -1.720962   -2.221200
 C   -5.067650    1.086695    0.053151
 C   -4.321219    0.164809   -0.663046
 C    5.154507    1.027618    0.566194
 C    3.880075    1.526017    0.384169
 C   -4.334594    0.022114    2.050849
 C    4.376315   -1.279646    0.405329
 C    1.813658   -1.406968   -0.036948
 N   -3.610853   -0.875538    1.381630
 N   -1.126823   -1.667136   -0.365441
 O    6.701280   -0.713779    0.781134
 C   -0.529463   -0.450535   -0.595968
 C   -5.089674    1.025647    1.450152
 C    5.399442   -0.366424    0.584618
 C   -3.628268   -0.791575    0.066527
 C    0.879858   -0.402520   -0.159864
 C    3.072454   -0.787042    0.212185
 C    2.843249    0.599479    0.227777
 S   -2.689049   -2.029944   -0.819405
 O    0.336872    2.628366   -2.063552
 H   -0.182429    1.979630    0.448169
 H    1.351204    2.611536    1.082198
 H    6.450684   -2.585909    1.647995
 H    6.748829   -2.588679   -0.115739
 H    8.066735   -2.167574    1.013402
 H   -5.543907    3.026204    2.113761
 H   -6.950312    1.961890    2.004167
 H   -5.802844    1.774967    3.338635
 H   -5.634829    1.855225   -0.466328
 H   -4.258677    0.167586   -1.746148
 H    6.005819    1.687383    0.701704
 H    3.689336    2.595453    0.337601
 H   -4.316276   -0.062210    3.136167
 H    4.558615   -2.348531    0.404790
 H    1.656661   -2.473144   -0.166123
 H   -0.710064   -2.324746    0.281802
 H   -0.227818    1.857191   -1.824706
