64 
3iut_ligand_ani.xyz
 C    6.476858   -2.400496   -1.344502
 N    6.599630   -1.278848   -0.679005
 C    5.463765   -0.725132   -0.160918
 C    4.183512   -1.312581   -0.312126
 C    4.104230   -2.525063   -1.043683
 C    5.246178   -3.072079   -1.559727
 C    3.051170   -0.670956    0.252510
 C    3.177572    0.507809    0.951009
 C    4.464320    1.085223    1.094753
 C    5.576600    0.493646    0.559324
 C    1.970076    1.194539    1.542681
 N    1.124745    1.712399    0.445014
 C   -0.316527    2.146098    0.711744
 C   -1.161918    1.052198    0.091205
 N   -0.544606    0.028190   -0.568891
 N   -1.454231   -0.778368   -1.033719
 N   -2.646594   -0.283836   -0.704539
 C   -2.516237    0.864210    0.010475
 C   -3.869442   -1.005642   -1.047929
 C   -4.790704   -0.112053   -1.898516
 O   -5.009234    1.030789   -1.558403
 C   -5.421729   -0.742756   -3.116646
 C   -4.616766   -1.485768    0.208691
 C   -3.720548   -2.295876    1.141827
 C   -4.462478   -2.836188    2.362090
 C   -3.555075   -3.636015    3.293191
 C   -0.591120    3.504049   -0.006779
 C   -0.432678    3.405327   -1.526351
 C    0.243654    4.653059    0.563063
 C   -0.626329    2.265601    2.210474
 H    7.396071   -2.824039   -1.749865
 H    3.135883   -3.002865   -1.183077
 H    5.229318   -3.999704   -2.125126
 H    2.074616   -1.138154    0.117991
 H    4.557065    2.024115    1.637349
 H    6.566719    0.925175    0.664243
 H    1.396359    0.478331    2.142071
 H    2.287931    2.003611    2.211322
 H    1.647846    2.473695   -0.031676
 H    1.005803    0.934622   -0.254694
 H   -3.376562    1.421628    0.348312
 H   -3.539206   -1.871598   -1.635350
 H   -4.654817   -1.157141   -3.780715
 H   -6.074968   -1.571109   -2.814088
 H   -6.007915    0.002424   -3.655993
 H   -5.020061   -0.607349    0.731382
 H   -5.479021   -2.085245   -0.112459
 H   -2.882520   -1.663576    1.463946
 H   -3.273088   -3.130926    0.581603
 H   -5.298591   -3.467734    2.029920
 H   -4.908654   -1.996981    2.913270
 H   -2.729786   -3.016796    3.663710
 H   -3.115640   -4.494058    2.771023
 H   -4.103389   -4.017098    4.161069
 H   -1.646005    3.721736    0.200083
 H   -0.809490    4.313121   -2.008882
 H   -0.980319    2.545340   -1.928249
 H    0.619905    3.293310   -1.816752
 H    1.318236    4.446739    0.485943
 H    0.047283    5.576026    0.007161
 H    0.019074    4.844988    1.616153
 H   -0.612554    1.285989    2.694733
 H    0.098254    2.912933    2.712720
 H   -1.624807    2.690601    2.342971
