45 
3ivc_ligand_ani.xyz
 C   -1.911947    3.239245   -0.257724
 N   -1.642335    0.825047   -0.630635
 O   -2.179380    3.069923    0.896216
 C   -1.527610    2.117512   -1.232421
 C   -5.925195   -3.516572    0.879111
 O    0.909082    1.972591    0.150193
 C    6.664346   -1.758634   -1.219364
 C    5.653066   -1.606859   -2.182147
 C   -4.893947   -0.826259   -1.328645
 C    6.473620   -1.353688    0.091810
 C    4.422757   -1.047854   -1.866594
 C   -3.875286    0.082531   -1.533111
 C   -3.768175   -1.797298    0.601898
 C    4.652075   -0.242421    1.637040
 C   -1.492100   -0.634232    1.080204
 C    2.345609    0.851609    2.098538
 O   -5.920516   -2.588049   -0.181090
 O    1.028997    0.405979    1.771070
 O    3.136337   -0.072714   -0.020994
 C    0.425986    1.029498    0.736199
 C   -4.844350   -1.758636   -0.266143
 C    3.405901    0.160081    1.297203
 C   -0.871322    0.407035    0.441018
 C    5.239956   -0.785452    0.434057
 C   -2.719496   -0.879987    0.401232
 C    4.254093   -0.649533   -0.547400
 C   -2.787602    0.047712   -0.655902
 O   -1.933780    4.471626   -0.810077
 H   -0.500572    2.269713   -1.568197
 H   -2.183083    2.149466   -2.107640
 H   -5.076122   -4.208571    0.808678
 H   -5.897685   -3.011211    1.853151
 H   -6.856985   -4.076868    0.788187
 H    7.612987   -2.201283   -1.512420
 H    5.840624   -1.935502   -3.201158
 H   -5.764303   -0.847674   -1.977100
 H    7.259565   -1.472360    0.832364
 H    3.636392   -0.924895   -2.603959
 H   -3.928656    0.792229   -2.356275
 H   -3.716449   -2.505307    1.421353
 H    5.111143   -0.171078    2.614373
 H   -1.111571   -1.158895    1.949174
 H    2.484568    0.619070    3.155136
 H    2.405803    1.937596    1.961195
 H   -1.667503    4.428600   -1.738110
