47 
3ivg_ligand_dft.xyz
 C   -2.051616    3.521401    0.428340
 N   -2.505979    1.289988   -0.559959
 O   -2.189848    4.855128    0.275856
 C   -2.440952    2.696989   -0.805123
 C   -6.456995   -3.555468    0.253082
 O    1.336255   -2.417536    0.340320
 O    1.351409   -0.338513    1.807899
 C    7.790448   -0.488102   -0.577626
 C    7.459616    0.859001   -0.342658
 C   -5.989193   -0.010945   -0.370197
 C    6.830888   -1.485415   -0.523529
 C    6.160966    1.246396   -0.047696
 C   -5.016177    0.956152   -0.520876
 C   -4.325845   -1.757968   -0.050273
 C   -1.894041   -0.837495   -0.166699
 C    4.259540   -1.817557   -0.080801
 C   -0.017638    0.928965   -0.374574
 N    0.944645   -0.124970   -0.672034
 O   -6.719193   -2.197551   -0.007027
 O    3.890464    0.391122    0.270944
 C   -5.650932   -1.361761   -0.136403
 C   -1.433579    0.431483   -0.372763
 C    3.355705   -0.856387    0.211383
 C    5.511426   -1.119523   -0.227764
 C   -3.325290   -0.783006   -0.201148
 C    5.215307    0.230636    0.001071
 C   -3.679253    0.557433   -0.437749
 S    1.633340   -1.010349    0.555913
 O   -1.612031    3.055663    1.439274
 H   -2.576946    5.069559   -0.583763
 H   -1.714744    2.921726   -1.598725
 H   -3.414516    3.027729   -1.181288
 H   -5.884274   -4.019676   -0.561101
 H   -5.909817   -3.687411    1.195998
 H   -7.429997   -4.042713    0.330614
 H    8.819849   -0.747095   -0.804175
 H    8.239178    1.612721   -0.391813
 H   -7.041554    0.246776   -0.419794
 H    7.092463   -2.523162   -0.704005
 H    5.890437    2.279248    0.139097
 H   -5.305347    1.990372   -0.684854
 H   -4.045549   -2.788257    0.135352
 H   -1.281712   -1.709896    0.017741
 H    4.054748   -2.873484   -0.173030
 H    0.125678    1.721043   -1.119914
 H    0.234948    1.357112    0.599819
 H    0.672295   -0.739618   -1.432935
