104 
3ivq_ligand_ani.xyz
 N   -1.419133   -2.048226   -1.986833
 C   -1.751069   -2.402104   -0.559552
 C   -0.523473   -3.073210    0.076751
 O   -0.413158   -4.289623    0.168879
 C   -2.944615   -3.362002   -0.637644
 C   -2.745961   -4.068424   -1.979014
 C   -2.209447   -2.951391   -2.882134
 N    0.463013   -2.222663    0.453379
 C    1.809181   -2.728765    0.594479
 C    2.685035   -1.650761    1.261660
 O    2.201325   -0.690349    1.853726
 C    2.338335   -3.249699   -0.771499
 C    2.323905   -2.137473   -1.790542
 O    3.486297   -1.493915   -1.869642
 O    1.340299   -1.796279   -2.421373
 N    4.023895   -1.827860    1.161815
 C    4.990132   -0.928762    1.778056
 C    4.877158    0.525621    1.287317
 O    5.221529    1.452750    2.006006
 C    6.420944   -1.475781    1.579545
 C    7.425635   -0.718224    2.446461
 C    6.866062   -1.482724    0.113099
 N    4.378729    0.710111    0.039083
 C    4.080648    2.025001   -0.472004
 C    2.715052    2.599427   -0.045382
 O    2.281615    3.573256   -0.688262
 C    4.193512    2.023941   -1.997658
 O    3.319635    1.071860   -2.592240
 N    2.073912    2.060180    0.998949
 C    0.690768    2.360206    1.410691
 C   -0.257706    1.834373    0.320791
 O   -0.530409    0.637780    0.260856
 C    0.461549    3.814080    1.872269
 O    0.427487    4.793651    0.853740
 N   -0.721092    2.738116   -0.576888
 C   -1.228815    2.315574   -1.879261
 C   -2.506916    1.465015   -1.747365
 O   -2.617720    0.418139   -2.399770
 C   -0.153488    1.579879   -2.696036
 O    0.976286    2.404125   -2.949024
 N   -3.423973    1.964724   -0.901609
 C   -4.826329    1.636157   -0.581815
 C   -4.843182    1.521868    0.953005
 O   -4.690780    2.531431    1.631766
 C   -5.481904    0.459306   -1.325910
 O   -4.750053   -0.743972   -1.177982
 C   -5.762773    0.753372   -2.793404
 N   -4.951106    0.287521    1.501438
 C   -4.749947    0.117001    2.924333
 C   -4.385631   -1.334459    3.162784
 O   -4.138839   -1.589309    4.454740
 C   -5.968291    0.549561    3.749739
 O   -4.315943   -2.180258    2.299872
 H   -0.400206   -2.138340   -2.168680
 H   -1.650354   -1.059185   -2.181683
 H   -1.966494   -1.473777   -0.021486
 H   -2.970118   -4.046678    0.212402
 H   -3.862643   -2.765514   -0.657144
 H   -1.998192   -4.858610   -1.872265
 H   -3.666649   -4.510983   -2.369620
 H   -1.576859   -3.319411   -3.692391
 H   -3.025138   -2.369253   -3.325183
 H    0.311612   -1.217018    0.422348
 H    1.777307   -3.593725    1.267098
 H    3.336706   -3.684077   -0.680281
 H    1.652951   -4.034046   -1.094611
 H    3.358159   -0.687523   -2.430392
 H    4.380552   -2.636455    0.678259
 H    4.786753   -0.854921    2.852269
 H    6.384956   -2.518441    1.929369
 H    7.517549    0.322944    2.122153
 H    8.413616   -1.186915    2.383819
 H    7.121539   -0.712406    3.499325
 H    7.842984   -1.968663    0.018447
 H    6.967146   -0.462498   -0.274917
 H    6.167888   -2.021287   -0.538909
 H    4.173645   -0.095685   -0.538295
 H    4.822608    2.714745   -0.052117
 H    3.999228    3.026917   -2.386646
 H    5.217074    1.746574   -2.274210
 H    2.484455    1.522374   -2.843221
 H    2.402152    1.170856    1.368268
 H    0.523501    1.709004    2.276152
 H   -0.511792    3.857819    2.371878
 H    1.236959    4.051884    2.613429
 H    1.235488    4.669923    0.319999
 H   -0.441000    3.704891   -0.434441
 H   -1.494893    3.236041   -2.417917
 H    0.164514    0.670366   -2.177685
 H   -0.566039    1.296792   -3.666804
 H    1.169515    2.942364   -2.158818
 H   -3.075606    2.698324   -0.293722
 H   -5.410591    2.540492   -0.791087
 H   -6.449753    0.308254   -0.828848
 H   -3.935416   -0.602593   -1.701359
 H   -4.839018    0.919221   -3.352082
 H   -6.288029   -0.098558   -3.235225
 H   -6.401934    1.637441   -2.888142
 H   -4.906343   -0.545654    0.918368
 H   -3.895207    0.734089    3.237233
 H   -3.913569   -2.532795    4.516022
 H   -6.852275   -0.030616    3.468676
 H   -6.160561    1.606196    3.550788
 H   -5.770680    0.410916    4.815647
