115 
3ivv_ligand_xtb.xyz
 N   -0.354882    3.039217    0.004977
 C    0.612202    3.762106    0.844686
 C    1.619057    2.747120    1.407378
 O    1.533126    1.568032    1.131712
 C   -0.154659    4.484317    1.946416
 N    2.537116    3.267693    2.239307
 C    3.692529    2.480637    2.646666
 C    4.422704    2.055024    1.354358
 O    4.259594    2.674991    0.323452
 C    3.275137    1.321524    3.549547
 N    5.283449    1.028127    1.480418
 C    5.912914    0.457768    0.306913
 C    5.012775   -0.674966   -0.191401
 O    4.421618   -1.400059    0.594412
 C    7.352432   -0.009868    0.608459
 C    8.039879   -0.464219   -0.677566
 C    7.395777   -1.114102    1.662513
 N    4.951773   -0.801043   -1.529112
 C    3.940699   -1.552684   -2.277298
 C    2.657416   -0.698999   -2.166885
 O    2.643553    0.396884   -2.708506
 C    3.829871   -3.051588   -1.902988
 O    3.128290   -3.297585   -0.706861
 C    5.215173   -3.695373   -1.873121
 N    1.665009   -1.224023   -1.445597
 C    0.502433   -0.503717   -0.944944
 C   -0.497279   -1.480429   -0.357517
 O   -1.193577   -1.175071    0.606006
 C   -0.214221    0.342454   -2.023916
 O    0.376873    1.608725   -2.180554
 N   -0.570206   -2.681718   -0.936715
 C   -1.651366   -3.601189   -0.603671
 C   -2.952739   -2.773581   -0.691965
 O   -3.050903   -1.910385   -1.554770
 C   -1.419227   -4.339633    0.741811
 O   -1.867282   -3.605006    1.851312
 C    0.049066   -4.746934    0.885407
 N   -3.921977   -3.063234    0.170672
 C   -5.206443   -2.400498    0.143224
 C   -5.153557   -1.053212    0.887088
 O   -5.840069   -0.809491    1.859991
 C   -6.241147   -3.334057    0.812139
 O   -5.787304   -3.684147    2.095494
 C   -6.440973   -4.609201    0.002767
 N   -4.294085   -0.170241    0.350253
 C   -4.218915    1.187976    0.841431
 C   -3.893552    2.090128   -0.339880
 O   -2.936803    1.871921   -1.065023
 C   -3.159085    1.367700    1.960847
 O   -1.828268    1.294821    1.531242
 N   -4.705847    3.138214   -0.529938
 C   -4.502456    4.051596   -1.646285
 C   -2.991030    4.193426   -1.854506
 O   -2.277891    4.619933   -0.955144
 C   -5.106982    5.412636   -1.324458
 N   -2.528936    3.924686   -3.077618
 H   -1.050006    3.707104   -0.407605
 H    0.084443    2.498467   -0.784038
 H   -0.899679    2.357645    0.586175
 H    1.156925    4.477686    0.219146
 H   -0.644554    3.758455    2.590776
 H   -0.910769    5.124946    1.498759
 H    0.498584    5.101551    2.554734
 H    2.631560    4.269411    2.276799
 H    4.362987    3.150878    3.194608
 H    2.581426    1.688884    4.302138
 H    4.134992    0.902335    4.064679
 H    2.776655    0.547632    2.972440
 H    5.215329    0.416292    2.278500
 H    5.940162    1.257600   -0.440978
 H    7.886937    0.863474    0.997139
 H    9.082083   -0.695728   -0.475170
 H    8.010354    0.317735   -1.432999
 H    7.567661   -1.358310   -1.077945
 H    7.063858   -0.750627    2.631839
 H    6.769467   -1.955371    1.377188
 H    8.415980   -1.471474    1.774596
 H    5.405339   -0.080687   -2.070669
 H    4.257258   -1.510393   -3.324435
 H    3.228398   -3.527108   -2.688437
 H    3.609602   -2.821719    0.010301
 H    5.731095   -3.543715   -2.816602
 H    5.109973   -4.761983   -1.695338
 H    5.810726   -3.272248   -1.067744
 H    1.901100   -2.097181   -0.960357
 H    0.814328    0.176574   -0.138338
 H   -0.210722   -0.204350   -2.973758
 H   -1.249237    0.521162   -1.724272
 H    1.314476    1.437422   -2.444745
 H   -0.037218   -2.853306   -1.773717
 H   -1.691142   -4.348947   -1.400863
 H   -2.035999   -5.246840    0.734423
 H   -1.505090   -2.706238    1.797994
 H    0.690634   -3.872695    0.963953
 H    0.368113   -5.343353    0.035827
 H    0.162893   -5.335783    1.790896
 H   -3.753738   -3.626808    0.999365
 H   -5.472754   -2.201900   -0.901445
 H   -7.193031   -2.787697    0.877282
 H   -5.840442   -2.895759    2.652431
 H   -5.499702   -5.142317   -0.097211
 H   -6.830263   -4.374863   -0.983503
 H   -7.145428   -5.252037    0.521414
 H   -3.731590   -0.429410   -0.455833
 H   -5.192200    1.426214    1.285539
 H   -3.362027    0.614571    2.730132
 H   -3.287685    2.362468    2.398167
 H   -1.626799    0.383804    1.221364
 H   -5.497618    3.303487    0.071450
 H   -4.965419    3.629967   -2.548396
 H   -6.169044    5.316061   -1.113471
 H   -4.604607    5.843687   -0.461871
 H   -4.981925    6.083544   -2.169792
 H   -1.532173    3.930915   -3.233983
 H   -3.098614    3.465654   -3.766688
