115 
3ivv_ligand_ani.xyz
 N    0.232685    3.146038   -0.122052
 C    1.159378    3.816537    0.803383
 C    2.113517    2.803561    1.442616
 O    1.937037    1.592499    1.362616
 C    0.342768    4.585452    1.845349
 N    3.154448    3.371780    2.100282
 C    4.222606    2.649784    2.794292
 C    5.156607    1.960364    1.785585
 O    6.221093    2.465652    1.454936
 C    3.687716    1.715215    3.881687
 N    4.724966    0.768631    1.302705
 C    5.501862    0.047949    0.318408
 C    4.569154   -0.997652   -0.286859
 O    3.749703   -1.585098    0.419118
 C    6.779418   -0.589911    0.920690
 C    7.673212   -1.165142   -0.177454
 C    6.476270   -1.627802    1.996901
 N    4.703660   -1.244125   -1.617318
 C    3.660731   -1.872464   -2.454864
 C    2.420310   -0.954418   -2.432809
 O    2.505419    0.123624   -3.023004
 C    3.426491   -3.380070   -2.184160
 O    2.729251   -3.654325   -0.976346
 C    4.733106   -4.162755   -2.220438
 N    1.343368   -1.380726   -1.733678
 C    0.318321   -0.517999   -1.123532
 C   -0.743923   -1.427202   -0.503313
 O   -1.278254   -1.143713    0.577516
 C   -0.367717    0.425241   -2.135237
 O    0.398027    1.577008   -2.420375
 N   -1.079572   -2.526383   -1.203232
 C   -2.158618   -3.454101   -0.840157
 C   -3.468870   -2.672152   -0.629592
 O   -3.888789   -1.939349   -1.518901
 C   -1.776999   -4.416894    0.309209
 O   -1.759836   -3.786619    1.583553
 C   -0.463163   -5.140531    0.039312
 N   -4.118213   -2.838540    0.546526
 C   -5.343310   -2.120623    0.841141
 C   -5.036948   -0.679655    1.300339
 O   -5.235328   -0.317797    2.462705
 C   -6.118282   -2.865933    1.935252
 O   -5.273721   -3.043382    3.058088
 C   -6.606729   -4.232569    1.485973
 N   -4.536137    0.153144    0.365902
 C   -4.318334    1.555470    0.644248
 C   -4.171768    2.273324   -0.696847
 O   -4.058425    1.663134   -1.755560
 C   -3.097355    1.794768    1.556700
 O   -1.870501    1.531952    0.908035
 N   -4.164773    3.629928   -0.649754
 C   -3.829157    4.405097   -1.842824
 C   -2.326116    4.206733   -2.122070
 O   -1.493084    4.867031   -1.505892
 C   -4.149033    5.876757   -1.639121
 N   -2.014208    3.258467   -3.038434
 H   -0.290714    3.877095   -0.633702
 H    0.715141    2.560411   -0.825579
 H   -0.432554    2.541310    0.399528
 H    1.770740    4.524241    0.230508
 H   -0.262947    3.891460    2.441354
 H   -0.337306    5.275722    1.331798
 H    0.976846    5.162110    2.523768
 H    3.253532    4.373876    2.041237
 H    4.848560    3.419116    3.251887
 H    3.168601    2.304929    4.642997
 H    4.515345    1.179231    4.357864
 H    2.982138    0.990240    3.472790
 H    3.744998    0.517908    1.396165
 H    5.829519    0.754298   -0.457318
 H    7.304717    0.252084    1.385294
 H    8.635842   -1.480604    0.239284
 H    7.874680   -0.421434   -0.956554
 H    7.216163   -2.041801   -0.651192
 H    5.814977   -1.216507    2.766295
 H    5.991005   -2.512971    1.569577
 H    7.405789   -1.950128    2.479061
 H    5.297765   -0.600241   -2.120412
 H    4.046666   -1.791550   -3.474321
 H    2.777862   -3.738445   -2.992421
 H    3.148898   -3.109309   -0.277923
 H    5.271199   -3.976580   -3.155358
 H    4.517396   -5.231395   -2.142040
 H    5.381377   -3.884110   -1.382634
 H    1.507281   -2.258731   -1.238547
 H    0.752368    0.096453   -0.315519
 H   -0.575763   -0.122092   -3.062950
 H   -1.319369    0.760359   -1.707826
 H    1.244293    1.244869   -2.801249
 H   -0.571254   -2.702570   -2.058771
 H   -2.328161   -4.055175   -1.739753
 H   -2.576891   -5.165223    0.369447
 H   -1.387414   -2.893209    1.469884
 H    0.387688   -4.450561    0.005223
 H   -0.513060   -5.676329   -0.915205
 H   -0.283483   -5.865095    0.837653
 H   -3.622345   -3.244438    1.338015
 H   -5.921571   -2.075038   -0.089512
 H   -6.984451   -2.247414    2.211049
 H   -5.117550   -2.141897    3.386896
 H   -5.768897   -4.863088    1.172292
 H   -7.305038   -4.135116    0.646820
 H   -7.127532   -4.725472    2.310729
 H   -4.349436   -0.168716   -0.583369
 H   -5.190103    1.954131    1.179902
 H   -3.215331    1.170807    2.448319
 H   -3.078349    2.843120    1.883446
 H   -1.728234    0.564167    0.895567
 H   -4.039118    4.083591    0.244362
 H   -4.411592    3.988966   -2.668490
 H   -5.207301    6.003658   -1.392576
 H   -3.532080    6.290883   -0.836993
 H   -3.933574    6.441441   -2.551204
 H   -1.043644    2.951187   -3.058978
 H   -2.701487    2.524866   -3.178011
