46 
3iw7_ligand_xtb.xyz
 O   -0.415294    2.109534    2.103810
 C    5.946064   -1.796841    1.284157
 C    6.262618   -0.670439    0.545599
 C    4.752708   -2.458034    1.047061
 C    5.388393   -0.205746   -0.421526
 C    3.882446   -1.992064    0.078933
 C   -4.300418    0.861447    0.010405
 C   -3.444068   -0.938163    1.340723
 C   -3.089282    1.517980    0.114222
 C   -2.235280   -0.277885    1.456994
 C    1.002279    0.812552   -2.080248
 C    2.432339    1.516447   -0.163645
 C   -0.294442    1.240567   -1.382183
 C    1.276299    2.517622   -0.015667
 C   -5.783300   -1.101166    0.463752
 C    3.219214   -0.348039   -1.694281
 S   -5.735423   -2.078496   -1.108599
 C   -0.747691    1.677344    1.014675
 C   -4.488720   -0.374471    0.618737
 C    4.188240   -0.859054   -0.665825
 C   -2.043971    0.947400    0.831215
 C    2.007394    0.326260   -1.035982
 N   -0.000099    1.842681   -0.098820
 H    6.627227   -2.160248    2.039353
 H    7.193409   -0.151406    0.722473
 H    4.501176   -3.340406    1.617381
 H    5.645643    0.672599   -0.996785
 H    2.955268   -2.516098   -0.106312
 H   -5.108401    1.307779   -0.551139
 H   -3.580673   -1.897816    1.818019
 H   -2.955181    2.481783   -0.354642
 H   -1.430215   -0.711165    2.031543
 H    1.434971    1.647200   -2.634683
 H    0.775208    0.021329   -2.795871
 H    2.744184    1.154095    0.816018
 H    3.284522    2.025734   -0.616028
 H   -0.933823    0.368692   -1.222357
 H   -0.843448    1.950471   -2.015550
 H    1.315409    3.272272   -0.807874
 H    1.317977    3.020622    0.951331
 H   -5.945558   -1.808981    1.275649
 H   -6.623354   -0.411955    0.384244
 H    2.866192   -1.181590   -2.307034
 H    3.716400    0.368407   -2.351705
 H   -6.957852   -2.591952   -0.978055
 H    1.505796   -0.412774   -0.401833
