46 
3iw7_ligand_ani.xyz
 O   -0.231055    1.255233    2.254187
 C    6.122944   -2.022599    0.974239
 C    6.442489   -0.745732    0.525132
 C    4.929490   -2.614338    0.570548
 C    5.574247   -0.066627   -0.325645
 C    4.063147   -1.931134   -0.275796
 C   -4.283559    0.776750   -0.146913
 C   -3.737461   -0.934966    1.447809
 C   -3.025579    1.337863    0.018717
 C   -2.484105   -0.368248    1.627658
 C    1.135821    1.150722   -1.957393
 C    2.355349    1.433487    0.234530
 C   -0.227442    1.443733   -1.311398
 C    1.232438    2.467244    0.375431
 C   -6.005748   -0.998842    0.335371
 C    3.414566    0.079765   -1.653270
 S   -6.033491   -1.843267   -1.290652
 C   -0.735637    1.313018    1.138917
 C   -4.652135   -0.375558    0.553818
 C    4.376670   -0.652002   -0.743219
 C   -2.105584    0.755218    0.893467
 C    2.102223    0.495481   -0.965607
 N   -0.066271    1.876092    0.078811
 H    6.799918   -2.555514    1.637588
 H    7.371694   -0.274442    0.837482
 H    4.669685   -3.611355    0.919010
 H    5.832748    0.935180   -0.668551
 H    3.123879   -2.393699   -0.577865
 H   -4.985400    1.229344   -0.841762
 H   -4.012242   -1.823371    2.013700
 H   -2.767285    2.241190   -0.528119
 H   -1.778934   -0.787106    2.339976
 H    1.574754    2.083448   -2.338336
 H    0.981791    0.504281   -2.830431
 H    2.424219    0.845705    1.155708
 H    3.313502    1.959150    0.120644
 H   -0.844749    0.540297   -1.323360
 H   -0.753284    2.211566   -1.895481
 H    1.385781    3.296427   -0.324187
 H    1.194188    2.873876    1.385947
 H   -6.225788   -1.723851    1.123372
 H   -6.783078   -0.227776    0.346274
 H    3.168657   -0.557053   -2.514127
 H    3.899486    0.977732   -2.058481
 H   -7.305039   -2.270071   -1.220939
 H    1.610875   -0.415609   -0.591170
