29 
3jq8_ligand_ani.xyz
 C   -0.448433   -0.727527    0.016791
 C   -0.450195    0.664024    0.004787
 C   -1.726905    1.284965    0.002020
 N   -2.846618    0.570354    0.001006
 N   -1.562177   -1.472953    0.017419
 N    0.742106   -1.363609    0.033070
 C    2.033506   -0.699564   -0.001315
 C    2.783262   -1.171291   -1.263795
 C    2.832607   -1.147509    1.238894
 C    1.848668    0.821149   -0.006718
 C    3.097357    1.668155   -0.011966
 N    0.708046    1.421823   -0.003477
 C   -2.695230   -0.768956    0.009505
 N   -3.853156   -1.485732    0.034736
 N   -1.817872    2.628741   -0.002297
 H    0.713062   -2.372545    0.025714
 H    3.777393   -0.720254   -1.327145
 H    2.906037   -2.259017   -1.224937
 H    2.215977   -0.915456   -2.163451
 H    2.925405   -2.238636    1.233513
 H    3.839498   -0.721031    1.237776
 H    2.316348   -0.845161    2.154674
 H    3.719970    1.452311   -0.887489
 H    2.824657    2.725965   -0.031569
 H    3.705298    1.482019    0.880513
 H   -4.698160   -0.993238   -0.206790
 H   -3.786727   -2.465037   -0.192670
 H   -0.971902    3.177123    0.004452
 H   -2.726978    3.061907    0.005008
