29 
3jq8_ligand_xtb.xyz
 C   -0.420717   -0.729711   -0.153110
 C   -0.422645    0.670971   -0.042023
 C   -1.678012    1.285273    0.070734
 N   -2.800913    0.564283    0.051615
 N   -1.540996   -1.447904   -0.184507
 N    0.771300   -1.351548   -0.315508
 C    2.009086   -0.708234    0.097984
 C    3.148649   -1.342916   -0.701207
 C    2.239375   -0.917447    1.608438
 C    1.862118    0.793860   -0.165014
 C    3.100722    1.602393   -0.377622
 N    0.743844    1.397698   -0.167491
 C   -2.674778   -0.754213   -0.072538
 N   -3.824075   -1.478038   -0.040616
 N   -1.780162    2.625718    0.251810
 H    0.752923   -2.360270   -0.328906
 H    4.109285   -0.934678   -0.402541
 H    3.164480   -2.417172   -0.523384
 H    3.003384   -1.173362   -1.765762
 H    2.290081   -1.981040    1.836017
 H    3.166361   -0.447110    1.925848
 H    1.416236   -0.480937    2.171267
 H    3.571285    1.338082   -1.323428
 H    2.836255    2.655588   -0.400893
 H    3.820032    1.429599    0.420782
 H   -4.682133   -0.971559   -0.167129
 H   -3.770565   -2.431186   -0.352834
 H   -0.957910    3.162084    0.032485
 H   -2.685490    3.040641    0.117522
