29 
3jq9_ligand_ani.xyz
 C    2.105883   -1.000770    0.142918
 C    3.467708   -0.866752    0.093534
 O    4.425555   -1.834950    0.225198
 C    5.667332   -1.140951    0.251888
 O    5.435306    0.190986   -0.192714
 C    4.080162    0.357256   -0.159625
 C    3.350318    1.503020   -0.374834
 C    1.961699    1.386747   -0.316775
 C    1.343232    0.162082   -0.056619
 C   -0.105536    0.050282   -0.008509
 N   -0.676694   -1.175001   -0.037953
 C   -1.986213   -0.952768   -0.024336
 N   -2.952695   -1.880865   -0.057220
 C   -4.324757   -1.515155   -0.069607
 N   -5.129330   -2.508877   -0.144777
 N   -4.683067   -0.206488   -0.003974
 C   -3.778801    0.813683    0.057550
 O   -4.117181    1.984035    0.125083
 C   -2.334431    0.425251    0.034949
 C   -1.104297    1.099420    0.055831
 C   -0.970333    2.513845    0.170255
 N   -0.925628    3.667628    0.260183
 H    1.620357   -1.953355    0.321343
 H    6.370843   -1.631897   -0.424794
 H    6.056962   -1.122706    1.279665
 H    3.829381    2.453212   -0.582298
 H    1.349550    2.264651   -0.489089
 H   -2.756510   -2.868199   -0.109467
 H   -6.079916   -2.148190   -0.149430
