15 
3jqf_ligand_ani.xyz
 C   -0.692405    1.088686    0.000530
 C    1.288727    0.055710   -0.009574
 C   -0.596766   -1.143582    0.008904
 N   -1.416826    2.227749    0.001300
 N   -1.222235   -2.344567    0.036378
 N    0.741222   -1.165245   -0.001148
 N    2.642230    0.112634   -0.038236
 N    0.639564    1.225315   -0.009121
 N   -1.380969   -0.059614    0.010724
 H   -0.942356    3.114224   -0.017088
 H   -2.421033    2.173702    0.002143
 H   -0.671637   -3.168410   -0.142066
 H   -2.215216   -2.364100   -0.129290
 H    3.152116   -0.735748    0.146464
 H    3.079888    1.001544    0.141397
