41 
3jrs_ligand_dft.xyz
 C    4.815895   -0.509826   -0.267981
 C    3.467873   -0.500000    0.411485
 C    2.589756    0.694058    0.013243
 C    1.190909    0.486997    0.527517
 C    0.116909    0.387153   -0.249546
 C    3.166643    2.014451    0.540973
 C   -1.294785    0.196916    0.244701
 O   -1.266577    0.336315    1.662721
 C   -2.209782    1.317646   -0.279667
 C   -3.528350    1.098065   -0.362168
 C   -4.102995   -0.209524   -0.048188
 O   -5.459702   -0.184280    0.068841
 C   -3.326806   -1.289913    0.117986
 O    5.662571   -1.378018    0.321311
 C   -1.836428   -1.221629   -0.154681
 O    5.131360    0.138400   -1.237589
 C   -1.605305    2.673358   -0.491147
 C   -1.110039   -2.300390    0.659751
 C   -1.614401   -1.498882   -1.657035
 H    3.620111   -0.538662    1.496545
 H    2.971740   -1.441710    0.142445
 H    2.567522    0.739610   -1.081962
 H    1.065360    0.429339    1.607948
 H    0.229627    0.458264   -1.330217
 H    2.529726    2.853547    0.244656
 H    3.221767    2.004988    1.636597
 H    4.170297    2.187830    0.142246
 H   -2.170483    0.170157    1.965210
 H   -4.223006    1.892752   -0.620742
 H   -5.772133   -1.082255    0.237048
 H   -3.760793   -2.264157    0.339906
 H    6.484911   -1.345240   -0.193514
 H   -0.910435    2.681352   -1.338806
 H   -1.026555    2.962393    0.393796
 H   -2.375998    3.428288   -0.671220
 H   -1.278708   -2.174143    1.731927
 H   -1.469733   -3.293271    0.365951
 H   -0.031015   -2.260042    0.480978
 H   -2.028850   -0.696021   -2.276031
 H   -0.550885   -1.612827   -1.892311
 H   -2.118253   -2.430412   -1.934180
