41 
3jrs_ligand_ani.xyz
 C    4.765218   -0.554283   -0.279935
 C    3.410406   -0.487840    0.383199
 C    2.605498    0.759239   -0.004184
 C    1.196228    0.610902    0.504313
 C    0.125538    0.387688   -0.253976
 C    3.249067    2.037155    0.545855
 C   -1.284922    0.208318    0.262983
 O   -1.232441    0.337712    1.684189
 C   -2.195860    1.312004   -0.271136
 C   -3.520915    1.099722   -0.362141
 C   -4.091718   -0.196332   -0.057571
 O   -5.452104   -0.223485   -0.052112
 C   -3.299437   -1.262665    0.187358
 O    5.530388   -1.527878    0.252360
 C   -1.839104   -1.216811   -0.112210
 O    5.148837    0.142649   -1.190089
 C   -1.582538    2.665772   -0.489500
 C   -1.097734   -2.299335    0.689506
 C   -1.649468   -1.502328   -1.615387
 H    3.544634   -0.547692    1.469485
 H    2.869450   -1.400038    0.094124
 H    2.601804    0.815809   -1.102423
 H    1.079189    0.653235    1.586755
 H    0.198636    0.391978   -1.340997
 H    2.679820    2.921499    0.240454
 H    3.268755    2.009971    1.642416
 H    4.274814    2.148305    0.184020
 H   -2.128029    0.206489    2.025402
 H   -4.197974    1.911854   -0.616030
 H   -5.752817   -1.117061    0.166726
 H   -3.724566   -2.213902    0.509714
 H    6.369460   -1.509830   -0.237547
 H   -0.900494    2.654620   -1.345961
 H   -0.985756    2.938684    0.386783
 H   -2.341713    3.434295   -0.655533
 H   -1.268414   -2.192840    1.765468
 H   -1.441241   -3.291589    0.376358
 H   -0.019422   -2.246318    0.502143
 H   -2.052930   -0.699817   -2.240594
 H   -0.592496   -1.641246   -1.857459
 H   -2.179700   -2.425632   -1.871141
