81 
3jrx_ligand_ani.xyz
 C   -0.694951   -2.048708   -0.637452
 C   -2.191761   -2.027900   -0.410208
 C   -2.547816   -0.685100    0.255526
 C   -4.082829   -0.525989    0.429923
 C   -4.422290    0.919624    0.833059
 C   -3.715937    1.961826   -0.047705
 C   -2.208959    1.647175   -0.080809
 C   -1.380529    2.608591   -0.955884
 C    0.087315    2.242793   -0.860768
 C    1.094648    3.053393   -0.537123
 C    2.549615    2.707040   -0.685765
 C    3.273061    2.688230    0.681412
 C    2.957156    1.442047    1.505711
 C    3.647051    0.169817    0.999882
 C    3.332345   -1.086795    1.823315
 C    1.871061   -1.546027    1.774849
 C    1.414963   -2.019091    0.397571
 C   -2.685961   -3.222407    0.410163
 C   -6.053377   -1.330442   -0.589901
 C   -4.330607    2.027393   -1.446266
 C   -1.646741    4.074909   -0.615522
 C    4.310074    3.270080   -2.180438
 C    3.579501    4.999584    1.126410
 C    2.114267   -3.279044   -0.080116
 C    2.983131   -3.228336   -1.168613
 C    3.665148   -4.366199   -1.591181
 C    3.477549   -5.571691   -0.921669
 C    2.606282   -5.632559    0.163241
 C    1.928935   -4.492824    0.582731
 O   -0.159753   -1.924790   -1.711010
 O   -1.954705   -0.639246    1.528438
 O   -4.719772   -0.914028   -0.762901
 O   -4.013748    1.029364    2.200505
 O   -2.019139    0.325931   -0.585279
 O    3.122900    3.678366   -1.548102
 O    2.911325    3.805227    1.466753
 O   -0.006433   -2.231535    0.506260
 H   -2.648708   -2.047078   -1.400908
 H   -4.401256   -1.183353    1.252956
 H   -5.511075    1.066923    0.769006
 H   -3.847539    2.935428    0.451898
 H   -1.806874    1.697425    0.940562
 H   -1.677226    2.414667   -1.995232
 H    0.291646    1.199940   -1.120626
 H    0.918801    4.053274   -0.149288
 H    2.641637    1.717230   -1.164728
 H    4.357756    2.724543    0.493727
 H    3.275257    1.649238    2.533308
 H    1.865889    1.318735    1.538141
 H    3.396700   -0.010982   -0.055837
 H    4.733635    0.329967    1.020011
 H    3.969439   -1.913201    1.479645
 H    3.609117   -0.902428    2.869583
 H    1.723476   -2.370414    2.483519
 H    1.187299   -0.747705    2.088151
 H    1.555652   -1.233727   -0.352179
 H   -3.781488   -3.275139    0.378739
 H   -2.364297   -3.136165    1.450310
 H   -2.302853   -4.158378   -0.005967
 H   -6.402999   -1.694531   -1.558618
 H   -6.123909   -2.146493    0.145296
 H   -6.708424   -0.510090   -0.262634
 H   -4.037840    1.149581   -2.026113
 H   -5.423647    2.058506   -1.390617
 H   -4.000027    2.921232   -1.986103
 H   -1.008298    4.729602   -1.217449
 H   -1.439737    4.278358    0.443308
 H   -2.683416    4.357834   -0.816759
 H    4.156757    2.363975   -2.787608
 H    4.616463    4.083942   -2.842666
 H    5.122845    3.076048   -1.464572
 H    3.267761    5.383808    0.148111
 H    3.331999    5.730498    1.901758
 H    4.670932    4.855964    1.118659
 H    3.120093   -2.283859   -1.694034
 H    4.339980   -4.312583   -2.441726
 H    4.006983   -6.464804   -1.245209
 H    2.455529   -6.572020    0.689975
 H    1.246354   -4.547731    1.428898
 H   -2.527147   -0.075949    2.085071
 H   -4.032695    1.959280    2.464717
