40 
3jsi_ligand_ani.xyz
 C    0.938919    2.108520   -0.312151
 C    0.818333    0.785995    0.106018
 N    1.999241    0.183916   -0.189183
 N    2.874155    1.036799   -0.762463
 C    2.242269    2.193454   -0.846560
 C   -0.181489    3.002686   -0.111110
 N   -1.248528    2.322170    0.517074
 C   -1.252958    0.994781    0.888022
 N   -0.253268    0.183942    0.678571
 C    2.392587   -1.178653    0.153519
 C    3.484737   -1.189472    1.259286
 C    4.622751   -2.075650    0.725463
 C    4.532345   -1.888526   -0.791691
 C    3.021565   -1.916875   -1.051939
 O   -0.282824    4.176996   -0.398487
 C   -2.505329    0.475605    1.535250
 C   -3.223628   -0.495923    0.620789
 C   -3.186400   -1.870082    0.852537
 C   -3.807145   -2.755997   -0.023389
 C   -4.483238   -2.271353   -1.138399
 C   -4.529397   -0.900166   -1.376025
 C   -3.897499   -0.020998   -0.503666
 H    2.732227    3.053906   -1.280978
 H   -2.052613    2.909680    0.712619
 H    1.471156   -1.661485    0.486475
 H    3.084959   -1.530610    2.219161
 H    3.850755   -0.167701    1.395211
 H    4.443422   -3.127858    0.985739
 H    5.598525   -1.799483    1.139827
 H    5.080907   -2.645750   -1.361890
 H    4.921002   -0.900682   -1.068087
 H    2.737115   -1.448917   -1.998442
 H    2.659904   -2.952847   -1.065931
 H   -3.158316    1.313128    1.801199
 H   -2.229907   -0.027183    2.466932
 H   -2.662494   -2.251079    1.727965
 H   -3.766394   -3.825911    0.168071
 H   -4.974186   -2.959617   -1.822272
 H   -5.058802   -0.515587   -2.244288
 H   -3.934406    1.050160   -0.697146
