54 
3jvk_ligand_ani.xyz
 N   -0.411067   -0.283672   -2.250776
 C   -0.703936    1.102287   -2.678915
 C   -1.243726    1.898251   -1.492214
 O   -2.123521    1.452584   -0.757531
 N   -0.679791    3.120164   -1.288418
 C   -0.831696    3.784740    0.003233
 C    0.127480    3.185720    1.038218
 O    1.124441    3.760934    1.436588
 O   -2.441846   -1.888342   -1.171132
 C   -3.391763   -1.641830   -0.431616
 C   -4.545470   -0.781329   -0.894256
 N   -3.453828   -2.113334    0.840263
 C   -2.410795   -2.940979    1.431319
 C   -1.454920   -2.168850    2.347346
 C   -0.638385   -1.109323    1.605335
 C    0.185826   -0.218615    2.541316
 C    0.818370    0.993857    1.838560
 N   -0.216206    1.918796    1.431630
 C    1.668712    0.571135    0.615915
 O    1.393359    0.921005   -0.529599
 N    2.723683   -0.243538    0.878281
 C    3.599706   -0.738438   -0.164102
 C    2.856814   -1.711658   -1.081031
 O    1.665065   -1.907387   -1.096740
 C    4.861823   -1.352533    0.438658
 O    3.696294   -2.320929   -1.934968
 H    0.326906   -0.250100   -1.530343
 H   -0.067000   -0.852019   -3.030721
 H   -1.263032   -0.724583   -1.858439
 H    0.208246    1.565452   -3.062209
 H   -1.448925    1.102520   -3.479979
 H    0.208363    3.271393   -1.748080
 H   -1.869810    3.656540    0.315481
 H   -0.608232    4.845645   -0.109397
 H   -5.350118   -0.704678   -0.157701
 H   -4.945954   -1.199864   -1.821033
 H   -4.146906    0.212947   -1.113173
 H   -4.248049   -1.864872    1.408336
 H   -1.859454   -3.386330    0.599447
 H   -2.889462   -3.749567    1.992627
 H   -0.782481   -2.889043    2.833420
 H   -2.036389   -1.695989    3.152105
 H   -1.320119   -0.481907    1.018351
 H    0.020780   -1.594539    0.870499
 H   -0.448705    0.177067    3.343732
 H    0.968614   -0.811730    3.032586
 H    1.471269    1.526899    2.540493
 H   -1.015625    1.518114    0.952438
 H    2.900992   -0.526652    1.830462
 H    3.873117    0.103020   -0.813548
 H    5.542696   -1.681255   -0.348538
 H    4.616281   -2.221364    1.060480
 H    5.375490   -0.609759    1.056253
 H    3.149404   -2.901791   -2.489949
