45 
3jyj_ligand_ani.xyz
 C   -2.249049    0.951169   -1.333725
 C   -1.842028    2.266249   -0.807919
 C   -2.070768    2.636425    0.521431
 C   -1.668592    3.884360    0.985150
 C   -1.030500    4.777765    0.130358
 C   -0.787817    4.415326   -1.192983
 C   -1.186470    3.165476   -1.652977
 C   -2.447627   -2.184414    0.065309
 C   -3.147103   -1.365275   -1.042172
 C   -3.114386   -1.933879    1.403183
 O   -4.405425   -2.298952    1.401146
 O   -2.572190   -1.436350    2.363223
 C   -3.075854    0.094496   -0.723454
 C    4.438464    1.499603    1.291552
 C    5.506591    0.725587    0.772108
 C    5.252582   -0.434189    0.088472
 C    3.143411    1.092968    1.114746
 C    2.850049   -0.103929    0.409300
 C    3.919142   -0.879993   -0.112438
 C    3.619986   -2.073338   -0.827845
 C    2.325648   -2.472425   -1.009091
 C    1.255706   -1.714227   -0.467307
 C    1.518399   -0.551840    0.214376
 C   -0.131893   -2.230105   -0.702082
 N   -1.056819   -1.838223    0.208148
 O   -0.406114   -2.969377   -1.640319
 H   -1.790167    0.674190   -2.282057
 H   -2.547069    1.933006    1.203223
 H   -1.856361    4.158552    2.020613
 H   -0.718774    5.752983    0.495205
 H   -0.284875    5.107026   -1.864930
 H   -0.995551    2.879952   -2.685656
 H   -2.534350   -3.247521   -0.183100
 H   -2.641167   -1.598480   -1.983552
 H   -4.187569   -1.695575   -1.106861
 H   -4.752621   -2.087570    2.284132
 H   -3.701840    0.418893    0.108758
 H    4.657182    2.417764    1.830612
 H    6.529437    1.061908    0.920869
 H    6.068841   -1.031324   -0.312578
 H    2.315816    1.678349    1.510034
 H    4.441080   -2.660650   -1.233198
 H    2.080581   -3.371360   -1.567217
 H    0.713632    0.073831    0.596623
 H   -0.795984   -1.353839    1.055690
