45 
3jyj_ligand_dft.xyz
 C   -1.163558    1.379955   -1.290122
 C   -0.044394    2.251660   -0.892735
 C   -0.142610    3.214888    0.120918
 C    0.964666    3.964284    0.498418
 C    2.195845    3.766762   -0.125291
 C    2.309040    2.812207   -1.130961
 C    1.199067    2.064582   -1.508554
 C   -3.456618   -0.821631   -0.029579
 C   -3.389316    0.280090   -1.135074
 C   -4.089733   -0.256163    1.223731
 O   -5.409474   -0.071073    1.078933
 O   -3.486915    0.042346    2.228611
 C   -2.397538    1.346631   -0.777527
 C    4.155148    0.192197    1.315759
 C    4.916760   -0.926372    0.900993
 C    4.305370   -2.006740    0.317786
 C    2.794641    0.200855    1.150722
 C    2.135253   -0.908513    0.560971
 C    2.899871   -2.024407    0.124664
 C    2.230983   -3.105460   -0.512433
 C    0.878489   -3.075551   -0.715176
 C    0.109260   -1.977359   -0.252218
 C    0.731022   -0.922528    0.372394
 C   -1.353451   -1.941229   -0.578253
 N   -2.149085   -1.311183    0.329660
 O   -1.796609   -2.425032   -1.612239
 H   -0.915434    0.643377   -2.055250
 H   -1.090240    3.379471    0.625115
 H    0.867464    4.706439    1.285507
 H    3.060504    4.350970    0.175230
 H    3.265083    2.638943   -1.615110
 H    1.298364    1.306123   -2.280653
 H   -4.074589   -1.642568   -0.404167
 H   -3.091192   -0.224729   -2.057528
 H   -4.395731    0.687159   -1.280908
 H   -5.727707    0.329046    1.904289
 H   -2.691744    2.048427    0.002326
 H    4.654146    1.046409    1.763321
 H    5.993698   -0.922360    1.041587
 H    4.891064   -2.861787   -0.009919
 H    2.203894    1.063431    1.449051
 H    2.816953   -3.954501   -0.854826
 H    0.369176   -3.880650   -1.234414
 H    0.167543   -0.047488    0.684197
 H   -1.742851   -0.906291    1.161492
