53 
3jzf_ligand_xtb.xyz
 N   -2.985717    5.200074   -0.268686
 C   -3.615754    4.061216    0.120553
 O   -4.797833    4.059635    0.402768
 C   -2.766931    2.840177    0.177888
 C   -3.211279    1.804937    1.010354
 C   -2.515645    0.620605    1.140829
 C   -1.354811    0.483123    0.401358
 N   -0.430435   -0.531140    0.284671
 C   -0.496453   -1.840615    0.872915
 C   -0.941967   -2.910270   -0.137805
 C   -1.016481   -4.290105    0.536538
 C   -2.422411   -4.571518    1.054793
 C   -3.411085   -4.685761   -0.111732
 C   -3.008612   -3.773335   -1.276962
 C   -2.295176   -2.530645   -0.757623
 C    0.504262   -0.081481   -0.619655
 N    1.533610   -0.871555   -1.034953
 C    2.646972   -0.213556   -1.695035
 C    3.449010    0.624415   -0.732336
 C    3.371861    2.010640   -0.762437
 C    4.067496    2.783504    0.150244
 C    4.853948    2.178125    1.115396
 C    4.936604    0.797942    1.173964
 C    4.230869    0.037863    0.257718
Cl    4.335362   -1.694772    0.366851
 N    0.267594    1.122955   -1.067427
 C   -0.895537    1.515212   -0.452467
 C   -1.601678    2.701333   -0.567244
 H   -3.518657    6.053034   -0.290066
 H   -1.992385    5.244802   -0.399472
 H   -4.130167    1.961200    1.554124
 H   -2.874145   -0.160504    1.795199
 H   -1.204581   -1.796721    1.703646
 H    0.487500   -2.101060    1.284185
 H   -0.193342   -2.948010   -0.936294
 H   -0.296411   -4.340477    1.356308
 H   -0.747056   -5.066035   -0.181641
 H   -2.725089   -3.765217    1.724897
 H   -2.427387   -5.494660    1.636553
 H   -4.409488   -4.419849    0.239426
 H   -3.453115   -5.718636   -0.461640
 H   -3.894477   -3.484878   -1.844108
 H   -2.341944   -4.304308   -1.959125
 H   -2.140690   -1.816364   -1.568137
 H   -2.929105   -2.045607   -0.013597
 H    1.813585   -1.591335   -0.381270
 H    2.225552    0.422709   -2.473631
 H    3.270804   -0.989692   -2.145388
 H    2.742715    2.474512   -1.505488
 H    3.994249    3.859528    0.110481
 H    5.400888    2.774994    1.829121
 H    5.539415    0.312601    1.926093
 H   -1.253729    3.460844   -1.249535
