53 
3jzf_ligand_ani.xyz
 N   -1.780338    5.712077   -0.399576
 C   -2.757198    4.762359   -0.232823
 O   -3.942046    5.042375   -0.270075
 C   -2.276071    3.357515   -0.022966
 C   -3.155760    2.469997    0.625972
 C   -2.798312    1.154251    0.873676
 C   -1.541932    0.742969    0.435586
 N   -0.881475   -0.468875    0.515285
 C   -1.384857   -1.714493    1.059411
 C   -1.897667   -2.696406   -0.006945
 C   -2.299471   -4.044016    0.632673
 C   -3.803933   -4.127861    0.907597
 C   -4.622763   -4.031271   -0.395511
 C   -3.910040   -3.183064   -1.468416
 C   -3.053973   -2.091019   -0.827604
 C    0.338386   -0.270264   -0.099694
 N    1.260068   -1.277592   -0.152728
 C    2.534270   -1.050566   -0.804499
 C    3.617471   -0.533911    0.126940
 C    3.376498   -0.281873    1.478994
 C    4.374975    0.207593    2.313194
 C    5.646353    0.452767    1.808363
 C    5.916583    0.206479    0.467725
 C    4.906046   -0.281479   -0.352284
Cl    5.287264   -0.582332   -2.029808
 N    0.520866    0.944484   -0.557446
 C   -0.656717    1.606822   -0.236905
 C   -1.032708    2.927703   -0.471762
 H   -2.115321    6.664779   -0.404107
 H   -0.862207    5.562824   -0.010430
 H   -4.127956    2.847359    0.924000
 H   -3.477330    0.477600    1.387581
 H   -2.188967   -1.459190    1.756002
 H   -0.591083   -2.183071    1.652296
 H   -1.065699   -2.892182   -0.697430
 H   -1.730918   -4.195206    1.558597
 H   -2.013948   -4.865079   -0.038197
 H   -4.087135   -3.310036    1.584494
 H   -4.043508   -5.057521    1.435643
 H   -5.604341   -3.597862   -0.166476
 H   -4.811998   -5.033460   -0.799705
 H   -4.645888   -2.741961   -2.150505
 H   -3.269406   -3.826982   -2.086442
 H   -2.653309   -1.408058   -1.583250
 H   -3.695556   -1.483795   -0.172620
 H    0.929886   -2.225230   -0.068489
 H    2.390929   -0.325157   -1.613329
 H    2.866042   -1.987694   -1.262814
 H    2.384554   -0.474773    1.877376
 H    4.156639    0.395775    3.360786
 H    6.430890    0.834998    2.455085
 H    6.903400    0.389841    0.052597
 H   -0.373821    3.590687   -1.026408
