95 
3jzh_ligand_ani.xyz
 N   -2.360800    0.692429   -1.739472
 C   -2.977591   -0.272570   -0.806973
 C   -1.857440   -1.242445   -0.412893
 O   -0.964494   -1.494585   -1.227085
 C   -4.176638   -1.000286   -1.427382
 C   -5.026784   -1.703170   -0.396198
 O   -6.082163   -2.323464   -0.947509
 O   -4.818295   -1.719236    0.798763
 N   -1.936080   -1.748173    0.830139
 C   -0.986242   -2.697711    1.404041
 C    0.318023   -1.955464    1.733128
 O    0.588933   -1.637611    2.890538
 C   -0.805491   -3.973123    0.549219
 C   -2.130983   -4.634776    0.241672
 C   -2.765807   -4.388580   -0.978614
 C   -2.769509   -5.446467    1.181111
 C   -4.017731   -4.928503   -1.251333
 C   -4.021673   -5.992889    0.911075
 C   -4.648388   -5.731240   -0.303627
 N    1.117535   -1.652386    0.683638
 C    2.338101   -0.882551    0.888548
 C    3.396899   -1.245909   -0.143670
 C    4.780744   -0.695285    0.195730
 C    5.854034   -1.150569   -0.793506
 C    7.228663   -0.603151   -0.422130
 N    8.388810   -1.049676   -1.295855
 C    2.006885    0.622266    0.870822
 O    2.338601    1.351938   -0.065425
 C    8.605585   -2.518755   -1.202797
 C    9.612384   -0.375006   -0.803599
 C    8.185790   -0.660205   -2.718002
 N    1.335921    1.067409    1.954422
 C    0.686943    2.368188    2.028988
 C   -0.436361    2.489493    0.971398
 O   -0.899790    1.497604    0.411263
 C    1.671595    3.568365    2.002273
 O    1.989197    3.979183    0.693891
 C    2.922004    3.328302    2.839488
 N   -0.933076    3.733731    0.750908
 C   -1.934614    3.963272   -0.270355
 C   -1.857308    5.427140   -0.667979
 O   -1.039612    6.214883   -0.256656
 C   -3.356562    3.572264    0.181243
 C   -4.309238    3.500769   -0.988265
 O   -4.096621    2.879034   -2.011853
 O   -5.443044    4.170652   -0.782165
 O   -2.817217    5.746343   -1.547179
 H   -3.040185    1.399369   -2.072528
 H   -1.911616    0.168857   -2.512335
 H   -1.608263    1.152278   -1.186729
 H   -3.315661    0.272625    0.078490
 H   -3.850590   -1.745137   -2.165615
 H   -4.811928   -0.280456   -1.957451
 H   -6.570166   -2.738486   -0.215817
 H   -2.844821   -1.665841    1.273618
 H   -1.398379   -2.974794    2.376803
 H   -0.150470   -4.659634    1.098401
 H   -0.305855   -3.716580   -0.386746
 H   -2.269798   -3.746488   -1.704954
 H   -2.282307   -5.652584    2.133472
 H   -4.509484   -4.718663   -2.199062
 H   -4.509551   -6.622520    1.651005
 H   -5.629452   -6.153512   -0.512206
 H    0.692890   -1.664633   -0.243614
 H    2.685209   -1.140509    1.896927
 H    3.435888   -2.341038   -0.199969
 H    3.079061   -0.874584   -1.126219
 H    4.730800    0.400803    0.219228
 H    5.056915   -1.021156    1.209629
 H    5.572062   -0.817758   -1.801106
 H    5.876163   -2.248309   -0.816344
 H    7.489906   -0.897733    0.600778
 H    7.219247    0.492048   -0.460246
 H    7.759141   -3.056803   -1.628334
 H    8.734371   -2.793757   -0.152972
 H    9.510182   -2.773952   -1.761814
 H    9.784112   -0.658898    0.237731
 H    9.478908    0.707155   -0.876404
 H   10.462145   -0.685156   -1.416252
 H    7.342867   -1.203851   -3.143381
 H    8.003695    0.416118   -2.771565
 H    9.090940   -0.907055   -3.279646
 H    1.015168    0.351668    2.600693
 H    0.195663    2.388058    3.009775
 H    1.134066    4.417488    2.450090
 H    2.234387    3.168295    0.204473
 H    3.531852    2.518662    2.426003
 H    3.523501    4.241497    2.846334
 H    2.658743    3.078338    3.873757
 H   -0.361300    4.546036    0.957422
 H   -1.709415    3.369379   -1.167700
 H   -3.742590    4.256220    0.940132
 H   -3.300688    2.569580    0.614354
 H   -5.971554    4.085728   -1.593760
 H   -2.709677    6.690004   -1.753941
