59 
3jzi_ligand_ani.xyz
 N   -6.034140   -2.829825    1.569088
 C   -6.018373   -1.844573    0.615140
 O   -7.043004   -1.420711    0.109976
 C   -4.662645   -1.337714    0.219002
 C   -4.615933   -0.064314   -0.368940
 C   -3.421176    0.532344   -0.760864
 N   -3.433307    1.787122   -1.384533
 C   -2.259857   -0.232937   -0.568093
 N   -0.922779    0.006656   -0.842290
 C   -0.365794    1.188707   -1.471335
 C   -0.137363    2.345257   -0.487888
 C    0.165611    3.643759   -1.250755
 C   -0.058568    4.915424   -0.421147
 C    1.140305    5.374825    0.424586
 C    1.982639    4.254839    1.053228
 C    1.194028    3.063971    1.609291
 C    0.888838    1.962557    0.585579
 O    2.092125    1.539394   -0.060910
 C   -0.250902   -1.125841   -0.438628
 N    1.102048   -1.234692   -0.592024
 C    1.723508   -2.403868    0.017194
 C    3.212000   -2.427916   -0.227971
 C    3.732570   -3.150751   -1.303680
 C    5.096007   -3.170167   -1.576082
 C    5.973667   -2.458600   -0.765182
 C    5.486099   -1.728065    0.312098
 C    4.118900   -1.719882    0.563267
Cl    3.553056   -0.775247    1.926924
 N   -1.022000   -2.062346    0.055193
 C   -2.296811   -1.524706   -0.012678
 C   -3.506089   -2.089527    0.385762
 H   -5.270868   -2.913933    2.222393
 H   -6.952003   -3.064957    1.918456
 H   -5.559749    0.456463   -0.518004
 H   -2.705170    2.420357   -1.080856
 H   -4.335906    2.240220   -1.313589
 H   -1.072022    1.488961   -2.248925
 H    0.565284    0.917408   -1.972500
 H   -1.077814    2.487078    0.064732
 H    1.187465    3.613948   -1.651890
 H   -0.497496    3.674835   -2.124759
 H   -0.922284    4.744123    0.236173
 H   -0.348473    5.743110   -1.080428
 H    0.764617    6.041118    1.212167
 H    1.809153    5.985876   -0.195170
 H    2.682842    3.864103    0.307383
 H    2.592037    4.691707    1.853359
 H    1.768580    2.597040    2.422770
 H    0.251767    3.395360    2.062717
 H    0.474600    1.101981    1.135879
 H    2.735748    1.338074    0.632445
 H    1.621455   -0.361082   -0.538727
 H    1.252881   -3.287801   -0.423365
 H    1.508685   -2.437060    1.093345
 H    3.047851   -3.710470   -1.937612
 H    5.471765   -3.742858   -2.419747
 H    7.040779   -2.470303   -0.969075
 H    6.153396   -1.165977    0.958551
 H   -3.534753   -3.102941    0.774578
