88 
3jzj_ligand_ani.xyz
 C   -5.140986   -0.046252   -0.697327
 C   -4.374077    1.238803   -1.134702
 C   -5.337419    2.317713   -1.624934
 C   -6.330849    2.703555   -0.524763
 C   -6.977743    1.490555    0.105003
 C   -8.187892    1.777625    0.942183
 C   -6.430260    0.275704    0.013469
 O   -3.583462    1.661601   -0.023724
 O   -5.993740    1.755215   -2.744489
 O   -5.596941    3.433744    0.456258
 O   -7.803312    2.736583    1.934989
 C   -0.818278   -3.144272   -0.281750
 C   -1.470030   -2.688170   -1.582242
 C   -2.435851   -1.544887   -1.307590
 C   -3.426478   -1.914899   -0.205166
 C   -2.695335   -2.510924    1.012891
 C   -3.636061   -3.136230    2.029772
 N   -4.238517   -0.761410    0.280485
 O   -0.527517   -2.221931   -2.523300
 O   -3.131990   -1.267790   -2.510747
 O   -1.804387   -3.557884    0.612279
 C    3.965489   -1.313865    0.847688
 C    3.649506   -2.342295   -0.238964
 C    2.189737   -2.226256   -0.644166
 C    1.296892   -2.376662    0.579930
 C    1.731921   -1.369857    1.648089
 C    1.020869   -1.552339    2.980597
 O    4.421670   -2.157509   -1.404844
 O    1.892786   -3.237793   -1.600504
 O   -0.054072   -2.086221    0.252944
 O    3.128856   -1.517358    1.948266
 O    1.441240   -0.580886    3.909637
 C    6.366212    3.159915   -0.470015
 C    6.999617    1.773815   -0.456616
 C    5.922415    0.705674   -0.584331
 C    4.878308    0.886635    0.509708
 C    4.318625    2.306811    0.419651
 C    3.351972    2.657033    1.539748
 O    5.829527    3.347299   -1.762845
 O    7.969273    1.616023   -1.473428
 O    6.532512   -0.576265   -0.491817
 O    3.798280   -0.017125    0.318954
 O    5.383422    3.267918    0.526965
 O    2.821447    3.949796    1.369850
 H   -5.330574   -0.693831   -1.550503
 H   -3.694366    0.974253   -1.946863
 H   -4.764819    3.217644   -1.897228
 H   -7.110279    3.361117   -0.947508
 H   -8.563358    0.860646    1.419455
 H   -8.981506    2.193137    0.304362
 H   -6.918682   -0.576032    0.484875
 H   -4.049105    2.420419    0.385503
 H   -6.735645    2.327030   -2.978315
 H   -6.170345    3.478960    1.245276
 H   -8.589898    3.176740    2.275284
 H   -0.171502   -4.010265   -0.461643
 H   -2.046906   -3.531165   -1.998935
 H   -1.855093   -0.667751   -0.987374
 H   -4.094487   -2.678172   -0.626259
 H   -2.106177   -1.711994    1.486688
 H   -3.051886   -3.636456    2.806354
 H   -4.277049   -2.392798    2.515657
 H   -4.275152   -3.881856    1.544805
 H   -4.843070   -1.086566    1.062930
 H   -3.618205    0.037219    0.612604
 H    0.320286   -2.670119   -2.350464
 H   -2.445035   -1.153823   -3.183520
 H    4.994987   -1.437253    1.200530
 H    3.813794   -3.352438    0.173963
 H    2.015684   -1.239873   -1.091157
 H    1.380306   -3.399692    0.979812
 H    1.547082   -0.352865    1.275766
 H   -0.059331   -1.429955    2.849441
 H    1.201967   -2.573969    3.354680
 H    5.264401   -1.741986   -1.146915
 H    2.635654   -3.233040   -2.224995
 H    2.407528   -0.636516    3.918605
 H    7.117966    3.930664   -0.259573
 H    7.525692    1.626674    0.492310
 H    5.420836    0.796016   -1.558400
 H    5.332494    0.731750    1.501074
 H    3.809876    2.427127   -0.547445
 H    2.506571    1.960923    1.531766
 H    3.865821    2.554522    2.510645
 H    5.374453    4.200350   -1.771051
 H    7.575309    1.972337   -2.283393
 H    7.356949   -0.511606   -0.999626
 H    3.583878    4.541452    1.302868
