109 
3k02_ligand_dft.xyz
 C    3.466586    1.980306    1.252490
 C    4.054570   -2.630897    1.270837
 C    0.230065   -2.426914   -2.343991
 C   -4.236909    0.271770   -1.716462
 C   -6.992815    1.487673    2.583610
 O   -6.650926    0.546009    3.574381
 C    2.246305    2.316511    0.381472
 O    1.134680    2.197389    1.217482
 C    3.656519   -2.618041    2.744108
 O    2.411515   -3.224657    2.970924
 C    0.429020   -3.677487   -1.480148
 O   -0.763230   -4.265400   -1.036153
 C   -4.115690   -1.067271   -2.443695
 O   -5.236102   -1.896829   -2.302703
 C   -7.626518    0.676344    1.448119
 O   -8.664469   -0.158894    1.903188
 C    2.448737    3.683692   -0.264242
 O    1.304957    4.030684   -1.018453
 C    3.565349   -1.153003    3.284331
 O    2.230219   -0.729282    3.320465
 C    1.205368   -3.255642   -0.242864
 O    1.519553   -4.368830    0.585130
 C   -2.865167   -1.788028   -1.948222
 O   -2.713985   -3.024778   -2.630171
 C   -6.551349   -0.135168    0.731212
 O   -7.074901   -0.767510   -0.423073
 C    3.657244    3.618332   -1.197320
 O    3.879439    4.884209   -1.796035
 C    4.370266   -0.141882    2.412412
 N    3.432363    0.491815    1.429515
 C    2.503816   -2.560388   -0.610799
 O    3.036560   -1.967324    0.560872
 C   -1.643140   -0.912954   -2.179961
 O   -0.494039   -1.491932   -1.594624
 C   -5.431356    0.787820    0.303246
 O   -4.440733    0.015944   -0.361315
 C    4.877056    3.065968   -0.499861
 C    5.584357   -0.799365    1.736328
 O    5.290098   -2.025310    1.063428
 C    2.253135   -1.434260   -1.622781
 O    1.484101   -1.901586   -2.715500
 C   -1.868980    0.426319   -1.468900
 O   -3.069203    1.040053   -1.924701
 C   -4.849124    1.498643    1.522151
 O   -5.898399    2.242111    2.145364
 C    6.173819    3.095335   -1.259933
 O    6.103362    1.953573   -2.120244
 C    6.701269   -1.040635    2.747092
 C    3.523712   -0.830700   -2.214921
 O    4.052442    0.100490   -1.285329
 C   -0.757669    1.429322   -1.691583
 O   -0.863767    2.415271   -0.676986
 C   -3.725502    2.470480    1.154567
 O   -3.953822    3.166425   -0.047095
 C    4.776894    2.382489    0.639621
 H    3.313746    2.417404    2.245667
 H    4.161469   -3.656442    0.905273
 H   -0.278509   -2.664855   -3.281478
 H   -5.053662    0.866752   -2.133429
 H   -7.706282    2.221684    2.971931
 H   -6.418236    1.020865    4.381741
 H    2.206402    1.587309   -0.444073
 H    0.321383    2.192309    0.667573
 H    4.439272   -3.150357    3.297518
 H    2.104975   -3.702039    2.169048
 H    1.027252   -4.392583   -2.065079
 H   -1.496538   -4.021107   -1.634845
 H   -3.990826   -0.856666   -3.513660
 H   -5.758911   -1.624079   -1.522268
 H   -8.071055    1.373132    0.730378
 H   -8.351288   -0.547591    2.734031
 H    2.623067    4.436507    0.522256
 H    1.558036    4.773093   -1.586826
 H    3.991883   -1.123588    4.293232
 H    1.713781   -1.560879    3.277670
 H    0.581854   -2.546229    0.316049
 H    0.706226   -4.891637    0.663076
 H   -2.957537   -1.971076   -0.869015
 H   -3.608084   -3.402586   -2.677153
 H   -6.147293   -0.890114    1.422601
 H   -7.906344   -1.189010   -0.160498
 H    3.402897    2.959420   -2.035993
 H    4.160705    5.503997   -1.108041
 H    4.728032    0.666967    3.054517
 H    2.484540    0.240821    1.775630
 H    3.564626    0.060850    0.496212
 H    3.211198   -3.288454   -1.029916
 H   -1.488621   -0.752384   -3.256722
 H   -5.819113    1.558275   -0.372139
 H    5.952948   -0.131613    0.950688
 H    1.707147   -0.634558   -1.101604
 H   -1.940549    0.225059   -0.391555
 H   -4.460234    0.757119    2.234378
 H    7.030505    3.015262   -0.579327
 H    6.265519    4.013949   -1.847655
 H    6.743770    2.049590   -2.835386
 H    7.070445   -0.095897    3.159622
 H    6.368674   -1.673592    3.575716
 H    7.530704   -1.547740    2.249676
 H    4.254878   -1.616616   -2.443594
 H    3.246178   -0.330970   -3.150358
 H    4.813008    0.577414   -1.666125
 H    0.212025    0.917494   -1.648094
 H   -0.873252    1.877069   -2.685704
 H   -0.347851    3.196648   -0.945132
 H   -3.647543    3.200606    1.967249
 H   -2.780573    1.916035    1.113409
 H   -3.448541    2.714455   -0.739089
 H    5.681135    2.011057    1.116710
