57 
3k22_ligand_ani.xyz
 C   -9.307592   -0.521423   -0.523650
 F    7.279935   -0.513627   -1.308869
 N   -6.965510    0.046534   -0.096820
 O   -5.193409   -1.362507   -0.102530
 C   -7.963731   -1.008501   -0.007239
 F    7.813093   -1.472063    0.561553
 N   -1.083303    1.582338   -0.199517
 O    5.288174   -1.191152    1.532790
 C   -5.638321   -0.218232   -0.195781
 F    6.343652   -2.381276   -0.734274
 N   -0.345070    2.571353    0.349962
 O   -9.039864   -1.190354    2.155100
 C   -4.735533    0.952997   -0.418907
 F    7.279610    0.826668    1.681655
 N    3.309297    0.166887    0.183365
 C   -5.185325    2.197765   -0.856584
 F    6.488734    1.734102   -0.122993
 N   -7.101010   -2.338155    1.849145
 C   -4.277291    3.236022   -1.036283
 F    5.252643    1.570136    1.648589
 C   -2.922995    3.038821   -0.794297
 C   -2.469434    1.776976   -0.403747
 C   -3.377210    0.740364   -0.204707
 C    0.883648    2.116342    0.441012
 C    0.992333    0.799953   -0.086198
 C    2.030935   -0.140052   -0.282290
 C    4.491392   -0.253620   -0.554933
 C    5.667556   -0.434445    0.430369
 C    6.800665   -1.210297   -0.263314
 C    6.195010    0.937170    0.916771
 C    1.713224   -1.351106   -0.868488
 C    0.404908   -1.648414   -1.308155
 C    0.132817   -2.981826   -1.950392
 C   -0.612092   -0.725324   -1.152539
 C   -0.310288    0.486540   -0.510540
 C   -8.100328   -1.513094    1.448093
 H  -10.034313   -1.338538   -0.514906
 H   -9.697309    0.273880    0.118704
 H   -9.206594   -0.150520   -1.548163
 H   -7.266890    0.994280    0.072076
 H   -7.584345   -1.831052   -0.624707
 H    4.367271   -0.946756    1.718541
 H    3.363811    1.123864    0.508882
 H   -6.235479    2.365607   -1.086051
 H   -7.104819   -2.634963    2.813635
 H   -6.244939   -2.394339    1.309552
 H   -4.630127    4.212743   -1.358224
 H   -2.208833    3.847464   -0.907470
 H   -3.040487   -0.236684    0.123929
 H    1.649315    2.746892    0.875031
 H    4.774584    0.444337   -1.352310
 H    4.295059   -1.222455   -1.015501
 H    2.482500   -2.112151   -0.979999
 H    0.783245   -3.141467   -2.818285
 H    0.320381   -3.803933   -1.249151
 H   -0.905331   -3.055980   -2.286455
 H   -1.609839   -0.925979   -1.525112
