52 
3k26_ligand_dft.xyz
 N    1.235667   -2.954336    0.156234
 C    0.468776   -1.724140   -0.226454
 C   -1.020526   -1.903675    0.075711
 C   -1.844329   -0.670896   -0.316617
 C   -3.333506   -0.858469    0.012384
 C   -4.115317    0.385157   -0.401598
 N   -5.604650    0.372172   -0.105107
 C    1.116243   -0.653262    0.671235
 O    1.318752   -0.951645    1.841595
 C   -5.861270    0.277053    1.369456
 C   -6.285958   -0.766003   -0.804409
 C   -6.184510    1.663439   -0.610417
 N    1.410827    0.519858    0.102882
 C    2.297631    1.475126    0.746487
 C    2.324854    2.696647   -0.159485
 O    1.906072    2.686175   -1.295279
 C    3.722921    0.918834    0.964921
 C    4.466395    0.490248   -0.321140
 C    4.449383   -1.007922   -0.570042
 O    3.387603   -1.647914   -0.588514
 N    5.629236   -1.597852   -0.789761
 O    2.899376    3.736572    0.430655
 H    1.270804   -2.970872    1.187254
 H    0.836872   -3.822400   -0.205900
 H    2.219962   -2.819913   -0.176117
 H    0.655435   -1.549023   -1.288278
 H   -1.134454   -2.099568    1.149073
 H   -1.396241   -2.781738   -0.465139
 H   -1.460253    0.210853    0.210171
 H   -1.724065   -0.477263   -1.390318
 H   -3.707077   -1.743690   -0.513398
 H   -3.436478   -1.042610    1.087120
 H   -3.720139    1.270408    0.105133
 H   -4.027915    0.548497   -1.479692
 H   -5.334911    1.088168    1.874867
 H   -5.516190   -0.686848    1.741256
 H   -6.933982    0.369008    1.543551
 H   -7.361791   -0.676701   -0.649134
 H   -5.937954   -1.710669   -0.388843
 H   -6.061283   -0.714010   -1.870788
 H   -5.697900    2.496497   -0.101354
 H   -7.254810    1.677628   -0.401528
 H   -6.017309    1.733419   -1.685966
 H    1.306391    0.652345   -0.896985
 H    1.887720    1.757637    1.720180
 H    4.295629    1.702531    1.467523
 H    3.646293    0.086253    1.668494
 H    4.016283    0.953008   -1.208946
 H    5.497314    0.851132   -0.282561
 H    6.500298   -1.089142   -0.785252
 H    5.662273   -2.585596   -1.000817
 H    2.930774    4.475424   -0.201173
