53 
3k2f_ligand_xtb.xyz
 C    4.613987   -1.136344   -1.382854
 O    3.384919   -3.174099    0.434935
 O   -2.507650   -1.065342   -3.031000
 C    4.280672   -0.664186    0.014999
 S    3.054508   -1.810993    0.734052
 C    1.611489   -1.343635   -0.202477
 S    0.239858   -2.361934   -0.346526
 C   -0.563832   -1.157875   -1.260357
 S   -2.278255   -1.356257   -1.655183
 N   -2.478147   -2.979045   -1.413715
 O    2.828922   -1.466655    2.110281
 O   -2.994768   -0.590616   -0.667247
 C    3.647961    0.711212    0.144200
 C    2.478891    0.972036   -0.822061
 C    1.454625   -0.133126   -0.819260
 C    0.184618   -0.033308   -1.439806
 N    1.846527    2.247375   -0.509650
 C    2.037465    3.372044   -1.408461
 C    3.449649    3.943839   -1.350859
 O    0.590156    3.473688    0.929033
 C    1.096851    2.427456    0.599690
 O    0.966562    1.277268    1.314813
 C    0.099418    1.306228    2.428067
 O   -2.359868   -2.282987    1.422403
 C   -1.343943    0.942269    2.047797
 O   -1.340609   -0.404904    1.599527
 N   -2.449670   -1.200568    1.895258
 O   -3.283539   -0.747733    2.589293
 C   -1.896381    1.858352    0.951808
 O   -3.284644    1.649850    0.833847
 N   -3.830578    1.751676   -0.461865
 O   -4.980111    1.520856   -0.491568
 O   -3.094442    2.111179   -1.314913
 H    3.722259   -1.171453   -2.003223
 H    5.348109   -0.482676   -1.850081
 H    5.022589   -2.142296   -1.329482
 H    5.154549   -0.728532    0.665017
 H   -3.128573   -3.387380   -2.063522
 H   -2.692133   -3.205525   -0.453367
 H    4.401508    1.487205   -0.007966
 H    3.273214    0.794175    1.165691
 H    2.869030    1.077188   -1.841904
 H   -0.165144    0.821149   -1.991609
 H    1.799877    3.050600   -2.427086
 H    1.321004    4.136996   -1.104765
 H    4.184920    3.223280   -1.701452
 H    3.507608    4.824777   -1.983868
 H    3.694138    4.233780   -0.332608
 H    0.495317    0.559966    3.119879
 H    0.107961    2.304553    2.878679
 H   -1.987280    1.019845    2.933972
 H   -1.415841    1.616392   -0.002398
 H   -1.696063    2.905016    1.204617
