51 
3k39_ligand_ani.xyz
 C   -1.188047    0.712631   -0.820242
 N   -2.075943    1.508580    0.009988
 C   -1.672459    2.572007    0.763610
 N   -2.728547    3.196776    1.428960
 N   -0.434096    2.910582    0.859914
 C   -0.345380   -0.334879   -0.007077
 C    1.184003   -0.235109   -0.205805
 C    1.967343   -1.142671    0.784570
 C    1.918415   -0.616624    2.230667
 C    2.379098   -1.631944    3.278102
 C    3.423894   -1.339962    0.323832
 C    3.570631   -2.033438   -1.030535
 N    1.626705    1.144687   -0.107909
 C    2.375066    1.717707   -1.089416
 C    2.558265    3.216411   -0.944030
 O    2.872995    1.082435   -2.010778
 C   -0.901474   -1.730214   -0.388192
 O    0.007429   -2.350119   -1.289056
 C   -2.248229   -1.474627   -1.109075
 C   -3.414297   -1.480204   -0.142668
 O   -3.530622   -2.663609    0.488414
 O   -4.191823   -0.573258    0.068615
 C   -2.018792   -0.125136   -1.805944
 H   -0.533819    1.410820   -1.350495
 H   -2.998094    1.130438    0.186489
 H   -2.481989    4.099479    1.810824
 H   -3.591919    3.244691    0.901876
 H   -0.319763    3.734670    1.442444
 H   -0.572886   -0.149699    1.050117
 H    1.431373   -0.551748   -1.221024
 H    1.485361   -2.133451    0.760115
 H    2.532168    0.290332    2.301001
 H    0.895421   -0.310266    2.484576
 H    3.429704   -1.914651    3.152820
 H    2.273343   -1.218059    4.286270
 H    1.778421   -2.548022    3.232717
 H    3.945331   -1.936627    1.081407
 H    3.936818   -0.369261    0.296228
 H    2.994716   -2.966455   -1.070939
 H    3.239811   -1.385535   -1.848117
 H    4.619265   -2.286023   -1.216522
 H    1.042641    1.769874    0.455651
 H    3.204254    3.571351   -1.748009
 H    3.011535    3.464478    0.022353
 H    1.593141    3.731970   -0.999520
 H   -1.030168   -2.355714    0.506713
 H   -0.267325   -3.269120   -1.390276
 H   -2.437727   -2.284718   -1.824504
 H   -4.303006   -2.584664    1.073696
 H   -1.434199   -0.291499   -2.717623
 H   -2.951298    0.375751   -2.079266
