46 
3k3b_ligand_ani.xyz
 C    4.991916   -0.529995    0.084242
 C    4.021637    0.475260    0.127661
 C    2.691090    0.154282   -0.078090
 C    2.294299   -1.171904   -0.287433
 C    3.241821   -2.187693   -0.344255
 C    4.578863   -1.846574   -0.156520
 C    6.450807   -0.197848    0.273004
 C    1.459264    1.009899   -0.167998
 C    0.372352   -0.019477    0.147357
 N    0.898729   -1.242437   -0.460530
 C    1.283517    2.263780    0.684771
 C   -0.217942    2.467532    0.971430
 N   -1.075255    1.902076   -0.080801
 C   -0.970732    0.474556   -0.385314
 C   -2.120850   -0.385282    0.125588
 C   -2.394885   -1.568725   -0.556928
 C   -3.415393   -2.415903   -0.124853
 C   -4.161185   -2.086546    1.005501
 C   -3.881304   -0.906961    1.686880
 C   -2.872156   -0.054817    1.253964
 O   -3.635722   -3.552870   -0.841420
 C   -2.031953    2.711515   -0.642000
 O   -2.184617    3.872034   -0.289309
 C   -2.891620    2.111489   -1.737115
 H    4.319633    1.505614    0.322383
 H    2.960141   -3.223296   -0.528392
 H    5.328442   -2.635140   -0.192217
 H    6.934132    0.041719   -0.682262
 H    7.000327   -1.035957    0.714155
 H    6.580375    0.669610    0.928795
 H    1.314174    1.279732   -1.224747
 H    0.299658   -0.140111    1.243057
 H    0.457616   -2.092432   -0.128990
 H    1.704103    3.133441    0.168139
 H    1.815937    2.164853    1.637679
 H   -0.469305    2.002445    1.935589
 H   -0.483562    3.522226    1.038565
 H   -0.934772    0.355810   -1.477859
 H   -1.810677   -1.852559   -1.428729
 H   -4.955753   -2.747760    1.349123
 H   -4.462839   -0.646027    2.567043
 H   -2.680368    0.870396    1.791414
 H   -4.367007   -4.038270   -0.439849
 H   -2.282919    1.809515   -2.596772
 H   -3.598947    2.876883   -2.053771
 H   -3.435278    1.229000   -1.386557
