46 
3k3b_ligand_xtb.xyz
 C    4.958940   -0.537158    0.059833
 C    3.995780    0.472303    0.127428
 C    2.671359    0.148052   -0.027016
 C    2.275943   -1.176608   -0.264202
 C    3.218712   -2.181786   -0.345195
 C    4.555618   -1.842281   -0.181499
 C    6.411544   -0.199669    0.221778
 C    1.430901    0.995340   -0.068863
 C    0.342756   -0.059647    0.186196
 N    0.892638   -1.259716   -0.421553
 C    1.224192    2.166136    0.882149
 C   -0.294169    2.343355    1.085955
 N   -1.069679    1.867809   -0.050149
 C   -0.972781    0.459595   -0.406505
 C   -2.145042   -0.371754    0.067391
 C   -2.370565   -1.600807   -0.534130
 C   -3.405326   -2.420208   -0.099047
 C   -4.225360   -2.000554    0.942065
 C   -4.004029   -0.770945    1.534210
 C   -2.969215    0.041713    1.106544
 O   -3.577113   -3.616776   -0.721455
 C   -1.889486    2.742219   -0.690981
 O   -1.973041    3.907830   -0.353761
 C   -2.689458    2.186063   -1.847798
 H    4.293437    1.494854    0.308938
 H    2.927383   -3.205965   -0.524115
 H    5.302437   -2.621505   -0.236544
 H    6.824180    0.150082   -0.725410
 H    6.980667   -1.071107    0.536450
 H    6.544609    0.591755    0.956421
 H    1.313419    1.357529   -1.099746
 H    0.214876   -0.206827    1.272497
 H    0.453464   -2.135086   -0.172886
 H    1.663927    3.071957    0.465947
 H    1.697571    1.967997    1.844968
 H   -0.611603    1.803876    1.984660
 H   -0.549508    3.397089    1.209598
 H   -0.891677    0.365585   -1.496550
 H   -1.752884   -1.936845   -1.352334
 H   -5.035229   -2.633296    1.279892
 H   -4.646058   -0.443529    2.337987
 H   -2.819610    1.004869    1.568191
 H   -4.333742   -4.079431   -0.341572
 H   -2.028221    1.893798   -2.661183
 H   -3.356412    2.967044   -2.202465
 H   -3.272379    1.321937   -1.538973
