39 
3k3h_ligand_dft.xyz
 C   -3.723254   -0.316663    0.382285
 C   -4.350305   -1.556817    0.508795
 C   -3.744246   -2.733460    0.077095
 C   -2.484374   -2.694005   -0.509185
 F    3.144970   -2.859600   -0.854328
 C   -1.844522   -1.470231   -0.669776
 F    1.849946   -1.170900   -1.231102
 C   -2.459031   -0.302087   -0.221453
 F    1.484672   -2.451235    0.475696
 N   -1.744305    0.920431   -0.352438
 N   -2.251150    2.007792   -1.018563
 C   -1.292746    2.912048   -0.997138
 C   -0.483898    1.167461    0.058406
 C   -0.133843    2.441898   -0.328229
 N    0.363010    0.361149    0.762700
 C    1.639672    0.843860    0.968025
 N    2.047544    2.019939    0.637845
 C    1.197141    2.952877   -0.021665
 O    1.594126    4.064936   -0.300922
 C    2.594241   -0.135164    1.604392
 C    3.379236   -1.007288    0.599363
 C    4.336531   -0.196410   -0.276971
 C    2.467697   -1.869932   -0.259420
 C   -4.375316    0.943896    0.882944
 H   -5.332356   -1.599513    0.971819
 H   -4.258081   -3.681529    0.201906
 H   -2.004864   -3.604048   -0.854525
 H   -0.872567   -1.413282   -1.151578
 H   -1.445549    3.874558   -1.463906
 H    0.136753   -0.605277    0.951950
 H    2.056680   -0.780513    2.306821
 H    3.320036    0.447508    2.174568
 H    3.958655   -1.722482    1.194307
 H    4.879961   -0.849617   -0.964918
 H    5.062774    0.318988    0.356253
 H    3.802720    0.563004   -0.851799
 H   -4.660872    1.593700    0.051315
 H   -5.266973    0.708107    1.469915
 H   -3.689197    1.521453    1.511246
