50 
3k3j_ligand_dft.xyz
 N    2.316383    0.738513   -0.108623
 N   -1.820624   -0.298806   -0.612355
 C    2.834765   -1.480013   -0.014419
 C   -6.163829   -0.156491   -0.977318
 C   -0.917084   -1.285211   -0.427826
 C   -5.456661    0.009837    0.343748
 C    2.879528    2.062783   -0.129291
 C    3.896774   -2.506529    0.125823
 C    4.007740    2.289195   -0.912155
 C    4.599638    3.545365   -0.927231
 C   -6.206433    0.354519    1.464797
 C    3.704695   -3.822937   -0.294230
 C    5.136869   -2.179492    0.678618
 C   -3.465662    0.019960    1.680710
 C   -4.214601    0.363911    2.802197
 F    4.604214    5.768555   -0.170218
 C    4.040927    4.553969   -0.156909
 C    2.917092    4.342896    0.628198
 C    2.331986    3.083471    0.643288
 C    0.935783    0.555104   -0.281971
 O    0.189895    1.523952   -0.407387
 N    3.225612   -0.234712    0.006568
 C    4.743852   -4.735678   -0.139692
 C    6.104902   -3.169277    0.785358
 N    5.929035   -4.433230    0.390030
 C    1.455906   -1.816591   -0.148983
 C    0.523926   -0.842336   -0.285279
 O   -1.191577   -2.476771   -0.375800
 C   -3.229799   -0.570259   -0.768328
 C   -4.065201   -0.161296    0.437288
 C   -5.588703    0.532814    2.697440
 F   -7.497245   -0.083270   -0.856621
 F   -5.799489    0.795286   -1.862486
 F   -5.885208   -1.342375   -1.551680
 H   -1.470217    0.655616   -0.625512
 H    4.424810    1.478721   -1.499042
 H    5.478254    3.748846   -1.528437
 H   -7.278197    0.483966    1.371205
 H    2.776205   -4.147296   -0.752341
 H    5.335605   -1.170256    1.020737
 H   -2.391905   -0.106395    1.768559
 H   -3.718530    0.498041    3.758721
 H    2.512811    5.157209    1.218304
 H    1.451440    2.902219    1.245561
 H    4.612992   -5.765649   -0.463669
 H    7.075806   -2.935787    1.216353
 H    1.114012   -2.846199   -0.131121
 H   -3.333465   -1.644847   -0.937813
 H   -3.587291   -0.059782   -1.665601
 H   -6.180618    0.801751    3.566297
