88 
3k5c_ligand_xtb.xyz
 N    0.090563    0.414181   -2.049583
 C   -1.146453   -0.177041   -2.544899
 C   -1.713308   -1.201625   -1.543316
 C   -0.740370   -2.344993   -1.414257
 C    0.276603   -2.294598   -0.478574
 C    1.235058   -3.308191   -0.407117
 C    1.143848   -4.393075   -1.273635
 C    0.114619   -4.446119   -2.197948
 C   -0.815673   -3.428204   -2.283126
 O    2.208705   -3.128456    0.516806
 C    3.362826   -3.947446    0.465710
 C    4.450930   -3.299512    1.323120
 C    4.601813   -1.801645    1.057918
 C    4.940325   -1.453369   -0.397704
 N    5.084390   -0.026173   -0.587626
 C    4.037374    0.849673   -0.462853
 C    2.715933    0.499400   -0.757342
 C    1.700148    1.440051   -0.621599
 C    1.974741    2.732735   -0.186192
 C    3.290438    3.106946    0.051907
 C    4.300397    2.175700   -0.093196
 C    3.632191    4.517173    0.474533
 O    4.748629    4.595876    1.323996
 C    4.496380    4.138795    2.630659
 C    0.293357    1.098073   -0.911990
 O   -0.619461    1.474240   -0.166070
 C   -2.182324    0.898863   -3.036631
 O   -1.564755    2.143531   -3.278646
 C   -3.361957    1.198147   -2.099281
 N   -2.943652    2.094295   -1.011178
 C   -3.926154    2.215269    0.081120
 C   -3.865229    3.489428    0.869805
 C   -4.998572    3.248325   -0.086200
 C   -4.164439    0.899466    0.748765
 C   -3.132929    0.322140    1.483343
 C   -3.290002   -0.916660    2.089831
 C   -4.513902   -1.565703    1.961124
 C   -5.544698   -0.997425    1.236445
 C   -5.374014    0.230534    0.620197
 C   -2.159666   -1.520771    2.883024
 C   -1.839387   -2.942223    2.416289
 C   -2.505008   -1.507152    4.374420
 H    0.929345    0.160276   -2.548449
 H   -0.847012   -0.735933   -3.438027
 H   -1.874213   -0.738048   -0.570156
 H   -2.661964   -1.581091   -1.924445
 H    0.351622   -1.474168    0.219170
 H    1.854276   -5.202094   -1.225808
 H    0.044649   -5.294350   -2.861108
 H   -1.607861   -3.478392   -3.014886
 H    3.707786   -4.042124   -0.571967
 H    3.135510   -4.951156    0.847305
 H    4.199990   -3.434277    2.375759
 H    5.390588   -3.817520    1.127125
 H    5.390291   -1.411646    1.705366
 H    3.669137   -1.301977    1.325837
 H    5.882089   -1.923335   -0.690222
 H    4.160732   -1.817031   -1.068744
 H    5.957710    0.342925   -0.237687
 H    2.471535   -0.513090   -1.038685
 H    1.168051    3.437681   -0.059372
 H    5.316981    2.480129    0.110517
 H    3.903262    5.100235   -0.412748
 H    2.754792    4.987930    0.943708
 H    5.425674    4.258144    3.182992
 H    3.709338    4.732856    3.110619
 H    4.196983    3.084015    2.639889
 H   -2.621003    0.501156   -3.963612
 H   -0.937074    2.072657   -4.004588
 H   -4.149354    1.685793   -2.679679
 H   -3.765713    0.283001   -1.668544
 H   -2.734378    3.011682   -1.414066
 H   -1.970509    1.735008   -0.615709
 H   -3.114363    4.221371    0.613555
 H   -4.068897    3.432967    1.926996
 H   -5.974236    3.047631    0.325608
 H   -5.027614    3.818920   -1.002598
 H   -2.197199    0.852451    1.589159
 H   -4.666661   -2.522960    2.433622
 H   -6.488155   -1.513443    1.146855
 H   -6.177789    0.665960    0.045977
 H   -1.268816   -0.900813    2.732171
 H   -0.942049   -3.300181    2.914541
 H   -1.667819   -2.969717    1.342042
 H   -2.651532   -3.623823    2.653471
 H   -3.385179   -2.114344    4.570019
 H   -1.676302   -1.906164    4.953661
 H   -2.706080   -0.492565    4.711052
