88 
3k5c_ligand_ani.xyz
 N    0.576276   -0.681245   -1.934029
 C   -0.264382   -1.866036   -2.136149
 C   -0.438446   -2.692625   -0.848177
 C    0.867793   -3.296142   -0.385297
 C    1.691504   -2.591967    0.485640
 C    2.965066   -3.068912    0.802003
 C    3.400751   -4.292133    0.296892
 C    2.555187   -5.016637   -0.538951
 C    1.304929   -4.525722   -0.886406
 O    3.699167   -2.277751    1.630704
 C    5.110939   -2.421367    1.641658
 C    5.702651   -1.170079    2.269156
 C    5.223784    0.136966    1.631977
 C    5.526153    0.247264    0.131178
 N    5.137515    1.500946   -0.482783
 C    3.797558    1.859609   -0.628268
 C    2.767527    0.912742   -0.710890
 C    1.449309    1.326012   -0.917073
 C    1.144222    2.683682   -0.988147
 C    2.161737    3.631868   -0.930426
 C    3.477583    3.219958   -0.757971
 C    1.847713    5.108819   -1.026410
 O    2.386103    5.859296    0.040561
 C    1.759714    5.570547    1.269748
 C    0.319309    0.350144   -1.078021
 O   -0.772033    0.519698   -0.535440
 C   -1.604477   -1.583233   -2.888860
 O   -1.484928   -0.478697   -3.778007
 C   -2.864516   -1.335699   -2.042210
 N   -3.027654    0.116608   -1.839110
 C   -4.379621    0.510715   -1.417841
 C   -4.873840    1.844402   -1.906706
 C   -5.427809    0.571186   -2.488159
 C   -4.746543    0.060779   -0.028763
 C   -3.983598    0.503074    1.054301
 C   -4.273752    0.120911    2.364215
 C   -5.338032   -0.754350    2.583568
 C   -6.098209   -1.217386    1.514262
 C   -5.810438   -0.811054    0.217235
 C   -3.410554    0.628677    3.506809
 C   -2.589869   -0.504046    4.136843
 C   -4.234749    1.358312    4.573575
 H    1.547145   -0.792295   -2.191881
 H    0.318972   -2.473859   -2.837060
 H   -0.852030   -2.046849   -0.067531
 H   -1.161964   -3.492873   -1.047211
 H    1.365845   -1.656972    0.932173
 H    4.383671   -4.678425    0.550932
 H    2.891124   -5.972380   -0.935567
 H    0.664862   -5.096844   -1.555808
 H    5.488530   -2.560686    0.618496
 H    5.387923   -3.310559    2.225897
 H    5.444601   -1.159060    3.334818
 H    6.797105   -1.246299    2.210157
 H    5.700610    0.974593    2.157495
 H    4.143354    0.239706    1.785775
 H    6.602096    0.119769   -0.047290
 H    5.025111   -0.554884   -0.420062
 H    5.723602    2.284279   -0.226885
 H    2.988817   -0.145409   -0.561662
 H    0.108889    2.995775   -1.093084
 H    4.268775    3.965988   -0.708983
 H    2.289521    5.542798   -1.931370
 H    0.756313    5.251431   -1.086028
 H    2.234594    6.198704    2.027701
 H    0.682085    5.800067    1.239490
 H    1.881819    4.514592    1.550699
 H   -1.789203   -2.484874   -3.494890
 H   -0.554811   -0.205223   -3.793708
 H   -3.739636   -1.709085   -2.579376
 H   -2.845354   -1.847793   -1.079714
 H   -2.736040    0.535660   -2.741126
 H   -2.337068    0.419344   -1.124815
 H   -4.198410    2.443060   -2.512534
 H   -5.511878    2.414535   -1.240256
 H   -6.449440    0.298285   -2.241995
 H   -5.125565    0.301654   -3.497452
 H   -3.140607    1.167997    0.875983
 H   -5.578430   -1.084769    3.592810
 H   -6.925903   -1.897750    1.693615
 H   -6.399658   -1.179580   -0.619234
 H   -2.706604    1.352053    3.073523
 H   -1.960174   -0.119725    4.947360
 H   -1.942154   -0.983319    3.395295
 H   -3.247212   -1.274902    4.556491
 H   -4.959885    0.684698    5.044310
 H   -3.580915    1.746863    5.362764
 H   -4.789410    2.198359    4.142639
