89 
3k5d_ligand_ani.xyz
 C    1.979752    0.813961   -2.712975
 O    1.498877    1.941529   -2.834077
 C    2.106150   -0.128076   -3.890181
 N    2.452958    0.327569   -1.542127
 C    2.346290    0.987342   -0.242819
 C    0.884862    0.944815    0.250314
 O    0.542824    0.206351    1.179228
 C    2.946322    2.404565   -0.195199
 C    4.446096    2.557943   -0.523679
 C    4.768787    2.467167   -2.019477
 C    5.341182    1.613894    0.281105
 N    0.014365    1.743279   -0.409845
 C   -1.403161    1.766558   -0.080490
 C   -2.066473    0.516205   -0.678811
 O   -2.625894    0.545553   -1.778146
 C   -2.062077    3.046943   -0.577370
 C   -3.557340    3.131829   -0.268983
 S   -4.018956    2.933733    1.470724
 C   -3.382605    4.480418    2.153016
 N   -1.959766   -0.586704    0.089145
 C   -2.469877   -1.918380   -0.263632
 C   -1.729894   -2.546641   -1.471037
 O   -2.167000   -2.034878   -2.706434
 C   -3.986978   -1.934694   -0.479298
 C   -4.823329   -1.382069    0.682591
 C   -4.589282   -2.138104    1.990976
 C   -6.303599   -1.414631    0.303140
 C   -0.202440   -2.444183   -1.356029
 C    0.401937   -3.055208   -0.086583
 C    0.347955   -4.592937   -0.084439
 C    1.863911   -2.636199    0.053412
 O    2.605559   -2.523970   -0.919875
 C    3.713359   -2.286875    1.657469
 N    2.305330   -2.454816    1.324836
 C    3.891504   -1.702500    3.056007
 C    3.431652   -0.252553    3.214085
 C    3.570107    0.252872    4.648450
 H    1.139855   -0.183635   -4.398763
 H    2.419031   -1.131470   -3.584476
 H    2.834618    0.281867   -4.597715
 H    2.748672   -0.643277   -1.518690
 H    2.877002    0.345685    0.464134
 H    2.779860    2.779556    0.824910
 H    2.382955    3.053844   -0.871531
 H    4.689333    3.582994   -0.209886
 H    4.822759    1.428214   -2.359498
 H    5.743850    2.923442   -2.223590
 H    4.014243    2.983233   -2.622838
 H    5.185105    1.730022    1.360370
 H    6.398069    1.814821    0.073283
 H    5.154241    0.562934    0.019616
 H    0.324914    2.133273   -1.298687
 H   -1.484804    1.700245    1.010169
 H   -1.940981    3.115001   -1.665705
 H   -1.534814    3.902266   -0.135702
 H   -4.082049    2.331028   -0.797689
 H   -3.961665    4.082252   -0.635359
 H   -2.292367    4.542371    2.093166
 H   -3.672688    4.506645    3.206502
 H   -3.823964    5.345800    1.649123
 H   -1.258686   -0.537079    0.823978
 H   -2.246057   -2.539862    0.612076
 H   -2.007228   -3.611543   -1.490261
 H   -2.298769   -1.072004   -2.599316
 H   -4.223408   -1.379976   -1.393083
 H   -4.288600   -2.977753   -0.664972
 H   -4.540698   -0.332270    0.840004
 H   -5.229663   -1.736001    2.783998
 H   -3.553116   -2.058403    2.337314
 H   -4.827950   -3.204077    1.877161
 H   -6.922293   -0.977275    1.094706
 H   -6.642515   -2.446308    0.143031
 H   -6.487332   -0.851687   -0.619110
 H    0.093520   -1.391356   -1.442575
 H    0.231273   -2.938652   -2.231666
 H   -0.129634   -2.673183    0.798296
 H   -0.676092   -4.965296   -0.196953
 H    0.750771   -5.001676    0.847789
 H    0.946486   -4.985355   -0.913788
 H    4.229995   -3.252958    1.589320
 H    4.173903   -1.639661    0.900741
 H    1.633577   -2.424997    2.077915
 H    3.355595   -2.340164    3.774229
 H    4.953826   -1.770822    3.324675
 H    4.035842    0.384284    2.551906
 H    2.391379   -0.139497    2.882406
 H    4.609350    0.190722    4.993350
 H    3.250760    1.296813    4.734634
 H    2.955879   -0.341560    5.334472
