81 
3k5k_ligand_xtb.xyz
 N   -1.935028    0.221166   -0.136483
 C   -1.453077    1.457950   -0.342268
 N   -0.189197    1.805779   -0.382713
 C    0.724966    0.827949   -0.230067
 C    0.350696   -0.520733   -0.017378
 C   -1.060925   -0.760459    0.013697
 C    3.487694   -3.373138    0.381305
 C    7.425742   -1.449005   -0.805414
 C    7.155425   -1.290800    1.590092
 C   -2.809703    5.600139    1.877522
 C   -6.443130   -4.919676   -0.093709
 C    2.089866    1.173348   -0.306698
 C    1.357473   -1.497398    0.131018
 C    6.419593    1.532115   -0.815385
 C   -4.691888    3.336311   -0.536884
 C    4.934791    1.693821   -0.485604
 C   -3.389017   -3.168353    1.333515
 C   -3.224923   -3.203541   -1.153626
 C    7.184946    0.755340    0.252958
 C   -4.441524    4.261456    0.651357
 C   -3.790668    2.102830   -0.550672
 C   -4.846865   -3.594462    1.212402
 C   -4.686399   -3.628832   -1.215202
 C   -2.340284    4.943786   -0.445382
 C   -1.983478    3.651064   -1.224447
 N   -1.552649   -2.010976    0.198383
 O    3.746572   -1.997671    0.183879
 O    4.393704    0.393108   -0.290653
 C    2.681108   -1.152479    0.049995
 C    3.047678    0.206678   -0.191866
 C   -2.944634   -2.362572    0.103751
 N    6.811168   -0.686470    0.293279
 N   -3.000945    4.586081    0.830002
 N   -5.061835   -4.409777   -0.009588
 N   -2.382180    2.470002   -0.482871
 H    4.460150   -3.858540    0.431095
 H    2.922943   -3.795038   -0.453840
 H    2.953332   -3.547058    1.319106
 H    7.162699   -1.018731   -1.768182
 H    8.509937   -1.443602   -0.700916
 H    7.077154   -2.479195   -0.784082
 H    8.228067   -1.214242    1.763585
 H    6.875311   -2.341875    1.599447
 H    6.630796   -0.784953    2.397888
 H   -3.226141    6.552288    1.551474
 H   -1.750512    5.733553    2.087714
 H   -3.311845    5.296531    2.794321
 H   -7.143026   -4.088104   -0.152811
 H   -6.681732   -5.516108    0.785066
 H   -6.564475   -5.542385   -0.978238
 H    2.331574    2.209384   -0.471506
 H    1.089525   -2.525352    0.314539
 H    6.520559    1.052055   -1.788628
 H    6.857717    2.526696   -0.896483
 H   -4.585877    3.884296   -1.471979
 H   -5.729371    3.004903   -0.486967
 H    4.797981    2.288140    0.426307
 H    4.431076    2.198735   -1.315609
 H   -3.271290   -2.567613    2.234917
 H   -2.750980   -4.049034    1.441796
 H   -2.579232   -4.085525   -1.153827
 H   -2.988929   -2.624336   -2.046122
 H    8.259665    0.827355    0.073798
 H    6.971019    1.190469    1.231532
 H   -4.793124    3.794915    1.574006
 H   -4.989809    5.195394    0.509209
 H   -3.996987    1.523366   -1.459137
 H   -3.997832    1.459673    0.308209
 H   -5.497221   -2.719425    1.149483
 H   -5.140631   -4.180177    2.085656
 H   -5.337290   -2.753362   -1.264155
 H   -4.863008   -4.239634   -2.102652
 H   -1.430261    5.498603   -0.215510
 H   -2.996450    5.597220   -1.020588
 H   -0.902415    3.581215   -1.355206
 H   -2.448914    3.658101   -2.214490
 H   -0.890829   -2.767588    0.250681
 H   -3.488447   -1.414588    0.049298
 H    5.778757   -0.717590    0.170167
 H   -2.540165    3.696726    1.094036
 H   -4.429811   -5.217740    0.043662
