69 
3k84_ligand_ani.xyz
 C   -5.264340    0.820672   -1.563361
 C   -4.377775    0.553507   -2.524276
 C   -3.004024   -0.048661   -2.388364
 C   -1.909839    0.738854   -3.128614
 C   -1.398379    2.004222   -2.425987
 C   -0.536271    1.710159   -1.196405
 C    0.082405    2.950391   -0.549220
 C    1.029521    2.590169    0.592244
 C    1.673520    3.785497    1.288680
 C    2.577484    3.341679    2.438289
 O   -1.321111   -2.932030   -0.416068
 C    6.278728    0.843112   -0.189428
 C    6.488309   -0.469706   -0.602636
 C    4.992957    1.222357    0.177522
 C    5.408412   -1.340795   -0.638586
 N    2.846873   -2.931242   -0.744694
 C   -3.777218    0.202020    2.660658
 C   -2.425284   -0.230191    2.081373
 C   -5.000177   -0.530321    2.091998
 C   -2.104041   -1.719342    2.250135
 C   -5.110486   -0.535756    0.561712
 C   -0.692242   -2.085953    1.789409
 N    3.946611    0.399780    0.157082
 N    1.496072   -3.241212   -0.608822
 O    1.805636   -1.202690    0.130716
 C   -4.983865    0.850393   -0.085687
 C    4.163434   -0.853505   -0.252828
 C    2.979944   -1.722033   -0.306444
 C    0.933872   -2.199950   -0.103445
 C   -0.503524   -2.009219    0.265472
 H   -6.300029    0.976993   -1.862996
 H   -4.673070    0.743101   -3.557542
 H   -2.735820   -0.207615   -1.335891
 H   -3.045798   -1.056973   -2.828213
 H   -2.298069    1.002706   -4.120573
 H   -1.050670    0.076274   -3.303771
 H   -0.794887    2.579336   -3.141621
 H   -2.239946    2.652473   -2.143811
 H    0.275932    1.024260   -1.489098
 H   -1.131689    1.180544   -0.437362
 H   -0.715879    3.610521   -0.178887
 H    0.632371    3.526630   -1.308066
 H    0.486128    1.986178    1.336922
 H    1.835295    1.950550    0.207802
 H    0.897202    4.468012    1.662271
 H    2.259730    4.353986    0.552801
 H    3.298884    2.586980    2.098189
 H    1.990729    2.880397    3.241280
 H    3.137166    4.179494    2.865906
 H   -0.787804   -3.729323   -0.550824
 H    7.092341    1.560005   -0.149848
 H    7.479943   -0.804745   -0.895037
 H    4.781638    2.239245    0.504268
 H    5.500787   -2.374988   -0.959356
 H   -3.761792    0.060920    3.750233
 H   -3.896663    1.281813    2.501275
 H   -1.631279    0.367459    2.553034
 H   -2.395912    0.027639    1.014407
 H   -5.902791   -0.064249    2.511555
 H   -5.005939   -1.569326    2.447756
 H   -2.209101   -1.986241    3.310147
 H   -2.832133   -2.328456    1.699720
 H   -4.345903   -1.197617    0.129249
 H   -6.077767   -0.974343    0.283442
 H   -0.450437   -3.107203    2.113167
 H    0.034888   -1.417977    2.267011
 H   -5.687630    1.538888    0.403453
 H   -3.974933    1.249107    0.091221
 H   -0.786889   -1.003584   -0.077630
