29 
3k8d_ligand_dft.xyz
 C   -2.565035   -0.987101   -0.212723
 O   -3.843238   -0.669115    0.060114
 O   -2.241558   -1.628891   -1.181726
 C   -1.628849   -0.418263    0.851243
 C   -1.579354    1.114029    0.799181
 C   -0.811591    1.587324   -0.436483
 O   -0.691523    2.986617   -0.467322
 C    0.577073    0.941739   -0.448990
 O    1.289778    1.546626    0.611068
 C    0.470644   -0.583134   -0.335993
 O   -0.348310   -0.992946    0.760727
 C    1.784584   -1.354126   -0.103801
 O    2.202273   -1.283527    1.245616
 C    2.976969   -0.856988   -0.930490
 O    3.581950    0.270095   -0.314861
 H   -4.381176   -1.039350   -0.658385
 H   -2.026254   -0.737469    1.819563
 H   -2.588916    1.532439    0.803980
 H   -1.056713    1.468440    1.692805
 H   -1.349587    1.292893   -1.346132
 H    0.057795    3.180017    0.118187
 H    1.055855    1.179090   -1.410495
 H    2.227228    1.372235    0.415302
 H    0.031018   -0.951138   -1.271477
 H    1.580581   -2.401212   -0.371246
 H    1.398390   -1.140564    1.766714
 H    3.713422   -1.665548   -1.022500
 H    2.673326   -0.560919   -1.938372
 H    3.723401   -0.020665    0.601460
