42 
3k98_ligand_dft.xyz
 N   -0.772879   -0.062227    0.309347
 C   -4.230776   -1.279082    0.730366
 C   -2.898543   -0.997942    0.462656
 C   -2.044986   -1.982582   -0.010845
 C   -0.678690   -1.412120   -0.269238
 C   -2.172609    0.305704    0.616752
 C    1.647497    0.300755    0.637598
 C    4.375841   -0.334456    0.312460
 C    2.601819    0.661814    1.624463
 C   -2.415646    3.750846   -0.970334
 C   -4.690412   -2.576641    0.524542
 C   -3.829122   -3.569638    0.055088
 C   -2.495865   -3.278764   -0.221928
 C    0.227887    0.660159    0.865442
 C    2.109972   -0.309030   -0.533447
 C    3.442484   -0.621402   -0.699529
 C    3.940600    0.308073    1.462849
 O    2.275013    1.328282    2.734952
 O    5.681108   -0.635024    0.210250
Cl    3.999249   -1.375250   -2.181013
 O   -0.048260    1.635652    1.596931
 C   -2.670704    1.394531   -0.363086
 N   -2.223794    2.637239   -0.058395
 C   -1.329813    3.826201   -2.041783
 O   -3.392599    1.133371   -1.310558
 H   -4.903221   -0.502226    1.080504
 H    0.128502   -1.975838    0.207967
 H   -0.482048   -1.371162   -1.347374
 H   -2.211595    0.693185    1.640039
 H   -3.396050    3.623092   -1.434775
 H   -2.440598    4.671202   -0.378396
 H   -5.729536   -2.816806    0.726939
 H   -4.203608   -4.576974   -0.099198
 H   -1.827387   -4.049895   -0.594280
 H    1.428739   -0.519147   -1.348049
 H    4.656720    0.568645    2.232922
 H    1.354790    1.654149    2.611792
 H    5.848298   -1.057248   -0.645217
 H   -1.513203    2.705532    0.662668
 H   -0.339134    3.939314   -1.588369
 H   -1.501985    4.678648   -2.707082
 H   -1.334903    2.912882   -2.644302
