70 
3k9x_ligand_dft.xyz
 C   -7.041457   -2.416888   -0.564872
 N   -0.240139   -1.419512    0.611180
 O   -2.654441   -1.778986    1.510516
 C   -6.222700   -2.026260   -1.620930
 N   -6.612501   -2.577627    0.690156
 O    5.192777   -1.805094    1.404923
 C   -4.879481   -1.787453   -1.364136
 N   -2.175887   -1.388796   -0.736881
 O    0.114810    5.428644    0.531652
 C   -0.875052   -1.227215   -0.568123
 N   -0.158576   -0.861695   -1.683231
 O   -0.903516    1.558141   -2.501158
 C   -2.983054   -1.708530    0.313059
 N   -0.801446    3.422954    1.019974
 C   -5.320890   -2.342494    0.922430
 N    0.749540    2.631206   -1.363072
 C   -4.410562   -1.947894   -0.061114
 C    5.528257   -2.697008    0.420207
 C    4.439619   -3.105457   -0.273953
 C    6.973060   -3.023333    0.310945
 C    1.154493   -1.542950    0.844046
 C    1.935240   -2.387655    0.063849
 C    3.310184   -2.423451    0.305504
 C    1.717164   -0.773487    1.879299
 C    3.079014   -0.814916    2.145989
 C    3.845295   -1.638162    1.335411
 C   -1.025952    3.810672    2.415198
 C   -0.009066    3.868347   -1.283879
 C   -0.234124    4.312107    0.167326
 C   -1.354930    2.099522    0.722249
 C   -1.572265    2.533516    3.059529
 C   -2.288932    1.830852    1.901298
 C    2.069217   -0.046012   -2.493664
 C    0.155818    1.527285   -1.886508
 C    0.848328    0.190081   -1.595391
 C    2.085216    2.616464   -0.764781
 C    3.312945    0.647361   -1.930259
 C    3.189928    2.161913   -1.727760
 H   -8.099143   -2.609885   -0.733260
 H   -0.907160   -1.605223    1.368241
 H   -6.634312   -1.909682   -2.618156
 H   -4.191315   -1.475810   -2.142119
 H   -0.819904   -0.667677   -2.431318
 H   -4.973611   -2.472153    1.943867
 H    4.436335   -3.807885   -1.094871
 H    7.131728   -3.753199   -0.485705
 H    7.559109   -2.125788    0.086347
 H    7.350313   -3.442178    1.249658
 H    1.480445   -2.975318   -0.726063
 H    1.066059   -0.129268    2.462517
 H    3.524714   -0.226797    2.940190
 H   -0.096299    4.169824    2.864679
 H   -1.749251    4.633814    2.458597
 H    0.522434    4.687410   -1.775499
 H   -0.957671    3.705265   -1.800096
 H   -0.555779    1.344916    0.704948
 H   -1.864669    2.074818   -0.243524
 H   -2.226999    2.744683    3.908293
 H   -0.745855    1.909469    3.421300
 H   -3.263065    2.298613    1.720641
 H   -2.447464    0.761525    2.062528
 H    1.857126    0.289427   -3.516673
 H    2.248461   -1.124519   -2.537254
 H    1.206078    0.221799   -0.568274
 H    2.096814    2.012675    0.154905
 H    2.284174    3.645688   -0.456477
 H    4.164042    0.448477   -2.590866
 H    3.553137    0.181355   -0.964536
 H    3.031969    2.664545   -2.690304
 H    4.143707    2.529998   -1.331876
