70 
3k9x_ligand_ani.xyz
 C   -6.126703   -3.453604   -0.787246
 N    0.494624   -1.660341    0.620551
 O   -1.973741   -2.145434    1.448923
 C   -5.195952   -3.350836   -1.818203
 N   -5.845929   -3.205085    0.494911
 O    5.906471   -1.085550    1.531955
 C   -3.900407   -2.968257   -1.504066
 N   -1.368724   -2.009949   -0.787698
 O   -1.579907    5.154279    0.648018
 C   -0.168356   -1.531171   -0.557588
 N    0.473235   -0.883309   -1.596029
 O   -1.088953    1.197321   -2.373008
 C   -2.226385   -2.278323    0.244261
 N   -2.490524    3.101733    0.866509
 C   -4.598898   -2.842144    0.784197
 N   -0.063666    2.709253   -1.027608
 C   -3.588657   -2.710947   -0.171990
 C    6.407241   -1.450372    0.308415
 C    5.422576   -1.804817   -0.548262
 C    7.886377   -1.380982    0.164699
 C    1.885033   -1.549825    0.853114
 C    2.824649   -1.835167   -0.133911
 C    4.178449   -1.656700    0.173622
 C    2.290720   -1.137960    2.133964
 C    3.628990   -0.950916    2.449776
 C    4.547674   -1.212217    1.441589
 C   -3.124526    3.464779    2.133640
 C   -1.189574    3.631877   -1.165363
 C   -1.772334    4.034726    0.193169
 C   -2.621842    1.679607    0.550263
 C   -3.481702    2.113915    2.754333
 C   -3.686893    1.200520    1.541440
 C    2.175273    0.799214   -2.238342
 C   -0.158484    1.487898   -1.629164
 C    0.967279    0.476441   -1.351882
 C    1.180549    3.203746   -0.440730
 C    3.057957    1.898667   -1.641205
 C    2.365704    3.245496   -1.412012
 H   -7.152333   -3.749635   -0.999765
 H   -0.114755   -1.924017    1.392106
 H   -5.484773   -3.563997   -2.843610
 H   -3.120466   -2.858430   -2.251877
 H   -0.164593   -0.862440   -2.387759
 H   -4.370588   -2.640377    1.829626
 H    5.563890   -2.136003   -1.569249
 H    8.178088   -1.700807   -0.838255
 H    8.246682   -0.358975    0.322768
 H    8.382349   -2.027250    0.896123
 H    2.497304   -2.160480   -1.113472
 H    1.526922   -0.946179    2.885887
 H    3.946437   -0.619484    3.432458
 H   -2.432112    4.061456    2.732644
 H   -4.009810    4.083532    1.942137
 H   -0.869151    4.559964   -1.653347
 H   -1.933463    3.138075   -1.793861
 H   -1.671753    1.162847    0.725131
 H   -2.914423    1.524500   -0.490635
 H   -4.364622    2.169853    3.397081
 H   -2.648977    1.749476    3.367488
 H   -4.683716    1.351788    1.114436
 H   -3.576414    0.138060    1.780847
 H    1.829575    1.078959   -3.242382
 H    2.762507   -0.118550   -2.347557
 H    1.278770    0.557040   -0.308095
 H    1.436494    2.606539    0.447896
 H    0.966746    4.213421   -0.076148
 H    3.925636    2.055754   -2.293033
 H    3.462779    1.539225   -0.682307
 H    2.028691    3.663672   -2.368712
 H    3.108467    3.945526   -1.007209
