24 
3kac_ligand_ani.xyz
 C   49.165525   -4.598428   26.785512
 C   48.753839   -5.293960   27.938285
 C   48.711309   -6.678263   27.966016
 C   49.545090   -5.269187   25.633267
 N   49.801135   -7.642353   24.742741
 C   49.499871   -6.661773   25.671886
 C   49.090775   -7.370893   26.812130
 N   49.135192   -8.738826   26.575326
 C   49.556083   -8.854413   25.345376
 C   49.752768  -10.147512   24.622663
 C   51.079555  -10.213690   23.855022
 C   51.332966  -11.547452   23.194804
 O   51.790031  -11.705324   22.089512
 O   51.015538  -12.587505   23.997127
 H   49.185830   -3.511888   26.800328
 H   48.463349   -4.733922   28.823541
 H   48.394255   -7.224314   28.850048
 H   49.861390   -4.724307   24.746995
 H   49.700609  -10.952297   25.360106
 H   48.914781  -10.300874   23.930023
 H   51.138165   -9.454640   23.070495
 H   51.911461  -10.028970   24.546270
 H   51.234161  -13.387233   23.490940
 H   50.091322   -7.489976   23.789588
