51 
3kai_ligand_dft.xyz
 C   -2.804288    3.013545   -0.013553
 C   -2.787282    0.751438   -0.896070
 C   -1.463918    0.897949   -1.238983
 C   -3.477822   -0.577333   -1.068680
 C   -3.294046   -1.477684    0.185676
 C   -4.082897   -0.895978    1.344538
 N   -1.900459   -1.661449    0.521389
 O   -5.273714   -0.705765    1.308113
 O   -3.323370   -0.573463    2.405081
 C   -1.100280   -2.450788   -0.246442
 C   -3.460101    1.840148   -0.278728
 O   -1.541908   -3.278484   -1.034265
 C    0.349558   -2.190659   -0.084520
 N    1.304158   -3.075858   -0.473189
 N    2.533698   -2.580697   -0.330576
 C    2.381987   -1.343677    0.153405
 C    1.017089   -1.051529    0.330767
 C    3.548883   -0.481854    0.408183
 C    4.845407   -0.992843    0.287215
 C    5.947346   -0.176854    0.511311
 C    5.773749    1.161271    0.857811
 C    4.486756    1.676713    0.980287
 C    3.382210    0.861176    0.758515
 C    1.133755   -4.410262   -1.021131
 C   -1.429411    3.169819   -0.331344
 C   -0.748819    2.089720   -0.957907
 C    0.633640    2.223288   -1.255125
 C    1.305442    3.378318   -0.947047
 C    0.625035    4.458872   -0.336039
 C   -0.709434    4.357161   -0.037528
 H   -3.331176    3.841727    0.453692
 H   -0.934168    0.079452   -1.721627
 H   -3.055226   -1.125541   -1.915346
 H   -4.550347   -0.454291   -1.244601
 H   -3.723986   -2.458557   -0.035761
 H   -1.472602   -0.967232    1.115247
 H   -3.919605   -0.179116    3.062001
 H   -4.509155    1.729067   -0.016246
 H    0.577376   -0.126125    0.674059
 H    4.977117   -2.035090    0.015795
 H    6.947578   -0.588814    0.413764
 H    6.636567    1.797439    1.031635
 H    4.337196    2.719043    1.247208
 H    2.386007    1.283970    0.847272
 H    0.482994   -5.002589   -0.376420
 H    2.126708   -4.855104   -1.070693
 H    0.684659   -4.356267   -2.013586
 H    1.154872    1.387735   -1.715826
 H    2.365786    3.463001   -1.165643
 H    1.166703    5.370573   -0.102450
 H   -1.232480    5.184711    0.435086
