40 
3kc3_ligand_dft.xyz
 C  -18.879478   41.815369  -72.402618
 C  -20.037806   41.572792  -73.159496
 C  -18.611157   41.101671  -71.244126
 C  -20.960379   40.607367  -72.776760
 C  -20.167358   34.434960  -64.049729
 C  -20.352796   33.327728  -63.251138
 C  -19.625832   39.194628  -69.745136
 C  -22.683689   35.341540  -67.663293
 C  -20.904178   36.963970  -67.986611
 C  -24.396876   35.464769  -69.630472
 C  -19.527031   40.123603  -70.838470
 C  -20.670240   39.907208  -71.615820
 C  -20.992854   34.520786  -65.191836
 C  -21.506599   35.931097  -67.228374
 C  -23.238007   35.800206  -68.867233
 C  -21.434572   37.441195  -69.173858
 C  -20.781446   38.503734  -69.926499
 C  -22.630155   36.830792  -69.607333
 C  -21.980476   32.559273  -64.603490
 N  -22.935482   31.624846  -64.874888
 N  -23.421768   37.026518  -70.697813
 N  -21.249424   32.367251  -63.499717
 N  -24.489576   36.204497  -70.714756
 N  -21.898768   33.585882  -65.466572
 N  -20.845405   35.593460  -66.031677
 O  -21.433195   38.923180  -71.062951
 H  -18.181904   42.578160  -72.734303
 H  -20.216429   42.150243  -74.060990
 H  -17.713299   41.296367  -70.665875
 H  -21.859133   40.408586  -73.350167
 H  -19.426757   35.190994  -63.814389
 H  -19.748754   33.191048  -62.356223
 H  -18.920144   39.063657  -68.937871
 H  -23.141818   34.550013  -67.088849
 H  -19.978890   37.401650  -67.619317
 H  -25.150362   34.718886  -69.418762
 H  -23.311030   31.606098  -65.809118
 H  -22.864747   30.752129  -64.376674
 H  -20.108996   36.228476  -65.765479
 H  -23.284194   37.694370  -71.437317
