40 
3kc3_ligand_xtb.xyz
 C    6.627569   -1.769097    0.086250
 C    6.839717   -0.389241    0.071380
 C    5.357723   -2.302565    0.066284
 C    5.785428    0.502654    0.036779
 C   -4.529666   -2.384113   -0.102838
 C   -5.896929   -2.247668   -0.025006
 C    2.860066   -1.567173    0.004645
 C   -1.752985    1.066142   -0.087872
 C   -0.105142   -0.716495   -0.073039
 C   -0.582807    3.388821   -0.051849
 C    4.275720   -1.424222    0.031272
 C    4.509467   -0.034058    0.017741
 C   -3.774770   -1.195642   -0.056032
 C   -1.444391   -0.283244   -0.090615
 C   -0.694533    1.972946   -0.063736
 C    0.969239    0.159553   -0.048113
 C    2.338290   -0.303698   -0.021698
 C    0.649412    1.527525   -0.044249
 C   -5.704930   -0.006832    0.116633
 N   -6.299827    1.205736    0.181474
 N    1.415165    2.645388   -0.023002
 N   -6.502623   -1.073192    0.087083
 N    0.672450    3.757224   -0.027799
 N   -4.371982   -0.014635    0.055737
 N   -2.415650   -1.279723   -0.117217
 O    3.334278    0.637061   -0.014044
 H    7.482527   -2.428182    0.114181
 H    7.850785   -0.011687    0.087502
 H    5.197418   -3.369761    0.077625
 H    5.942977    1.569469    0.025190
 H   -4.055608   -3.348090   -0.191193
 H   -6.552895   -3.108593   -0.047866
 H    2.316926   -2.489424    0.007317
 H   -2.778749    1.387985   -0.102871
 H    0.092196   -1.778251   -0.078536
 H   -1.366239    4.119382   -0.060592
 H   -7.281641    1.231288    0.388648
 H   -5.728466    2.006931    0.379316
 H   -2.055471   -2.222383   -0.169706
 H    2.420425    2.697677   -0.006228
