37 
3kck_ligand_ani.xyz
 C   11.821695   15.591113    0.750589
 C   11.343098   14.758462    1.759916
 C   10.018753   14.934227    2.173658
 C    9.181852   15.863126    1.573551
 C   15.938705   14.135388    5.445960
 C   15.413210   11.840210    5.027431
 C   13.561800   11.046574    3.613850
 C   12.025779   10.080314    2.028010
 C   11.142420   11.876297    1.045140
 C   12.598253   11.222277    2.625249
 O    8.812580   17.535614   -0.022768
 C    9.676643   16.650369    0.536739
 C   11.001199   16.519765    0.123590
Cl    9.382877   13.980284    3.477187
 C   12.236923   13.742789    2.380673
 N   13.148845   14.220883    3.164113
 C   14.083799   13.554033    3.949547
 C   14.905628   14.490633    4.615325
 C   16.201772   12.780709    5.649160
 C   14.329430   12.164647    4.185854
 C   13.770085    9.708355    3.989185
 C   13.116612    8.664967    3.342165
 N   12.243907    8.814421    2.338572
 N   11.161161   10.516489    1.052588
 C   12.001531   12.368081    2.011562
 H   12.860566   15.508019    0.442356
 H    8.152476   15.986158    1.893448
 H   16.543597   14.897214    5.930797
 H   15.665712   10.797564    5.189132
 H   10.521563   12.435974    0.353352
 H    9.263564   18.022627   -0.723774
 H   11.392436   17.147074   -0.675471
 H   14.678627   15.536750    4.427816
 H   17.018975   12.467081    6.293326
 H   14.431548    9.433803    4.804175
 H   13.317999    7.639496    3.648788
 H   10.612379    9.908215    0.466210
