86 
3kdb_ligand_ani.xyz
 O   -3.063477    1.230973   -2.971713
 C   -3.178916    1.366447   -1.751803
 C   -4.467844    0.946037   -1.059919
 O   -4.313034    1.027061    0.350153
 C   -5.243208    0.279892    1.047455
 C   -4.906495   -1.031834    1.399674
 C   -3.596323   -1.631128    0.946406
 C   -5.828215   -1.756541    2.156053
 C   -7.045194   -1.195891    2.530349
 C   -7.358689    0.104534    2.146401
 C   -6.467944    0.864803    1.389060
 C   -6.802207    2.266105    0.941377
 N   -2.249005    1.889268   -0.941196
 C   -0.914219    2.281423   -1.367251
 C   -0.254302    3.031082   -0.196765
 C    1.173033    3.461743   -0.449789
 C    1.471236    4.474616   -1.361027
 C    2.792577    4.826409   -1.621994
 C    3.834440    4.163664   -0.977726
 C    3.548900    3.150222   -0.065605
 C    2.225276    2.808152    0.198771
 C   -0.046149    1.124549   -1.925370
 O   -0.384732    0.813748   -3.256539
 C   -0.071191   -0.144142   -1.042576
 O   -0.517667   -0.147010    0.107306
 N    0.471646   -1.271324   -1.574489
 C    1.197471   -1.329232   -2.838397
 S    2.179529   -2.854980   -2.754350
 C    0.899971   -3.667517   -1.734661
 C   -0.247549   -4.149571   -2.627086
 C    1.515224   -4.843727   -0.985518
 C    0.386494   -2.525886   -0.815552
 C    1.110936   -2.482702    0.534044
 O    0.702136   -3.134800    1.484452
 N    2.240695   -1.733179    0.584781
 C    2.895045   -1.491288    1.844762
 C    4.157566   -0.674855    1.711846
 C    5.091709   -0.694242    0.686242
 C    6.204515    0.139699    0.788096
 C    6.366375    0.970719    1.896202
 C    5.419046    0.990192    2.919728
 C    4.309111    0.160410    2.820003
 C    3.141293   -0.017344    3.769229
 C    2.063316   -0.678972    2.891119
 O    1.335851    0.366673    2.285953
 H   -5.285595    1.590051   -1.406280
 H   -4.694829   -0.077024   -1.379209
 H   -2.787776   -0.893372    0.983211
 H   -3.321037   -2.484373    1.573564
 H   -3.651323   -1.994749   -0.089084
 H   -5.580920   -2.773144    2.454425
 H   -7.751179   -1.773433    3.121981
 H   -8.309409    0.545544    2.439468
 H   -5.922538    2.913019    1.012068
 H   -7.604897    2.691693    1.550325
 H   -7.139702    2.287745   -0.103101
 H   -2.406490    1.779304    0.052355
 H   -1.036497    2.962794   -2.219439
 H   -0.881070    3.904709    0.023067
 H   -0.272788    2.379284    0.684566
 H    0.660545    4.991108   -1.874164
 H    3.010390    5.619281   -2.333677
 H    4.864842    4.439186   -1.189228
 H    4.352989    2.620092    0.442271
 H    1.995396    2.016753    0.909230
 H    0.992902    1.476159   -1.941034
 H   -1.360128    0.884754   -3.343714
 H    0.512697   -1.344944   -3.691930
 H    1.869378   -0.475809   -2.948784
 H    0.116444   -4.864688   -3.370276
 H   -1.007103   -4.643728   -2.010953
 H   -0.724045   -3.317258   -3.156563
 H    1.825892   -5.615188   -1.695749
 H    2.389794   -4.545020   -0.402331
 H    0.779966   -5.270965   -0.295631
 H   -0.656445   -2.715037   -0.540158
 H    2.477887   -1.153792   -0.208239
 H    3.111606   -2.461833    2.310370
 H    4.966068   -1.352168   -0.171171
 H    6.948096    0.149235   -0.005200
 H    7.240123    1.615878    1.960303
 H    5.556170    1.648172    3.774993
 H    3.414449   -0.674049    4.604878
 H    2.773867    0.925824    4.181604
 H    1.398942   -1.346365    3.459445
 H    0.696380   -0.005460    1.652150
