86 
3kdb_ligand_dft.xyz
 O   -2.724471   -2.095855   -2.227699
 C   -3.046991   -0.966718   -1.849164
 C   -4.329608   -0.810986   -1.046098
 O   -4.619825    0.552928   -0.797743
 C   -5.202572    0.822668    0.431429
 C   -4.382696    1.305852    1.456137
 C   -2.908059    1.505390    1.230243
 C   -4.983474    1.599303    2.680321
 C   -6.349460    1.419924    2.869324
 C   -7.139719    0.949976    1.827149
 C   -6.579351    0.643154    0.586513
 C   -7.423317    0.139675   -0.555361
 N   -2.361674    0.164708   -2.040872
 C   -1.010975    0.322119   -2.574579
 C   -0.493867    1.688459   -2.074340
 C    0.913679    2.001126   -2.521910
 C    1.202065    2.243281   -3.867513
 C    2.509408    2.481718   -4.279657
 C    3.545591    2.484053   -3.348513
 C    3.267504    2.250572   -2.004911
 C    1.958842    2.008855   -1.594687
 C   -0.034530   -0.835192   -2.279378
 O   -0.222432   -1.946079   -3.114777
 C    0.021930   -1.243055   -0.801455
 O   -0.672233   -0.724442    0.075695
 N    0.912753   -2.214948   -0.474921
 C    1.834786   -2.866497   -1.405386
 S    3.131878   -3.562014   -0.349112
 C    1.872603   -3.939421    0.946208
 C    1.078973   -5.199827    0.580230
 C    2.572978   -4.130164    2.290546
 C    0.927720   -2.705777    0.904131
 C    1.281028   -1.625627    1.934331
 O    0.848253   -1.701896    3.073564
 N    2.107417   -0.635563    1.520466
 C    2.383322    0.504024    2.363847
 C    3.522672    1.342543    1.844185
 C    4.725155    0.917725    1.294205
 C    5.658704    1.877996    0.904541
 C    5.379426    3.235625    1.061890
 C    4.166353    3.653919    1.609735
 C    3.238380    2.698059    2.002958
 C    1.883302    2.882915    2.644532
 C    1.196467    1.516665    2.475140
 O    0.440119    1.570426    1.287112
 H   -5.140862   -1.295525   -1.600978
 H   -4.181845   -1.354829   -0.105659
 H   -2.723687    2.294612    0.490975
 H   -2.403473    1.802309    2.152872
 H   -2.421731    0.598132    0.860807
 H   -4.366514    1.971784    3.493742
 H   -6.800114    1.652212    3.829448
 H   -8.209151    0.819629    1.971100
 H   -7.092314    0.568423   -1.505883
 H   -8.475425    0.396442   -0.404387
 H   -7.362986   -0.951734   -0.648021
 H   -2.769412    0.970199   -1.582632
 H   -1.063802    0.345205   -3.670740
 H   -1.183056    2.457084   -2.448720
 H   -0.544032    1.710316   -0.981648
 H    0.397255    2.246192   -4.599534
 H    2.718317    2.668375   -5.329101
 H    4.565893    2.671891   -3.670179
 H    4.063937    2.260954   -1.267275
 H    1.734641    1.843394   -0.543213
 H    0.954630   -0.437507   -2.535291
 H   -1.149531   -2.231417   -2.957135
 H    1.325849   -3.634514   -1.989275
 H    2.276204   -2.146742   -2.096202
 H    1.746811   -6.061170    0.493843
 H    0.339981   -5.409064    1.362455
 H    0.540788   -5.085445   -0.365836
 H    3.185023   -5.037112    2.264489
 H    3.217975   -3.282309    2.535811
 H    1.830118   -4.231960    3.086745
 H   -0.082115   -3.018530    1.185459
 H    2.345064   -0.572998    0.541089
 H    2.608367    0.122037    3.366766
 H    4.931763   -0.142300    1.169326
 H    6.605160    1.567248    0.472156
 H    6.110561    3.974739    0.747978
 H    3.952453    4.713157    1.722538
 H    1.995582    3.126361    3.708474
 H    1.282118    3.671080    2.182480
 H    0.552828    1.258169    3.323545
 H    0.036291    0.701430    1.115605
