80 
3kdc_ligand_ani.xyz
 S   -1.737577    2.970798   -2.726636
Cl    3.328988    1.392229   -0.592697
 N    2.001430   -2.169613   -0.632650
 O    4.170967   -1.245606    0.484643
Cl    6.506704   -2.052030    2.093446
 N   -0.478485    1.144562   -1.349790
 O    0.121908   -0.130399    0.405004
 N   -2.494095    1.728217    0.520602
 O   -1.052336    3.060136    1.649551
 O    0.592420   -0.863509   -2.952036
 O   -2.013895   -0.280742    2.490726
 O    2.973085   -2.285064   -2.684787
 C    3.051254   -2.089654   -1.470465
 C    0.662106   -2.477577   -1.107883
 C   -0.039534   -1.260236   -1.751360
 C   -0.137884   -3.135942    0.025415
 C   -0.111144   -0.045080   -0.802840
 C   -0.364733    2.360293   -0.536815
 C   -0.530465    3.570872   -1.495250
 C   -0.987124    1.316136   -2.707587
 C   -1.329375    2.407662    0.651992
 C    4.384719   -1.769002   -0.821770
 C   -1.585502   -3.396526   -0.330245
 C   -1.939952   -4.401741   -1.231650
 C   -3.268590   -4.579996   -1.606808
 C   -4.261173   -3.750120   -1.092640
 C   -3.921375   -2.743296   -0.190588
 C   -2.593215   -2.580444    0.191906
 C    0.814176    3.848677   -2.173606
 C   -1.060849    4.833999   -0.829022
 C   -3.381969    1.596104    1.647538
 C   -4.643948    0.828972    1.334014
 C   -5.382547    0.818948    0.159440
 C   -6.555305    0.066701    0.116306
 C   -2.796507    0.825959    2.878261
 C   -5.041381    0.085207    2.447114
 C   -6.207428   -0.668309    2.402206
 C   -6.962814   -0.670707    1.229755
 C   -4.047947    0.262852    3.578083
 C    6.560009    1.931273    1.702681
 C    5.462232    2.173750    0.886486
 C    4.687496    1.104968    0.456968
 C    4.979558   -0.205325    0.846634
 C    6.102035   -0.425616    1.648093
 C    6.886970    0.635007    2.082382
 H    2.091786   -1.773851    0.295103
 H   -2.650466    1.165563   -0.303668
 H    1.395290   -1.405846   -3.091303
 H   -1.281925    0.013386    1.918023
 H    0.792082   -3.200102   -1.922445
 H   -1.072921   -1.558681   -1.983870
 H    0.369837   -4.074729    0.279298
 H   -0.100545   -2.482203    0.901945
 H    0.625882    2.394887   -0.072335
 H   -1.754942    0.574092   -2.942505
 H   -0.181455    1.238587   -3.443345
 H    4.898844   -1.052991   -1.472393
 H    4.994150   -2.679887   -0.768714
 H   -1.168118   -5.048839   -1.646787
 H   -3.530558   -5.368154   -2.308803
 H   -5.295395   -3.892113   -1.396065
 H   -4.680778   -2.077763    0.215975
 H   -2.332683   -1.803710    0.907043
 H    1.215147    2.948855   -2.653035
 H    0.708287    4.625109   -2.936079
 H    1.539704    4.188348   -1.425675
 H   -0.384878    5.141498   -0.024761
 H   -1.130060    5.640617   -1.564212
 H   -2.050618    4.679984   -0.393033
 H   -3.629830    2.602583    2.010344
 H   -5.064954    1.394301   -0.707736
 H   -7.153823    0.047334   -0.791693
 H   -2.223033    1.509530    3.521812
 H   -6.532110   -1.253653    3.259442
 H   -7.878384   -1.255811    1.180037
 H   -4.429154    0.974404    4.321087
 H   -3.810968   -0.672730    4.090370
 H    7.171178    2.761183    2.042707
 H    5.204076    3.180174    0.573331
 H    7.747893    0.436952    2.712958
