49 
3kdm_ligand_ani.xyz
 C    2.566556   -1.504622   -0.377169
 C    4.075324   -1.405868   -0.186746
 C    4.598023   -0.027803   -0.546261
 O    5.712752    0.149550   -0.999193
 C    3.674956    1.096531   -0.273973
 C    2.422001    0.937335    0.175076
 C    1.604725    2.137379    0.599333
 C    0.207149    2.118566   -0.014267
 C   -0.528253    0.814969    0.307021
 C    0.309117   -0.393728   -0.186022
 C    1.765218   -0.423630    0.389257
 C   -0.442315   -1.733497   -0.016230
 C   -1.870869   -1.717981   -0.588924
 C   -2.674211   -0.537003   -0.041318
 C   -1.905025    0.757576   -0.355189
 C   -2.933006    1.870876   -0.094945
 C   -4.297907    1.230259   -0.477535
 C   -3.991932   -0.257186   -0.774397
 O   -4.995692   -1.161824   -0.357613
 C   -2.959089   -0.723944    1.456156
 C    1.778725   -0.736533    1.897718
 H    2.228853   -2.499492   -0.064582
 H    2.336453   -1.411650   -1.447707
 H    4.348210   -1.610833    0.859188
 H    4.606756   -2.140143   -0.798087
 H    4.080771    2.092255   -0.437317
 H    1.520683    2.131658    1.695782
 H    2.132324    3.060612    0.333056
 H   -0.367920    2.984607    0.338715
 H    0.295711    2.220117   -1.105679
 H   -0.657858    0.758542    1.399146
 H    0.437044   -0.228033   -1.269926
 H    0.114938   -2.541177   -0.502071
 H   -0.493325   -1.997412    1.048453
 H   -1.826921   -1.645378   -1.685561
 H   -2.391649   -2.655985   -0.358725
 H   -1.721980    0.747179   -1.445761
 H   -2.930187    2.165119    0.962413
 H   -2.720275    2.774442   -0.677541
 H   -4.757091    1.710842   -1.347270
 H   -5.018566    1.300463    0.346035
 H   -3.804342   -0.378790   -1.855340
 H   -5.794605   -0.963696   -0.861516
 H   -2.036766   -0.786913    2.040177
 H   -3.523830   -1.647522    1.609045
 H   -3.556529    0.091924    1.875637
 H    2.799549   -0.681377    2.290853
 H    1.394959   -1.742181    2.101710
 H    1.173983   -0.019167    2.461812
