52 
3kdt_ligand_ani.xyz
 C   -1.311050    0.114871    2.806958
 C   -2.155801    0.446680    1.632994
 C   -1.981434    1.211743    0.526610
 N   -3.120313    1.155359   -0.261587
 C   -3.920874    0.367336    0.378150
 O   -3.404104   -0.106520    1.541104
 C   -5.268840   -0.063117    0.007645
 C   -6.006739   -0.908716    0.838837
 C   -7.284170   -1.307802    0.470547
 C   -7.815188   -0.855390   -0.734013
 C   -7.092705   -0.013380   -1.573589
 C   -5.816600    0.380869   -1.196147
Cl   -9.416121   -1.352816   -1.200013
 C   -0.810451    2.040540    0.125719
 O    0.379999    1.498420    0.678248
 C    1.566505    2.003450    0.229519
 C    1.672284    3.130870   -0.582296
 C    2.933584    3.568124   -0.975510
 C    4.075231    2.886819   -0.578067
 C    3.968640    1.751691    0.229714
 C    2.713109    1.323198    0.647539
 C    5.206693    0.977276    0.641700
 N    5.251188   -0.379757    0.095119
 C    5.368365   -0.555394   -1.342811
 C    6.571718   -1.390122   -1.787696
 O    6.660623   -1.798330   -2.913099
 O    7.532053   -1.582709   -0.873676
 C    4.731967   -1.393471    0.865384
 O    4.356980   -1.276780    2.014193
 O    4.718933   -2.553689    0.186923
 C    4.282972   -3.685103    0.945261
 H   -0.484451   -0.540342    2.510193
 H   -0.848827    1.022999    3.205565
 H   -1.891858   -0.375024    3.591106
 H   -5.577846   -1.252884    1.774433
 H   -7.868242   -1.964525    1.108096
 H   -7.528499    0.325254   -2.508124
 H   -5.229400    1.037622   -1.831545
 H   -0.935248    3.079590    0.468413
 H   -0.763617    2.051753   -0.970475
 H    0.791077    3.674605   -0.906614
 H    3.018466    4.450295   -1.606185
 H    5.055840    3.237351   -0.893611
 H    2.614301    0.465367    1.309038
 H    5.251581    0.866640    1.728627
 H    6.102517    1.518845    0.316722
 H    5.479095    0.433856   -1.798775
 H    4.472174   -1.008028   -1.776000
 H    7.244417   -1.166771   -0.045382
 H    4.935725   -3.842848    1.807251
 H    3.257596   -3.544691    1.294742
 H    4.343971   -4.529394    0.259775
