20 
3ked_ligand_dft.xyz
 N    1.780002    1.470202   -0.126855
 C    0.597080    0.640701    0.326307
 C    0.888083   -0.842917    0.064327
 O    0.007468   -1.659931   -0.045656
 C   -0.704527    1.156311   -0.318092
 C   -2.012180    0.693765    0.351536
 N   -2.528641   -0.619874   -0.169452
 O    2.182800   -1.082852    0.023519
 H    1.864362    1.510410   -1.151074
 H    1.724529    2.437988    0.215630
 H    2.659867    1.063520    0.223477
 H    0.558636    0.768657    1.415068
 H   -0.708562    2.248961   -0.235309
 H   -0.716681    0.929004   -1.391252
 H   -1.901195    0.580516    1.432374
 H   -2.794536    1.432400    0.170398
 H   -2.843471   -0.554567   -1.143971
 H   -3.331851   -0.946171    0.381257
 H   -1.774966   -1.331835   -0.120790
 H    2.371454   -2.036083   -0.089033
