124 
3kfn_ligand_ani.xyz
 N    2.449605    2.221194   -1.072121
 C    2.808891    0.883865   -1.496372
 N    0.529214    4.025028    0.556947
 C    4.231958    0.552678   -1.034930
 C    2.722784    0.760404   -3.029901
 C    1.294956    0.691164   -3.526560
 C    0.597698   -0.520658   -3.474267
 O    5.043165    1.430519   -0.845535
 C   -0.709011   -0.612139   -3.943106
 C   -1.348965    0.521830   -4.439173
 O    2.855712    1.935306    1.164249
 C   -0.678451    1.741318   -4.460718
 C    0.637295    1.825057   -4.013349
 C    1.976705    4.068602    0.439554
 C    2.481324    2.629916    0.217857
 C    2.654170    4.726852    1.644852
 C   -3.889552   -0.196159    4.210831
 C   -3.500780   -1.441465    4.692534
 N   -2.069348    3.413965    0.889333
 C   -3.451719   -2.539590    3.836429
 C   -3.798579   -2.384784    2.497506
 C   -4.205151   -1.140668    2.025476
 O    0.202912    4.027298   -1.698242
 C   -1.730753    3.771240   -0.296530
 C   -0.243045    3.948215   -0.555052
 C   -2.633505    4.028617   -1.473479
 O   -3.265989   -2.308618   -2.717158
 C   -3.035234   -2.610638   -1.560467
 O   -3.663667   -3.621032   -0.917620
 C   -4.906876   -4.002006   -1.523740
 C   -5.972638   -2.950978   -1.325845
 C   -6.403432   -2.171084   -2.397841
 C   -7.379446   -1.194494   -2.217530
 C   -7.925814   -0.981356   -0.956854
 C   -7.485891   -1.740934    0.124440
 C   -6.508001   -2.714900   -0.056674
 N   -2.082484   -2.042080   -0.731603
 C   -1.905294   -0.757154   -0.804411
 C   -2.813651    0.249064   -1.444452
 C   -0.736372   -0.191615   -0.033778
 O   -0.414625    0.989449   -0.114537
 N   -0.115214   -1.110147    0.757435
 C    0.972421   -0.801343    1.641809
 C    0.641954   -1.154321    3.112988
 C    0.266777   -2.626452    3.298071
 C   -0.477456   -0.236217    3.611718
 C    2.233405   -1.521838    1.145679
 O    2.170466   -2.621558    0.591215
 N    3.390256   -0.850884    1.350699
 C    4.669821   -1.183002    0.716244
 C    5.141664   -2.605540    1.063631
 C    6.547541   -2.885248    0.584057
 C    7.653401   -2.613784    1.392082
 C    8.946188   -2.849520    0.933455
 C    9.152280   -3.363073   -0.343585
 C    8.058460   -3.632787   -1.161245
 C    6.767216   -3.388525   -0.702162
 C    4.637183   -0.907938   -0.811725
 O    3.834762   -1.809972   -1.537959
 C    2.086365    6.121097    1.909733
 C    4.166763    4.800962    1.414870
 C   -3.373244    2.950240    1.116202
 O   -4.379794    3.300844    0.538491
 O   -3.351438    2.051614    2.117498
 C   -4.584188    1.330982    2.328412
 C   -4.245380   -0.031912    2.871006
 H    1.841607    2.755972   -1.686602
 H    2.122812    0.144478   -1.057880
 H    0.108413    3.726892    1.427258
 H    3.258499    1.603565   -3.483748
 H    3.251601   -0.154482   -3.315749
 H    1.097731   -1.401123   -3.067170
 H   -1.250052   -1.554736   -3.897183
 H   -2.379173    0.456804   -4.784640
 H   -1.182301    2.638305   -4.815142
 H    1.149784    2.785460   -4.034820
 H    2.185018    4.654801   -0.462856
 H    2.466434    4.086559    2.516079
 H   -3.897671    0.664051    4.875802
 H   -3.210896   -1.551522    5.735112
 H   -3.129636   -3.507028    4.213210
 H   -3.740804   -3.228027    1.814589
 H   -4.489000   -1.021370    0.980679
 H   -2.027228    4.100440   -2.380328
 H   -3.374162    3.233270   -1.577685
 H   -3.184214    4.963958   -1.336390
 H   -4.734615   -4.187215   -2.586648
 H   -5.166730   -4.939746   -1.023590
 H   -5.950091   -2.321114   -3.375857
 H   -7.714460   -0.599895   -3.064046
 H   -8.690856   -0.222197   -0.812913
 H   -7.905455   -1.574082    1.114147
 H   -6.144094   -3.278329    0.803268
 H   -2.217544    1.124297   -1.716693
 H   -3.296635   -0.171958   -2.329426
 H   -3.593019    0.575388   -0.742373
 H   -0.340435   -2.085928    0.603519
 H    1.136960    0.278715    1.580061
 H    1.554450   -0.954181    3.695110
 H   -0.730259   -2.836653    2.887145
 H    0.982970   -3.292926    2.807048
 H    0.234177   -2.875717    4.364566
 H   -0.735451   -0.463406    4.652554
 H   -0.188868    0.819979    3.549178
 H   -1.387212   -0.372227    3.012101
 H    3.279103    0.132743    1.586220
 H    5.391320   -0.477535    1.141133
 H    4.449191   -3.333710    0.635243
 H    5.083152   -2.712985    2.152765
 H    7.503585   -2.220010    2.396076
 H    9.795105   -2.634342    1.578010
 H   10.161258   -3.550180   -0.701940
 H    8.209745   -4.029179   -2.161427
 H    5.913172   -3.556398   -1.357428
 H    5.659292   -0.973150   -1.200364
 H    3.227927   -2.265001   -0.922088
 H    2.237598    6.771040    1.037749
 H    1.015236    6.092912    2.130252
 H    2.597356    6.586359    2.759800
 H    4.394145    5.431730    0.545151
 H    4.665087    5.242665    2.284563
 H    4.600442    3.811699    1.238881
 H   -5.190106    1.912559    3.030674
 H   -5.117165    1.261470    1.374862
