21 
3kgq_ligand_dft.xyz
 C    2.592502   -0.136135    0.399001
 O    2.831252   -1.212719   -0.365541
 O    3.396180    0.746670    0.520462
 C    1.253554   -0.145292    1.138632
 C    0.004583   -0.231874    0.235658
 O    0.099554   -1.350415   -0.641951
 C   -1.247688   -0.413362    1.107795
 C   -2.564510   -0.303630    0.343317
 O   -3.444495    0.445643    0.673101
 O   -2.668829   -1.105437   -0.722833
 C   -0.058946    1.013334   -0.680838
 O   -0.434109    2.174981   -0.160743
 O    0.271612    0.909293   -1.836272
 H    2.028396   -1.759996   -0.408413
 H    1.217864    0.759062    1.749832
 H    1.233890   -1.009825    1.813835
 H    0.304643   -0.953899   -1.517794
 H   -1.276070    0.309075    1.927774
 H   -1.178722   -1.407716    1.564570
 H   -1.826013   -1.578363   -0.854596
 H   -0.790263    2.079288    0.733633
