30 
3kgt_ligand_dft.xyz
 C   -3.440206   -1.397645    0.159668
 C   -4.405120   -0.402594    0.007706
 O   -5.695839   -0.801444    0.029500
 C   -4.055241    0.940081   -0.157738
 C   -2.715199    1.308346   -0.173789
 O   -2.401234    2.592368   -0.332276
 C   -1.703562    0.321297   -0.023418
 C   -0.294858    0.676463   -0.043244
 O    0.085245    1.851255   -0.172469
 C    0.639061   -0.447867    0.098441
 C    0.122125   -1.682499    0.274439
 O   -1.184629   -1.996131    0.294748
 C   -2.111550   -1.010971    0.139639
 C    2.105142   -0.253719    0.040877
 C    2.728111    0.803786    0.718464
 C    4.104557    0.955288    0.693910
 C    4.894883    0.049547   -0.016172
 O    6.238941    0.248195   -0.004191
 C    4.292543   -1.001036   -0.705790
 C    2.909289   -1.140473   -0.678167
 H   -3.721958   -2.434461    0.289815
 H   -6.270495   -0.034261   -0.083084
 H   -4.809170    1.712688   -0.274420
 H   -1.411854    2.649764   -0.314220
 H    0.730677   -2.566357    0.427140
 H    2.122938    1.518025    1.264183
 H    4.587292    1.772274    1.219443
 H    6.666078   -0.433694   -0.536192
 H    4.897544   -1.701419   -1.277542
 H    2.449240   -1.944522   -1.246572
