30 
3kgu_ligand_xtb.xyz
 C   -3.444416   -1.363152    0.151067
 C   -4.398421   -0.362410    0.011557
 O   -5.699739   -0.721484    0.032635
 C   -4.011108    0.964959   -0.144571
 C   -2.668951    1.315828   -0.163901
 O   -2.331644    2.593635   -0.313996
 C   -1.681125    0.307245   -0.023331
 C   -0.269095    0.650153   -0.044425
 O    0.121298    1.815386   -0.181456
 C    0.634425   -0.494345    0.093959
 C    0.101218   -1.728057    0.242592
 O   -1.200414   -2.026507    0.269392
 C   -2.100583   -1.023617    0.131510
 C    2.090054   -0.301780    0.055004
 C    2.907902   -1.213676   -0.612963
 C    4.274487   -1.041857   -0.656135
 C    4.858874    0.055886   -0.029494
 O    6.209437    0.191114   -0.093403
 C    4.051588    0.971941    0.633839
 C    2.682355    0.795176    0.673850
 H   -3.746492   -2.388799    0.271742
 H   -6.260438    0.057490   -0.074033
 H   -4.747181    1.747603   -0.254490
 H   -1.335189    2.638566   -0.307366
 H    0.711613   -2.611391    0.372864
 H    2.464212   -2.054876   -1.124397
 H    4.909877   -1.741074   -1.175914
 H    6.479795    0.997492    0.362515
 H    4.498858    1.828985    1.120247
 H    2.070224    1.515079    1.192098
