25 
3kid_ligand_ani.xyz
 C   -2.444133    0.770047    0.039418
 S    2.355791   -1.584766    0.035518
 C   -4.383599   -0.558493    0.018873
 N    3.199591    0.885886   -0.055206
 O   -2.950722   -0.471914    0.018641
 C   -4.723559   -2.026063   -0.106647
 C   -0.959326    0.772249    0.022578
 C   -0.223750   -0.407645    0.044891
 C    1.159423   -0.307989    0.020227
 C    3.601831   -0.338541   -0.020322
 C    1.813179    0.937162   -0.027971
 C    1.056526    2.113420   -0.047341
 O   -3.132783    1.766150    0.063643
 N    4.924155   -0.704356   -0.078654
 C   -0.321512    2.020912   -0.020433
 H   -4.775084    0.033341   -0.813353
 H   -4.764088   -0.121545    0.946814
 H   -4.320127   -2.432855   -1.038298
 H   -4.302977   -2.588265    0.731957
 H   -5.808932   -2.164403   -0.108658
 H   -0.729167   -1.366636    0.079782
 H    1.564071    3.073026   -0.083760
 H    5.188432   -1.540751    0.420629
 H    5.547853    0.077685    0.069285
 H   -0.941293    2.911707   -0.033574
