78 
3kjf_ligand_xtb.xyz
 C    1.475799    3.605628   -1.304274
 C    0.780485    2.914470   -0.191610
 O    1.329111    2.224329    0.638619
 C   -0.752032    3.070342   -0.175973
 C   -1.239051    3.449614    1.222088
 C   -0.629345    4.761680    1.658488
 O    0.151710    5.406331    1.013135
 O   -1.063479    5.128059    2.862854
 N   -1.344264    1.812406   -0.588942
 C   -1.551605    1.547934   -1.893609
 O   -1.427287    2.360794   -2.780222
 C   -2.100079    0.135558   -2.173221
 C   -3.598138    0.213208   -2.105595
 C   -4.359284   -0.632965   -1.426666
 C   -5.838376   -0.478637   -1.258093
 C   -6.137721   -0.241755    0.227115
 C   -5.574597   -1.376734    1.077985
 C   -4.073043   -1.533143    0.857086
 C   -3.796382   -1.778850   -0.636373
 N   -2.390594   -1.940295   -0.915940
 N   -1.604697   -0.827073   -1.217509
 C   -0.286798   -1.188641   -1.098664
 O    0.668584   -0.492015   -1.362298
 N   -0.287443   -2.465799   -0.585602
 C    0.874813   -3.290361   -0.337227
 C    1.667533   -2.952005    0.929291
 C    0.898097   -3.099378    2.255218
 C   -0.173655   -2.038315    2.536291
 C    0.423629   -0.652742    2.503690
 O    1.198162   -0.209605    3.304118
 O   -0.046227    0.078028    1.476783
 N    2.285179   -1.647265    0.812842
 C    3.473089   -1.399576    1.416261
 O    4.026374   -2.211573    2.125185
 C    4.042080   -0.025491    1.093609
 C    4.580240   -0.052337   -0.309682
 C    3.814914    0.402633   -1.376313
 C    4.307630    0.346833   -2.668259
 C    5.568370   -0.170362   -2.911026
 C    6.333408   -0.635589   -1.854248
 C    5.842203   -0.577228   -0.562710
 C   -1.589321   -2.941405   -0.454467
 O   -1.928446   -4.021590   -0.038294
 H    0.997775    3.331879   -2.244457
 H    2.532900    3.353967   -1.322487
 H    1.351555    4.679393   -1.168466
 H   -1.049494    3.826525   -0.908118
 H   -2.326250    3.539251    1.246082
 H   -0.949240    2.690308    1.952638
 H   -0.648657    5.959667    3.143354
 H   -1.278611    1.043719    0.065824
 H   -1.785597   -0.121317   -3.197431
 H   -4.027389    1.033403   -2.660122
 H   -6.344787   -1.389447   -1.585506
 H   -6.204510    0.355160   -1.856791
 H   -7.215477   -0.164842    0.375671
 H   -5.686618    0.704280    0.534213
 H   -6.074787   -2.311398    0.816102
 H   -5.768012   -1.178764    2.133268
 H   -3.690098   -2.375697    1.434930
 H   -3.550579   -0.626320    1.172828
 H   -4.281337   -2.717630   -0.931589
 H    1.543996   -3.199812   -1.198972
 H    0.501519   -4.315342   -0.266619
 H    2.487764   -3.685027    0.983972
 H    0.431949   -4.085312    2.281242
 H    1.643090   -3.042103    3.050987
 H   -0.560680   -2.215494    3.541674
 H   -0.996147   -2.102308    1.826862
 H    0.504768    0.898926    1.369881
 H    1.938182   -1.011175    0.106605
 H    3.259763    0.726490    1.193324
 H    4.839473    0.179639    1.807822
 H    2.826016    0.797190   -1.200220
 H    3.701569    0.706510   -3.487355
 H    5.953365   -0.212652   -3.919616
 H    7.316032   -1.045752   -2.038018
 H    6.436063   -0.946095    0.260815
