78 
3kjf_ligand_ani.xyz
 C    1.574966    3.585357   -1.060707
 C    0.725271    3.020053    0.033949
 O    1.204297    2.552008    1.057984
 C   -0.802991    3.037524   -0.145986
 C   -1.482553    3.494273    1.137476
 C   -1.022323    4.879573    1.521518
 O   -0.254110    5.555395    0.876507
 O   -1.563975    5.299602    2.676523
 N   -1.262962    1.723878   -0.553676
 C   -1.383099    1.416978   -1.868865
 O   -1.131722    2.195319   -2.778201
 C   -1.938059    0.013801   -2.158853
 C   -3.437498    0.045093   -2.270641
 C   -4.264910   -0.735941   -1.578138
 C   -5.740644   -0.502350   -1.449543
 C   -6.081759   -0.205872    0.019220
 C   -5.604113   -1.334388    0.941402
 C   -4.104805   -1.590406    0.771130
 C   -3.758697   -1.856991   -0.704821
 N   -2.328237   -2.038739   -0.908142
 N   -1.516955   -0.929121   -1.110700
 C   -0.212649   -1.385153   -1.076810
 O    0.754716   -0.783807   -1.499776
 N   -0.249435   -2.639630   -0.494919
 C    0.891038   -3.497310   -0.219594
 C    1.738704   -3.074113    0.979098
 C    1.014024   -3.116240    2.338429
 C   -0.030514   -2.030590    2.617901
 C    0.556340   -0.637182    2.653370
 O    1.486397   -0.322921    3.363902
 O   -0.068953    0.227089    1.837542
 N    2.354931   -1.793130    0.701344
 C    3.488198   -1.411185    1.341886
 O    4.099228   -2.141678    2.109574
 C    3.945739    0.004327    1.014444
 C    4.490169    0.087218   -0.394795
 C    3.670873    0.432901   -1.472763
 C    4.179487    0.457937   -2.768865
 C    5.512963    0.133377   -3.002983
 C    6.333190   -0.222220   -1.936526
 C    5.819865   -0.248067   -0.643327
 C   -1.579009   -3.045492   -0.353511
 O   -1.979562   -4.064346    0.168392
 H    1.139397    3.320425   -2.029914
 H    2.592413    3.200920   -0.978378
 H    1.588890    4.675016   -0.958453
 H   -1.041698    3.725910   -0.961137
 H   -2.569572    3.501617    1.007559
 H   -1.254974    2.806709    1.959094
 H   -1.201450    6.187009    2.838780
 H   -1.382478    0.996105    0.142139
 H   -1.495265   -0.267251   -3.123532
 H   -3.813043    0.807132   -2.946103
 H   -6.276766   -1.408102   -1.766741
 H   -6.064072    0.315287   -2.105336
 H   -7.158569   -0.037068    0.138430
 H   -5.575241    0.725108    0.308581
 H   -6.161520   -2.255705    0.714279
 H   -5.823976   -1.089754    1.986901
 H   -3.764256   -2.445965    1.363730
 H   -3.527120   -0.710540    1.088131
 H   -4.230919   -2.795147   -1.004423
 H    1.532017   -3.512731   -1.105344
 H    0.480829   -4.496518   -0.062311
 H    2.553687   -3.801905    1.065226
 H    0.526974   -4.096543    2.423645
 H    1.788462   -3.064910    3.109776
 H   -0.444123   -2.210365    3.617961
 H   -0.860587   -2.077804    1.906419
 H    0.451980    1.062741    1.840300
 H    1.952257   -1.207281   -0.027595
 H    3.108889    0.702615    1.144112
 H    4.712750    0.259901    1.752154
 H    2.615315    0.650941   -1.320249
 H    3.526699    0.722484   -3.597787
 H    5.909458    0.152399   -4.014552
 H    7.374339   -0.481967   -2.111802
 H    6.456113   -0.538345    0.190953
