51 
3kjq_ligand_dft.xyz
 C    3.568095   -0.227876    2.391458
 C    3.006828    0.259939    1.093404
 O    2.790025    1.436844    0.866752
 C    2.657950   -0.815415    0.040471
 C    3.082545   -0.390886   -1.360713
 C    4.574207   -0.190960   -1.431301
 O    5.334290   -0.309964   -0.497925
 O    4.981151    0.137782   -2.665934
 N    1.227090   -1.061421    0.073496
 C    0.699187   -1.958438    0.943091
 O    1.358679   -2.718287    1.632366
 C   -0.834740   -2.092274    0.953553
 C   -1.183392   -3.257629    0.066208
 C   -2.064321   -3.178031   -0.924767
 C   -2.921991   -1.971817   -1.208687
 C   -4.381391   -2.392181   -1.392327
 N   -2.800350   -1.057269   -0.073724
 N   -1.490994   -0.903150    0.449966
 C   -1.448990    0.291872    1.150704
 O   -0.575729    0.643994    1.914021
 N   -2.587233    0.979407    0.768162
 C   -2.779938    2.405154    0.987401
 C   -2.678270    3.216676   -0.310908
 C   -1.491746    2.815497   -1.191949
 C   -0.170523    2.918682   -0.459596
 O    0.122129    3.821309    0.285405
 O    0.649341    1.888141   -0.732655
 C   -3.388921    0.198861   -0.053575
 O   -4.391889    0.557171   -0.634755
 H    2.932858   -1.030335    2.782122
 H    3.648826    0.591453    3.106400
 H    4.555513   -0.660876    2.195099
 H    3.149610   -1.750350    0.315500
 H    2.591385    0.540996   -1.661022
 H    2.787552   -1.151267   -2.091040
 H    5.943533    0.257869   -2.619240
 H    0.623590   -0.345440   -0.315707
 H   -1.107777   -2.297483    1.996718
 H   -0.629627   -4.169731    0.263698
 H   -2.236863   -4.036509   -1.568250
 H   -2.568282   -1.472684   -2.124731
 H   -4.447739   -3.103352   -2.221621
 H   -5.009994   -1.528826   -1.610533
 H   -4.746201   -2.879228   -0.483299
 H   -3.753414    2.560680    1.458645
 H   -1.999624    2.700966    1.692178
 H   -2.585000    4.270745   -0.033531
 H   -3.598414    3.096521   -0.888155
 H   -1.442612    3.492167   -2.053045
 H   -1.614842    1.805768   -1.593459
 H    1.456434    1.962984   -0.165029
