58 
3kl6_ligand_xtb.xyz
 C   -3.626730   -2.180768   -0.062082
 C   -2.635142    0.378971    0.888809
 C   -3.100432    2.475165   -0.158344
 C    0.068684    4.387784   -0.350876
 C    0.967299    3.506064    0.272716
 C   -0.836969    1.933350    0.590670
 C    0.447639   -3.099722   -1.391344
 C    2.438500   -1.642903   -1.008057
 C    0.481981   -0.904105   -2.394727
 C    4.855437   -1.712303   -0.419623
 O   -2.516906   -3.906348   -1.393464
 C   -2.327053   -2.748695   -0.602608
 S   -3.259392   -1.204351    1.443524
 O   -4.511049   -0.989179    2.122403
 O   -2.219151   -1.895794    2.161448
 C   -3.542268    1.267276    0.300687
 C   -1.740543    2.835673   -0.031877
 C   -1.253888    4.073086   -0.501649
Cl    0.665937    5.903773   -0.931976
 C    0.517398    2.302585    0.736801
 C   -1.316871    0.686381    1.043166
 C   -1.582139   -1.660362   -1.400570
 O   -2.153048   -0.630838   -1.728130
 N   -0.318567   -1.931873   -1.759607
 C    1.530953   -2.711308   -0.385782
 C    1.588030   -0.445653   -1.447199
 N    3.519066   -1.243675   -0.115714
 C    5.893657   -0.788651    0.203644
 C    5.654515   -0.755282    1.705888
 N    4.270167   -0.424248    1.929790
 C    3.225638   -0.686329    1.096681
 O    2.092381   -0.380920    1.435877
 H   -4.300371   -2.972977    0.255670
 H   -4.111741   -1.513278   -0.770526
 H   -3.782413    3.170345   -0.624898
 H    2.001523    3.794534    0.378427
 H   -0.200297   -3.876309   -0.993514
 H    0.917074   -3.489264   -2.303877
 H    2.918090   -2.072203   -1.896821
 H    0.910542   -1.312564   -3.317331
 H   -0.178143   -0.071371   -2.641348
 H    4.976349   -1.725909   -1.506406
 H    5.001196   -2.737566   -0.048407
 H   -3.104466   -3.684821   -2.125587
 H   -1.725577   -3.061389    0.257620
 H   -4.578273    0.975693    0.232258
 H   -1.932596    4.764056   -0.977921
 H    1.187313    1.606776    1.219676
 H   -0.642600   -0.016074    1.509582
 H    2.116850   -3.591277   -0.114969
 H    1.070820   -2.305132    0.515213
 H    1.138603    0.008953   -0.566904
 H    2.214623    0.298056   -1.941439
 H    5.774056    0.215362   -0.205857
 H    6.898583   -1.144616   -0.019298
 H    6.282726    0.001666    2.183836
 H    5.900710   -1.731730    2.148326
 H    3.998103   -0.061796    2.829406
