34 
3kmx_ligand_xtb.xyz
 C    1.197858    0.944204   -0.407007
 N   -4.357155   -1.994025    1.585689
 O    2.428598    1.320837    0.011100
 S   -4.007264   -0.058953   -0.128390
Cl    0.444744    2.939741    1.237625
 C    0.913038   -0.071309   -1.313055
 N   -2.423518   -2.266168    0.413135
 C   -0.393450   -0.350039   -1.677156
 C   -1.453763    0.374471   -1.153590
 C   -1.181828    1.395961   -0.249722
 C    0.117608    1.672027    0.115769
 C    3.567410    0.590721   -0.397092
 C    3.727570   -0.727121    0.362440
 C    4.973443   -1.484974   -0.087850
 C    5.134512   -2.796803    0.670187
 C   -2.864962    0.071661   -1.550437
 C   -3.451452   -1.597392    0.663334
 H   -4.071708   -2.725920    2.214080
 H   -5.044077   -1.333694    1.904524
 H    1.706049   -0.658843   -1.746461
 H   -1.799459   -1.929268   -0.304334
 H   -0.579501   -1.144914   -2.385864
 H   -1.990437    1.968365    0.177914
 H    4.408126    1.252748   -0.171167
 H    3.550338    0.417870   -1.480546
 H    2.843225   -1.349594    0.209603
 H    3.793055   -0.506589    1.429618
 H    5.854550   -0.859995    0.072774
 H    4.905528   -1.690547   -1.158979
 H    5.228437   -2.610832    1.737464
 H    4.271255   -3.438823    0.509945
 H    6.023157   -3.325235    0.333832
 H   -3.286407    0.885389   -2.143682
 H   -2.936518   -0.856262   -2.119604
