29 
3kmy_ligand_dft.xyz
 C   -3.255483    1.920933   -0.165151
 N   -3.643376    0.777758    0.405471
Cl    4.461441    0.170423   -0.730922
 C   -2.965647   -0.332522    0.108502
 N   -3.367023   -1.476472    0.787440
 C   -1.869240   -0.361580   -0.782090
 C   -1.503511    0.846015   -1.357566
 C   -2.198605    2.015843   -1.056066
 C   -1.077941   -1.621394   -1.024205
 C   -0.196150   -2.018538    0.183315
 C    0.809322   -0.944898    0.517793
 C    0.506374    0.055428    1.443678
 C    1.410018    1.080889    1.699384
 C    2.632866    1.129637    1.036990
 C    2.928156    0.131979    0.115876
 C    2.034503   -0.898262   -0.149270
 H   -3.831531    2.802146    0.109670
 H   -4.275082   -1.361981    1.218316
 H   -3.272960   -2.350421    0.289437
 H   -0.653835    0.872392   -2.035488
 H   -1.922440    2.967792   -1.495213
 H   -0.435267   -1.477243   -1.900163
 H   -1.740251   -2.463328   -1.270564
 H    0.318926   -2.956818   -0.052149
 H   -0.838878   -2.205828    1.049815
 H   -0.450004    0.032457    1.958541
 H    1.162226    1.853689    2.420487
 H    3.345410    1.923893    1.230024
 H    2.294008   -1.664123   -0.874557
