48 
3kn0_ligand_ani.xyz
 C   -2.899235   -1.960866   -2.115522
 N   -1.389832   -2.588954   -0.365815
 O    3.872387   -1.082759   -0.012222
 C   -1.872385   -2.733911   -1.601154
 N   -1.353724   -1.542515    1.714947
 C   -1.941975   -1.665093    0.425684
 N    1.252616   -0.366369    1.530049
 C   -2.982441   -0.813330    0.012860
 C   -3.446177   -0.987625   -1.286132
 C   -3.578322    0.278487    0.876598
 C   -3.353994    1.706949    0.342052
 C   -1.899305    2.059562    0.106024
 C   -0.913333    1.604597    0.978179
 C    0.441446    1.828780    0.738149
 C    0.814271    2.611168   -0.352616
 C   -0.157994    3.111706   -1.214129
 C   -1.501965    2.826017   -0.992479
 C    1.445190    1.125756    1.617366
 C    2.750755   -0.510764   -0.533099
 C    1.453343   -0.846197    0.116778
 C    3.086288    0.258524   -1.602815
 C    4.509935    0.168097   -1.743580
 C    4.926453   -0.658421   -0.753749
 C    2.105872   -1.076662    2.509092
 H   -3.257601   -2.108117   -3.128586
 H   -1.405895   -3.508840   -2.209452
 H   -0.898298   -2.424647    1.943317
 H   -2.033483   -1.317818    2.435665
 H    0.258800   -0.581725    1.754200
 H   -4.251726   -0.351474   -1.652195
 H   -3.206985    0.229426    1.904263
 H   -4.661642    0.115998    0.954360
 H   -3.909549    1.839237   -0.593887
 H   -3.802980    2.410723    1.057069
 H   -1.189454    1.042036    1.867617
 H    1.864788    2.829455   -0.529725
 H    0.131443    3.718753   -2.069464
 H   -2.250421    3.208977   -1.683007
 H    1.329188    1.418069    2.668224
 H    2.469070    1.360512    1.306486
 H    1.308158   -1.930912    0.117190
 H    0.657152   -0.410247   -0.486272
 H    2.400950    0.820770   -2.221434
 H    5.132083    0.647433   -2.487594
 H    5.891565   -1.039420   -0.452562
 H    2.115296   -2.146689    2.289862
 H    1.714628   -0.925346    3.520906
 H    3.133838   -0.709862    2.473488
