43 
3koo_ligand_ani.xyz
Cl    6.243612    3.120700    0.109085
 C    5.181082    1.746501    0.151696
 C    3.835360    1.924769    0.439937
 C    2.997123    0.817965    0.469843
 C    3.467796   -0.471204    0.217507
 C    2.562085   -1.688848    0.229461
 N    1.181840   -1.405405    0.561979
 C    0.258951   -1.255651   -0.452538
 O    0.594208   -1.256686   -1.630840
 N   -1.048320   -1.086392   -0.060691
 C   -2.043733   -0.857587   -1.103162
 C   -3.319859   -1.633325   -0.794661
 C   -3.821617   -1.369064    0.639103
 C   -2.895575   -0.427406    1.408920
 C   -1.457834   -0.929426    1.330829
 O   -5.208516   -0.976542    0.719196
 C   -5.622535    0.191607    0.224011
 N   -4.797041    0.912961   -0.533134
 C   -5.290803    2.063080   -1.005911
 C   -6.576584    2.491050   -0.735442
 C   -7.340716    1.645263    0.065331
 N   -6.884682    0.499271    0.548040
 C    4.830525   -0.606401   -0.065913
Cl    5.500975   -2.182226   -0.388241
 C    5.693605    0.481697   -0.103665
 H    3.447197    2.918034    0.638928
 H    1.946357    0.957678    0.697321
 H    2.957120   -2.426664    0.935478
 H    2.581552   -2.147531   -0.764283
 H    0.864918   -1.623400    1.491823
 H   -1.606836   -1.184254   -2.046312
 H   -2.251350    0.215651   -1.192604
 H   -3.103305   -2.703586   -0.898111
 H   -4.093261   -1.386619   -1.524763
 H   -3.844553   -2.321712    1.171462
 H   -3.211985   -0.381605    2.455887
 H   -2.949300    0.586794    1.008375
 H   -0.805656   -0.209325    1.840982
 H   -1.374313   -1.888964    1.864675
 H   -4.621083    2.658287   -1.623281
 H   -6.964679    3.425753   -1.123353
 H   -8.366460    1.898762    0.330249
 H    6.745888    0.343290   -0.329100
