19 
3kpw_ligand_xtb.xyz
 N   -1.877742    1.968350   -0.047254
 C   -1.391034    0.694737    0.004037
 N   -2.294025   -0.261678    0.000672
 C   -1.890894   -1.538692   -0.008098
 C   -0.580976   -1.922860    0.001921
 C    0.420391   -0.925322    0.006439
 C    1.795564   -1.232558    0.009503
 C    2.732949   -0.237256    0.002891
 C    2.336232    1.106374   -0.009071
 C    1.006969    1.436516   -0.010205
 C    0.019488    0.435117    0.000684
 H   -2.871176    2.046116    0.095280
 H   -1.309802    2.728144    0.282018
 H   -2.695418   -2.262691   -0.014328
 H   -0.300692   -2.964628    0.004353
 H    2.092685   -2.271450    0.014716
 H    3.785817   -0.479266    0.003952
 H    3.087635    1.882278   -0.018687
 H    0.721185    2.478455   -0.029833
