19 
3kpw_ligand_ani.xyz
 N   -1.821373    2.013803    0.000379
 C   -1.394129    0.695115    0.001624
 N   -2.315417   -0.237987   -0.043573
 C   -1.907842   -1.535427   -0.036274
 C   -0.603001   -1.929675    0.008115
 C    0.414816   -0.937917    0.023137
 C    1.798008   -1.247509    0.054401
 C    2.735068   -0.247497    0.023844
 C    2.337957    1.105429   -0.047284
 C    1.004189    1.433128   -0.068721
 C    0.020713    0.417815   -0.009298
 H   -2.820782    2.090101    0.146267
 H   -1.297596    2.632286    0.604141
 H   -2.711366   -2.269199   -0.064279
 H   -0.336074   -2.981997    0.022207
 H    2.100535   -2.290318    0.097180
 H    3.794148   -0.491932    0.044220
 H    3.092457    1.886698   -0.084287
 H    0.701539    2.472874   -0.160360
