21 
3kqa_ligand_ani.xyz
 C   -0.448564   -1.734148   -0.332189
 C    1.014511   -1.328636   -0.110833
 C    1.320099    0.048797   -0.704821
 C    0.348922    1.078857   -0.127136
 C   -1.036207    0.671230   -0.035771
 C   -1.418623   -0.623586   -0.128287
 C    0.767662    2.277511    0.289846
 O   -2.023749    1.605463    0.203755
 O    1.393547   -1.332317    1.260261
 O    2.665044    0.383406   -0.471481
 O   -2.714807   -0.993830   -0.070100
 H   -0.566487   -2.119358   -1.357466
 H   -0.697709   -2.572885    0.331267
 H    1.671032   -2.066297   -0.581820
 H    1.183704    0.009454   -1.792498
 H    0.083963    3.005189    0.717596
 H    1.818017    2.541815    0.229195
 H   -1.786419    2.424692   -0.249128
 H    0.815136   -0.721338    1.737806
 H    2.870187    0.043460    0.414660
 H   -3.238517   -0.186657    0.066056
