19 
3kqp_ligand_ani.xyz
 C   -0.308096   -0.625489   -0.002845
 N    3.408695   -0.642288   -0.071900
 C    2.084421   -0.206439   -0.007699
 C    1.814182    1.192372   -0.003947
 C    0.531494    1.658377   -0.001111
 C   -0.573000    0.764675    0.000044
 N   -1.833327    1.284211    0.003849
 C   -2.833472    0.437453    0.006007
 C   -2.685983   -0.972788    0.003929
 C   -1.424667   -1.499802   -0.000741
 C    1.029865   -1.090809   -0.008275
 H    4.082065    0.007016    0.306930
 H    3.565240   -1.580557    0.269729
 H    2.651297    1.888065   -0.009749
 H    0.314746    2.721917    0.001912
 H   -3.833850    0.871000    0.009980
 H   -3.568298   -1.606912    0.005771
 H   -1.261692   -2.575680   -0.002906
 H    1.214454   -2.163624   -0.017479
