19 
3kqp_ligand_dft.xyz
 C   -0.306179   -0.631621    0.004650
 N    3.409896   -0.635165    0.067336
 C    2.086116   -0.207033    0.008352
 C    1.813009    1.191838    0.009271
 C    0.529550    1.659650    0.001785
 C   -0.572142    0.764236   -0.000451
 N   -1.830779    1.282714   -0.007020
 C   -2.836332    0.439156   -0.007846
 C   -2.687778   -0.968546   -0.002752
 C   -1.426191   -1.500576    0.003123
 C    1.030942   -1.094861    0.004893
 H    4.084080   -0.000176   -0.336036
 H    3.566043   -1.586592   -0.234332
 H    2.647449    1.888838    0.023270
 H    0.315977    2.723520   -0.000003
 H   -3.833944    0.875259   -0.013209
 H   -3.567591   -1.603949   -0.003503
 H   -1.269898   -2.576531    0.007343
 H    1.218095   -2.166671    0.008110
