17 
3kqs_ligand_xtb.xyz
 N   -1.158694    1.104576   -0.000290
 C    0.157215    0.703266   -0.000164
 C    1.338901    1.414444    0.000098
 C    2.523692    0.688224    0.000244
 C    2.521939   -0.697519   -0.000051
 C    1.334677   -1.420123   -0.000152
 C    0.155971   -0.704616   -0.000059
 N   -1.164794   -1.100633    0.000037
 C   -1.996865    0.013924    0.000001
 N   -3.258728    0.111872    0.000173
 H   -1.503481    2.046890   -0.000442
 H    1.342684    2.493174    0.000201
 H    3.464450    1.217253    0.000646
 H    3.461036   -1.229630   -0.000202
 H    1.336818   -2.499254   -0.000233
 H   -1.487999   -2.051851    0.000692
 H   -3.751169   -0.772897    0.000402
