17 
3kqs_ligand_ani.xyz
 N   -1.160572    1.106202   -0.000330
 C    0.167679    0.704062   -0.000204
 C    1.354231    1.419499    0.000163
 C    2.540717    0.691022    0.000314
 C    2.534760   -0.708453    0.000086
 C    1.342019   -1.427143   -0.000131
 C    0.163272   -0.700470   -0.000177
 N   -1.173909   -1.094386   -0.000711
 C   -2.024102    0.014995   -0.000056
 N   -3.295326    0.112724    0.000529
 H   -1.507820    2.050462   -0.000922
 H    1.364288    2.507305    0.000353
 H    3.489171    1.222531    0.000624
 H    3.479079   -1.247212    0.000077
 H    1.348397   -2.515064   -0.000293
 H   -1.505207   -2.043544    0.003230
 H   -3.730720   -0.807325    0.000545
