17 
3kqs_ligand_dft.xyz
 N   -1.162436    1.101244   -0.000014
 C    0.164328    0.703935   -0.000079
 C    1.349747    1.417038    0.000001
 C    2.544761    0.689333   -0.000062
 C    2.541861   -0.702677    0.000267
 C    1.341872   -1.422880    0.000055
 C    0.162619   -0.701617   -0.000138
 N   -1.171594   -1.093691   -0.000449
 C   -2.022201    0.012076   -0.000035
 N   -3.294846    0.114358    0.000354
 H   -1.516603    2.042499   -0.000261
 H    1.353190    2.502283    0.000010
 H    3.489034    1.224384   -0.000054
 H    3.483151   -1.242809    0.000441
 H    1.339041   -2.508351    0.000085
 H   -1.504330   -2.042324    0.000236
 H   -3.739264   -0.800306    0.000252
