20 
3kqt_ligand_xtb.xyz
 C   -1.600850   -0.636870    0.006157
 C   -1.845349    1.857612   -0.027190
 N   -1.091592    0.637887    0.005194
 C    0.280629    0.491601    0.004137
 C    1.320135    1.402154    0.013334
 C    2.605773    0.891484    0.009107
 C    2.842929   -0.481224   -0.001304
 C    1.807995   -1.396025   -0.007727
 C    0.510373   -0.904614   -0.004349
 N   -0.692118   -1.570263    0.001272
 N   -2.951460   -0.863028   -0.062568
 H   -2.659048    1.773257   -0.750202
 H   -2.263778    2.092970    0.957434
 H   -1.189841    2.672293   -0.329075
 H    1.145065    2.468476    0.024863
 H    3.443974    1.572673    0.015045
 H    3.863708   -0.834720   -0.003493
 H    1.989622   -2.458625   -0.014813
 H   -3.531692   -0.228054    0.464529
 H   -3.181633   -1.835157    0.075437
