20 
3kqt_ligand_ani.xyz
 C   -1.602265   -0.635343    0.009385
 C   -1.855614    1.860327   -0.079849
 N   -1.091128    0.638960    0.022611
 C    0.290313    0.488701    0.016878
 C    1.334767    1.409171    0.040615
 C    2.623132    0.894618    0.028898
 C    2.855556   -0.491486   -0.006225
 C    1.807427   -1.398992   -0.027212
 C    0.505636   -0.901843   -0.011952
 N   -0.706834   -1.582789   -0.024465
 N   -2.976694   -0.833304   -0.029618
 H   -2.706852    1.701108   -0.747223
 H   -2.221374    2.193152    0.897722
 H   -1.222425    2.642056   -0.504022
 H    1.150884    2.480227    0.071695
 H    3.469809    1.575232    0.045417
 H    3.877789   -0.860386   -0.016248
 H    1.980763   -2.470575   -0.054764
 H   -3.475284   -0.348006    0.706593
 H   -3.184428   -1.823800   -0.002088
