69 
3krd_ligand_ani.xyz
 N   -2.312560   -1.119027   -0.292658
 C   -3.530277   -0.340210   -0.523325
 C   -3.807876    0.664577    0.603898
 O   -4.199588    0.069792    1.814725
 C   -4.686455   -1.319611   -0.735466
 C   -6.065415   -0.699368   -0.996355
 C   -6.057248    0.274711   -2.175784
 C   -7.089302   -1.810976   -1.229896
 N    1.263526   -0.907707   -0.796844
 C    0.101410   -1.574198   -0.246313
 C   -1.073424   -0.589529   -0.373761
 O   -0.892216    0.617429   -0.550194
 C    0.327782   -2.040435    1.206722
 C    0.499248   -0.906877    2.216645
 C   -0.839373   -0.330937    2.644284
 O   -1.818761   -1.066010    2.780124
 N   -0.869511    0.992218    2.913358
 N    3.700451    0.635153   -0.763301
 C    3.599455   -0.624157   -1.488688
 C    2.454329   -1.523770   -0.966339
 O    2.630865   -2.715990   -0.720178
 C    4.934387   -1.367656   -1.445067
 C    5.408868   -1.565645   -0.011499
 O    5.837058   -0.627229    0.649694
 N    5.331477   -2.839785    0.459175
 C    0.658532    3.934155   -0.615944
 C    1.558811    3.271398    0.426969
 C   -0.747837    4.216957   -0.094680
 C    2.945481    2.874921   -0.114966
 O    0.930181    2.142675    1.014269
 C    2.866167    1.663258   -1.028146
 O    2.034838    1.591664   -1.936942
 H   -2.416339   -2.049188    0.087451
 H   -3.353987    0.244489   -1.433826
 H   -2.926909    1.311797    0.722095
 H   -4.639088    1.313829    0.300791
 H   -3.433325   -0.401640    2.193426
 H   -4.758228   -1.964086    0.153069
 H   -4.422909   -1.966797   -1.584192
 H   -6.369296   -0.150342   -0.092724
 H   -5.411286    1.140916   -1.997132
 H   -5.705099   -0.224677   -3.088022
 H   -7.066294    0.653550   -2.372784
 H   -7.124013   -2.507468   -0.384731
 H   -8.095148   -1.400362   -1.371806
 H   -6.833382   -2.385720   -2.128961
 H    1.099070   -0.000462   -1.225255
 H   -0.125385   -2.471462   -0.839510
 H    1.225659   -2.661427    1.189389
 H   -0.510215   -2.669375    1.522179
 H    0.960624   -1.314345    3.126348
 H    1.163066   -0.121909    1.840894
 H   -1.762113    1.394911    3.168212
 H   -0.161059    1.604128    2.516693
 H    4.399966    0.696607   -0.028196
 H    3.356463   -0.367048   -2.527015
 H    5.686204   -0.754490   -1.950909
 H    4.853733   -2.319947   -1.974211
 H    4.583842   -3.406499    0.076776
 H    5.522469   -2.947732    1.446021
 H    1.138246    4.869002   -0.932943
 H    0.616401    3.285348   -1.497454
 H    1.723566    3.985488    1.247494
 H   -1.263054    3.281380    0.152871
 H   -0.725643    4.839562    0.807254
 H   -1.344827    4.737594   -0.849847
 H    3.613368    2.663654    0.728653
 H    3.370514    3.715098   -0.679654
 H    0.418141    1.683357    0.315724
