53 
3krj_ligand_ani.xyz
 N   -6.543120    1.812092    0.349686
 C   -5.894796    0.860633    0.224389
 C   -5.144764   -0.348104    0.089407
 C   -5.662448   -1.650454    0.080158
 N   -4.650233   -2.511541   -0.027570
 C   -3.554638   -1.734656   -0.084070
 N   -3.793098   -0.415144   -0.023091
 C   -2.156355   -2.247723   -0.179726
 O   -1.833880   -3.421157   -0.157269
 N   -1.330599   -1.176494   -0.287801
 C    0.067748   -1.076801   -0.168011
 C    0.895267   -2.188492   -0.283562
 C    2.274023   -2.028788   -0.227164
 C    2.861196   -0.771811   -0.058080
 C    2.015352    0.330171    0.063562
 C    0.629302    0.203795    0.030070
 C   -0.263752    1.391319    0.110158
 C   -1.124437    1.546200    1.124644
 C   -2.271683    2.523655    1.103794
 C   -2.512631    3.051710   -0.313202
 C   -1.198889    3.479956   -0.962148
 C   -0.282151    2.267379   -1.122655
 C    4.370249   -0.615570   -0.005221
 C    4.853294   -0.220400    1.405183
 C    6.220629    0.478206    1.361154
 N    7.038423   -0.014914    0.207725
 C    6.421511    0.376845   -1.111291
 C    4.888076    0.406185   -1.025580
 H   -6.702392   -1.951600    0.149390
 H   -1.859614   -0.312214   -0.297385
 H    0.445874   -3.166361   -0.419497
 H    2.904503   -2.912515   -0.317950
 H    2.436663    1.327482    0.195171
 H   -1.055113    0.878330    1.982271
 H   -2.053344    3.347194    1.798152
 H   -3.169661    2.032477    1.500090
 H   -3.227503    3.881935   -0.292203
 H   -2.974493    2.255052   -0.916568
 H   -0.711066    4.241740   -0.338319
 H   -1.381299    3.945201   -1.938369
 H   -0.635627    1.641937   -1.958470
 H    0.743123    2.558580   -1.386700
 H    4.803171   -1.592656   -0.260357
 H    4.879322   -1.112175    2.043568
 H    4.129302    0.465212    1.860046
 H    6.774010    0.324634    2.285975
 H    6.074299    1.552358    1.238056
 H    7.061360   -1.061198    0.251382
 H    8.002759    0.353406    0.263517
 H    6.746395   -0.350482   -1.854758
 H    6.802760    1.353603   -1.414978
 H    4.543616    1.409858   -0.744079
 H    4.463766    0.201932   -2.013337
