56 
3kwj_ligand_ani.xyz
 N    0.058744   -1.333991    0.167263
 C    2.153681   -0.411203   -0.733644
 C    0.025169    0.944648   -0.832170
 C    1.531687   -1.268199    0.367545
 C   -2.771850   -1.264288    0.218419
 C    1.541415    0.999022   -0.673120
 C    3.663238   -0.343945   -0.676273
 C   -4.916222   -0.134623   -0.018420
 C    4.316077    0.155665    0.453445
 C    4.428103   -0.757639   -1.768723
 C    6.392292    0.778712    1.729813
 C   -6.950280   -1.344276   -0.188088
 F    5.472913    1.090663    2.715493
 C    5.704835    0.233751    0.504007
 C    6.454529   -0.188328   -0.594929
 C    5.818050   -0.681141   -1.729505
 N    2.199993    1.866111   -1.700865
 C   -0.599952    0.065100    0.252265
 C   -2.111613   -0.036518    0.162486
 C   -2.874807    1.131823    0.059114
 C   -2.010596   -2.559609    0.392067
 C   -0.653250   -2.313464    1.026448
 C   -4.166494   -1.298919    0.106653
 O   -6.272000   -0.107730   -0.149693
 C   -4.258043    1.111622   -0.014420
 O   -4.887925    2.311696   -0.170645
 C   -6.050666    2.590442    0.602653
 H   -0.089939   -1.654681   -0.814783
 H    1.860589   -0.872917   -1.685634
 H   -0.391559    1.953088   -0.785389
 H   -0.243370    0.522527   -1.810059
 H    1.949628   -2.279343    0.352990
 H    1.749660   -0.844654    1.356686
 H    1.768884    1.421645    0.309336
 H    3.741652    0.505515    1.306969
 H    3.922720   -1.123114   -2.659937
 H    6.954028    1.692323    1.493373
 H    7.095027    0.044055    2.144639
 H   -6.620646   -1.956730   -1.037154
 H   -8.008481   -1.107578   -0.305740
 H   -6.806876   -1.905908    0.743416
 H    7.541068   -0.128983   -0.564623
 H    6.403511   -1.002371   -2.586535
 H    1.904257    1.562845   -2.650926
 H    3.224582    1.762580   -1.613552
 H    1.948973    2.859087   -1.560117
 H   -0.329222    0.465060    1.238615
 H   -2.404238    2.111313    0.046015
 H   -2.590186   -3.272686    0.984999
 H   -1.838229   -3.024735   -0.589630
 H   -0.074404   -3.239383    1.106396
 H   -0.761817   -1.897086    2.033738
 H   -4.665225   -2.262235    0.129821
 H   -6.116159    3.680125    0.654019
 H   -5.955301    2.185039    1.617275
 H   -6.948702    2.182867    0.130531
