53 
3l38_ligand_ani.xyz
 C   -6.031680    0.849576   -0.819574
 N    6.980390    1.010315    1.271871
 O    4.845364   -1.810403    0.497448
Cl   -3.958260   -1.989963    2.012775
 C   -6.594295    0.538958    0.413778
 N    7.048274    0.622148   -1.072575
 C   -1.352895    3.096954   -1.723195
 N   -0.664885    2.471385    0.889546
 C   -4.814265    0.289355   -1.180815
 N   -1.616040   -0.899811   -0.208706
 C    1.529556   -0.451806   -0.378954
 N    0.055749    4.629292    1.289673
 C    1.463322   -2.846617   -0.303264
 C    2.882472   -0.463659   -0.064399
 C    2.808609   -2.875367    0.019284
 C   -5.938700   -0.329194    1.275871
 C   -1.264810   -2.401763   -1.823467
 C   -2.635673   -2.069181   -1.812988
 C   -1.561630    1.810947   -1.232749
 C   -0.793955    4.060860   -0.909221
 C    6.129762   -0.005553    1.409324
 C    6.191702   -0.389183   -0.927570
 C    7.392054    1.272999    0.034677
 C    0.788390   -1.633752   -0.483279
 C   -4.118920   -0.576765   -0.331085
 C    3.521612   -1.684296    0.136518
 C    5.690655   -0.741626    0.318063
 C   -4.717124   -0.880255    0.903609
 C   -0.640482   -1.661724   -0.835900
 C   -2.841589   -1.160220   -0.795102
 C   -1.196288    1.545530    0.080772
 C   -0.461679    3.697115    0.406019
 C   -1.383770    0.184803    0.726264
 H   -6.540272    1.525039   -1.500643
 H   -7.547743    0.969286    0.706461
 H   -1.626516    3.341630   -2.747976
 H   -4.361978    0.546165   -2.136793
 H    1.038034    0.498592   -0.559567
 H    0.479741    4.205755    2.103609
 H    0.603724    5.373376    0.882479
 H    0.916565   -3.782529   -0.394314
 H    3.424145    0.470406    0.029928
 H    3.329404   -3.813129    0.185683
 H   -6.364702   -0.586606    2.240741
 H   -0.762146   -3.091653   -2.491878
 H   -3.415880   -2.452219   -2.460281
 H   -1.991980    1.032570   -1.854588
 H   -0.621972    5.075404   -1.259279
 H    5.781694   -0.247406    2.412936
 H    5.901412   -0.937960   -1.822756
 H    8.086354    2.103599   -0.083006
 H   -0.501937   -0.042690    1.328361
 H   -2.225128    0.234846    1.419754
