31 
3l59_ligand_xtb.xyz
 C   -1.346819   -1.303066    0.423887
 N   -2.606135   -1.169824    0.913263
 O   -2.505027    1.308291   -1.530094
 C   -2.340301    0.415975   -0.734135
 N   -1.239002   -0.373495   -0.635570
 C   -3.310790   -0.037969    0.359260
 N   -0.502707   -2.127877    0.861029
 C   -4.649957   -0.449264   -0.253128
 C   -3.490974    1.090977    1.378905
 C   -0.070417   -0.225451   -1.473405
 C    1.106769    0.292325   -0.686459
 C    0.972259    1.448046    0.074118
 C    2.035928    1.919007    0.821379
 C    3.247757    1.249427    0.817752
 C    3.379378    0.102804    0.052409
 C    2.318747   -0.382457   -0.695461
Cl    4.885928   -0.743782    0.030721
 H   -2.859351   -1.602059    1.783375
 H    0.390711   -2.130246    0.387106
 H   -5.352394   -0.727927    0.528627
 H   -5.057163    0.382135   -0.821930
 H   -4.511611   -1.296912   -0.919958
 H   -3.868425    1.976865    0.875156
 H   -4.196986    0.792134    2.150455
 H   -2.538756    1.331984    1.848117
 H   -0.350017    0.490487   -2.254052
 H    0.167812   -1.187206   -1.939263
 H    0.031353    1.978277    0.071584
 H    1.925109    2.816008    1.411352
 H    4.081020    1.610501    1.399128
 H    2.443569   -1.279842   -1.282984
