31 
3l59_ligand_ani.xyz
 C   -1.421572   -1.520346   -0.070456
 N   -2.422694   -1.273382    0.848660
 O   -2.211683    1.775713   -0.821271
 C   -2.172640    0.632360   -0.420326
 N   -1.264710   -0.330088   -0.804954
 C   -3.129155   -0.023479    0.578183
 N   -0.803772   -2.626274   -0.173958
 C   -4.485366   -0.247924   -0.094941
 C   -3.265607    0.834578    1.833380
 C   -0.117741   -0.034864   -1.650096
 C    1.086664    0.445743   -0.863187
 C    1.130785    1.759721   -0.396047
 C    2.225334    2.204784    0.337253
 C    3.281864    1.346613    0.623547
 C    3.222686    0.036188    0.168130
 C    2.135633   -0.421936   -0.568027
Cl    4.534618   -1.053599    0.523999
 H   -2.926647   -2.083101    1.182358
 H   -0.107638   -2.588433   -0.913004
 H   -5.179001   -0.726488    0.605379
 H   -4.905251    0.713528   -0.406750
 H   -4.374336   -0.889200   -0.974710
 H   -3.627842    1.830082    1.560301
 H   -3.972950    0.374890    2.531663
 H   -2.295005    0.928182    2.327663
 H   -0.447320    0.733193   -2.354511
 H    0.124051   -0.932903   -2.226007
 H    0.297885    2.426100   -0.606308
 H    2.258083    3.231782    0.690106
 H    4.140825    1.684922    1.195688
 H    2.113022   -1.457508   -0.902389
