40 
3l5b_ligand_dft.xyz
 C   -0.643448    1.621196   -0.502726
 N   -1.833879    1.002133   -0.818700
 O   -0.711696   -0.892264    1.891528
 C   -0.917754   -0.131497    0.968923
 N   -0.174077    0.980129    0.661961
 C   -2.017598   -0.250997   -0.092640
 N   -0.134810    2.580981   -1.162077
 C   -3.378164   -0.355086    0.617183
 C   -1.694661   -1.479972   -0.955611
 C    1.011583    1.370898    1.396653
 C    2.290441    0.937747    0.710946
 C    3.241392    1.868122    0.301119
 C    4.403696    1.449403   -0.342380
 C    4.625990    0.099777   -0.584833
 C    3.669866   -0.822569   -0.167701
 C    2.509615   -0.421934    0.478369
 C   -4.839027    0.227437   -1.407946
 C   -5.836268   -0.780001    0.668791
 C   -4.599929   -0.728698   -0.234823
Cl    3.938923   -2.524836   -0.462332
 H   -2.124255    1.085115   -1.780978
 H    0.753685    2.880747   -0.769527
 H   -3.565272    0.609468    1.107134
 H   -3.263327   -1.101992    1.412241
 H   -1.762551   -2.390343   -0.353217
 H   -0.681758   -1.405709   -1.364977
 H   -2.395803   -1.561801   -1.791739
 H    0.923440    0.898534    2.379100
 H    0.994532    2.456436    1.538676
 H    3.076584    2.927096    0.484100
 H    5.139850    2.179610   -0.662971
 H    5.524900   -0.238329   -1.088118
 H    1.782098   -1.157644    0.808123
 H   -5.802541    0.019374   -1.885463
 H   -4.845446    1.270004   -1.069467
 H   -4.071951    0.130227   -2.184187
 H   -6.720355   -1.102347    0.108387
 H   -6.048549    0.209880    1.090992
 H   -5.691685   -1.476027    1.502234
 H   -4.444765   -1.737623   -0.641154
