60 
3l5c_ligand_xtb.xyz
 C   -5.191022   -0.624573   -0.296401
 N   -5.500005    0.705230    0.182897
 O   -3.251327   -1.935714    0.445771
 C   -4.498152    1.234141    0.947079
 N   -3.564106    0.222086    1.136529
 O    3.766686    0.414032   -1.913077
 C   -3.879802   -0.905550    0.452050
 N   -4.358099    2.374754    1.473362
 C   -4.898936   -0.645459   -1.799065
 N    3.124411    2.305546   -0.843817
 C   -6.221784   -1.678283    0.144439
 N    4.971779    1.178643   -0.111918
 C   -7.507027   -1.800670   -0.681231
 N    9.971985   -3.260162    0.665765
 C   -8.338989   -0.520077   -0.663366
 C   -8.332894   -2.960003   -0.123550
 C   -2.351596    0.398904    1.909269
 C   -1.249671    0.922558    1.026000
 C   -1.116317    2.288340    0.815107
 C   -0.129824    2.770006   -0.027038
 C    0.728586    1.895163   -0.679435
 C    0.583565    0.527402   -0.477622
 C   -0.399418    0.044363    0.365795
 C    1.854002    2.404114   -1.543415
 C    5.988909    0.240303   -0.000842
 C    6.095397   -0.868323   -0.841538
 C    6.935242    0.424097    1.011856
 C    7.123638   -1.769563   -0.669007
 C    7.963169   -0.474825    1.185550
 C    3.931145    1.217792   -1.024204
 C    8.066237   -1.584107    0.343929
 C    9.116817   -2.509388    0.519741
 H   -6.187590    1.285292   -0.264563
 H   -5.113397    3.021305    1.278227
 H   -4.590454   -1.644782   -2.092962
 H   -4.090270    0.047717   -2.027672
 H   -5.776771   -0.356687   -2.371355
 H    3.188787    2.831207    0.014325
 H   -5.705031   -2.641042    0.126358
 H   -6.487739   -1.464750    1.183258
 H    5.019607    1.930402    0.561585
 H   -7.246055   -2.039579   -1.716515
 H   -7.863012    0.273435   -1.234187
 H   -8.486868   -0.176530    0.358212
 H   -9.315695   -0.703328   -1.106261
 H   -8.633453   -2.753872    0.901376
 H   -7.756935   -3.882110   -0.133130
 H   -9.229637   -3.110975   -0.719948
 H   -2.581696    1.109331    2.705185
 H   -2.085926   -0.577739    2.320915
 H   -1.797379    2.965024    1.308638
 H   -0.030050    3.835208   -0.183479
 H    1.247655   -0.154672   -0.987459
 H   -0.516715   -1.019530    0.508472
 H    1.691680    3.448519   -1.823386
 H    1.953747    1.795092   -2.444629
 H    5.368701   -1.010489   -1.623049
 H    6.857365    1.281894    1.665927
 H    7.204053   -2.627470   -1.319711
 H    8.690800   -0.328274    1.969969
