61 
3l5d_ligand_xtb.xyz
 C    4.544887   -0.600517    0.001187
 N    3.929351   -1.438129    1.007489
 O    3.695380   -0.351804   -2.289561
 C    2.716046   -1.927100    0.611247
 N    2.561710   -1.578150   -0.725790
 O   -4.138236    2.167770    1.215994
 C    3.577908   -0.801490   -1.175159
 N    1.848532   -2.612200    1.223718
 C    5.931116   -1.112390   -0.390419
 N   -3.786255    1.938348   -1.017454
 C    4.519499    0.901696    0.346761
 N   -5.691338    1.104512   -0.051804
 C    5.607604    1.432394    1.287779
 C    5.438191    2.946304    1.417700
 C    5.561825    0.789843    2.672969
 C    1.381054   -1.911273   -1.497810
 C    0.371680   -0.798265   -1.390085
 C   -0.487789   -0.741960   -0.298880
 C   -1.374952    0.308601   -0.165157
 C   -1.420287    1.321717   -1.117370
 C   -0.557317    1.264622   -2.202374
 C    0.337965    0.217219   -2.334784
 C   -2.425788    2.435159   -0.971037
 C   -6.542975    0.753369    1.059512
 C   -6.430779   -0.720691    1.460285
 C   -6.960575   -1.672701    0.389302
 C   -4.500476    1.745005    0.136780
 C   -6.936183   -3.120251    0.864841
 H    4.181334   -1.373265    1.977609
 H    2.080423   -2.817146    2.188408
 H    6.624067   -1.043980    0.443240
 H    5.862290   -2.153448   -0.699187
 H    6.306998   -0.526219   -1.224323
 H   -4.042853    1.419984   -1.842601
 H    4.596609    1.439028   -0.601773
 H    3.537140    1.129154    0.772642
 H   -5.902663    0.697227   -0.947118
 H    6.588033    1.238518    0.842376
 H    4.476480    3.183996    1.867564
 H    6.222566    3.365129    2.043864
 H    5.487368    3.423979    0.442271
 H    5.865494   -0.254209    2.639259
 H    4.559900    0.858730    3.093168
 H    6.244045    1.307173    3.344529
 H    1.696277   -2.049355   -2.534785
 H    0.985029   -2.839415   -1.082461
 H   -0.440332   -1.521702    0.446682
 H   -2.038605    0.358251    0.685804
 H   -0.578346    2.049367   -2.945617
 H    1.020169    0.190275   -3.171374
 H   -2.290674    3.181868   -1.759798
 H   -2.320172    2.918084    0.004833
 H   -6.225050    1.384754    1.892121
 H   -7.580146    0.993619    0.803074
 H   -5.384457   -0.950243    1.670471
 H   -6.997745   -0.867613    2.381405
 H   -6.353722   -1.586674   -0.515300
 H   -7.985599   -1.392589    0.133007
 H   -5.921318   -3.421755    1.114234
 H   -7.311949   -3.785401    0.090652
 H   -7.555668   -3.240276    1.750811
