88 
3l5e_ligand_xtb.xyz
 C   -3.444017   -0.930707   -0.149080
 N   -3.476211   -1.199575    1.267954
 O   -1.932423   -2.057178   -1.721007
 C   -2.416635   -1.930376    1.696327
 N   -1.736230   -2.357838    0.537503
 O    4.933437    1.159967   -2.161786
 C   -2.289828   -1.836326   -0.589317
 N   -2.183340   -2.171412    2.911790
 C   -4.721741   -1.390616   -0.873211
 N    4.973590    0.381280    0.004578
 C   -3.057963    0.527643   -0.461431
 N    6.346594   -0.523308   -1.466530
 C   -5.923963   -0.440289   -0.869529
 C   -0.473619   -3.070275    0.522966
 C    0.659188   -2.073376    0.521261
 C    1.194575   -1.632447   -0.683717
 C    2.171434   -0.654989   -0.699701
 C    2.627444   -0.093048    0.487371
 C    2.094288   -0.535580    1.688971
 C    1.115389   -1.513164    1.706590
 C   -6.459717   -0.164799    0.536182
 C   -7.699001    0.726610    0.490220
 C   -8.791380    0.096033   -0.365192
 C   -8.266307   -0.158053   -1.773604
 C   -7.035376   -1.057372   -1.725439
 C   -1.657603    0.875638    0.046098
 C    3.721642    0.943351    0.449946
 C    5.601711   -0.711924    0.708480
 C    6.789993   -1.071281   -0.203327
 C    5.367939    0.423318   -1.306515
 C    8.102947   -0.447617    0.290219
 C    9.298805   -0.806250   -0.589772
 C   10.594077   -0.230774   -0.030384
 C   -1.297138    2.353900   -0.137975
 C    0.217344    2.539348   -0.018424
 C    0.612034    4.000906   -0.204474
 C   -0.100136    4.883045    0.815315
 C   -1.610427    4.709627    0.696159
 C   -1.998835    3.246154    0.887498
 H   -3.995184   -0.646440    1.925475
 H   -1.390379   -2.774269    3.090254
 H   -5.023056   -2.343940   -0.430784
 H   -4.437189   -1.582623   -1.911145
 H   -3.091036    0.660750   -1.543536
 H   -3.793347    1.191312   -0.005465
 H    6.968941   -0.469914   -2.254377
 H   -5.632553    0.510261   -1.327264
 H   -0.453912   -3.673692   -0.388136
 H   -0.431576   -3.726628    1.396474
 H    0.829498   -2.049052   -1.610458
 H    2.585929   -0.315057   -1.637453
 H    2.440517   -0.108634    2.619722
 H    0.704987   -1.836295    2.652176
 H   -6.708754   -1.112359    1.018782
 H   -5.697538    0.330421    1.139701
 H   -8.067805    0.893665    1.504589
 H   -7.428974    1.698350    0.069087
 H   -9.662895    0.752707   -0.401718
 H   -9.102817   -0.850330    0.082581
 H   -8.003736    0.794320   -2.240010
 H   -9.041277   -0.626395   -2.383645
 H   -6.664396   -1.229098   -2.737985
 H   -7.314788   -2.025969   -1.304320
 H   -1.569477    0.619035    1.105782
 H   -0.926796    0.273458   -0.499259
 H    3.473286    1.731042   -0.267067
 H    3.865202    1.387056    1.440924
 H    4.909152   -1.557255    0.821177
 H    5.925639   -0.391439    1.702976
 H    6.916040   -2.156857   -0.293170
 H    8.291368   -0.801377    1.306304
 H    7.983787    0.637612    0.324674
 H    9.145614   -0.419472   -1.599193
 H    9.382636   -1.893568   -0.658135
 H   10.786237   -0.620358    0.966851
 H   10.533593    0.853421    0.031129
 H   11.434662   -0.491832   -0.668517
 H   -1.603939    2.664919   -1.142919
 H    0.720250    1.923895   -0.766982
 H    0.543211    2.192830    0.965714
 H    1.693792    4.107210   -0.101413
 H    0.340103    4.321961   -1.212456
 H    0.168876    5.929539    0.657571
 H    0.217932    4.602812    1.822284
 H   -2.117422    5.326740    1.441384
 H   -1.935760    5.043770   -0.291843
 H   -1.713702    2.925568    1.892712
 H   -3.082633    3.145992    0.799150
