30 
3l5r_ligand_xtb.xyz
 C    4.308244   -1.341359   -0.337967
 C    4.807432   -0.087185    0.039837
 C    3.934472    0.953518    0.306062
 C    2.955226   -1.535274   -0.437799
 C    2.051989   -0.499420   -0.170457
 C    2.560318    0.748543    0.200139
 O    1.751373    1.801249    0.471965
 C    0.425515    1.615618    0.382190
 C   -0.197788    0.469511    0.041038
 C    0.602954   -0.726603   -0.278626
 C   -1.664607    0.407609   -0.029278
 C   -2.341928   -0.702715    0.466488
 C   -3.723475   -0.769149    0.410353
 C   -4.443083    0.288832   -0.161854
 C   -3.770405    1.387962   -0.663631
 C   -2.389975    1.450823   -0.595972
 O   -5.812820    0.165928   -0.192908
 O   -4.374996   -1.846457    0.913699
 O    6.147901    0.059243    0.131438
 O    0.129745   -1.797464   -0.613679
 H    5.010717   -2.132732   -0.541986
 H    4.295541    1.929158    0.598172
 H    2.544957   -2.491294   -0.724704
 H   -0.113408    2.517491    0.639902
 H   -1.806467   -1.530150    0.899890
 H   -4.330379    2.197602   -1.112515
 H   -1.876519    2.305260   -1.009125
 H   -6.192438    0.939960   -0.621524
 H   -5.322022   -1.718720    0.764266
 H    6.371065    0.959152    0.400370
