32 
3l79_ligand_xtb.xyz
 C    0.096634   -0.095029    0.336733
 N   -1.308751    0.129531    0.084706
 C    0.587902   -1.356403   -0.415251
 N   -3.517683   -0.228205    0.676177
 O   -0.187040   -2.473458   -0.117524
 C    2.077276   -1.525659   -0.080751
 F    2.622785   -2.530561   -0.854085
 C    2.864220   -0.236834   -0.365590
 O    4.176835   -0.325472    0.112597
 C    2.187199    0.954532    0.326368
 O    0.819506    1.039397   -0.045259
 C    2.844715    2.282250   -0.067652
 O    2.341203    3.353217    0.674496
 C   -1.729650    0.805963   -1.023300
 C   -3.029585    0.997117   -1.297351
 C   -4.052270    0.467004   -0.415502
 O   -5.247162    0.571830   -0.542602
 C   -2.206863   -0.452158    0.971126
 O   -1.837589   -1.099130    1.925597
 H    0.195793   -0.274273    1.423438
 H    0.486146   -1.204042   -1.496819
 H   -4.188560   -0.641504    1.315896
 H   -0.309898   -2.559011    0.838766
 H    2.211237   -1.839142    0.963319
 H    2.854867   -0.069467   -1.455500
 H    4.590921   -1.113139   -0.263404
 H    2.271474    0.823478    1.415593
 H    3.912599    2.220597    0.145860
 H    2.694525    2.440753   -1.144725
 H    1.383624    3.376912    0.559753
 H   -0.934809    1.190188   -1.643893
 H   -3.351437    1.538632   -2.169118
