32 
3l79_ligand_dft.xyz
 C    0.109421   -0.140020    0.366898
 N   -1.304825    0.088374    0.096315
 C    0.644463   -1.367564   -0.392727
 N   -3.527279   -0.313535    0.616034
 O   -0.056239   -2.538683   -0.084104
 C    2.136529   -1.474312   -0.095170
 F    2.710419   -2.466138   -0.877296
 C    2.862105   -0.168958   -0.392878
 O    4.207357   -0.219767    0.013000
 C    2.185975    0.975861    0.356951
 O    0.802567    1.019343   -0.001898
 C    2.752112    2.344644    0.022122
 O    2.121752    3.356957    0.765316
 C   -1.711387    0.869900   -0.964293
 C   -3.006899    1.090302   -1.245240
 C   -4.045589    0.486222   -0.422383
 O   -5.243740    0.608019   -0.560230
 C   -2.214513   -0.581791    0.902413
 O   -1.865331   -1.343978    1.792928
 H    0.193311   -0.312775    1.448245
 H    0.520133   -1.183428   -1.468244
 H   -4.205634   -0.793681    1.194602
 H   -0.458122   -2.452139    0.795719
 H    2.292947   -1.752585    0.955413
 H    2.778379    0.025784   -1.474980
 H    4.598522   -1.003373   -0.394496
 H    2.273781    0.809502    1.441047
 H    3.813447    2.361909    0.276239
 H    2.655318    2.510723   -1.063104
 H    1.174425    3.280763    0.593512
 H   -0.900840    1.305969   -1.534033
 H   -3.308935    1.713860   -2.074963
