45 
3l7a_ligand_dft.xyz
 C    2.453403   -0.293540    0.403520
 N    1.001071   -0.235787    0.258328
 C    3.085162   -1.316333   -0.559726
 N   -1.113410   -1.030651    0.967524
 O    2.602846   -2.614131   -0.378217
 C    4.597760   -1.238227   -0.373819
 F    5.235949   -2.015903   -1.330852
 N   -3.052272   -0.176320    0.201541
 C    5.116376    0.185499   -0.518223
 O    6.484526    0.275572   -0.203381
 C    4.351607    1.106612    0.427444
 O    2.952510    0.993109    0.158041
 C    4.693263    2.576661    0.258557
 O    3.974625    3.377857    1.162459
 C    0.412727    0.642591   -0.589434
 C   -0.939110    0.721541   -0.692076
 C   -1.668866   -0.156333    0.157485
 C    0.238998   -1.155298    1.017743
 O    0.829284   -2.006538    1.677504
 C   -3.962963    0.632377   -0.461096
 O   -3.633474    1.570834   -1.161503
 C   -5.397946    0.273504   -0.230203
 C   -5.819690   -1.020679    0.088205
 C   -7.171884   -1.287063    0.273495
 C   -8.107473   -0.264439    0.146607
 C   -7.691946    1.024163   -0.182571
 C   -6.343372    1.290614   -0.379649
 H    2.642206   -0.595189    1.442148
 H    2.850237   -0.996379   -1.585783
 H    2.130033   -2.663625    0.473508
 H    4.872830   -1.638742    0.610327
 H   -3.399755   -0.848992    0.872460
 H    4.924178    0.512315   -1.553670
 H    6.942490   -0.385834   -0.738070
 H    4.544300    0.811463    1.469662
 H    4.501391    2.864779   -0.787964
 H    5.755754    2.721113    0.462191
 H    3.040839    3.162920    1.040499
 H    1.085507    1.276256   -1.153280
 H   -1.431827    1.421309   -1.347763
 H   -5.107655   -1.838894    0.155196
 H   -7.494071   -2.296419    0.509083
 H   -9.162293   -0.472715    0.297434
 H   -8.421730    1.820713   -0.288242
 H   -6.002512    2.284839   -0.648601
