32 
3l7c_ligand_dft.xyz
 C   -0.333123   -0.264273   -0.447527
 N    1.106157   -0.099538   -0.290388
 C   -0.885123   -1.356735    0.485867
 N    3.267632   -0.706822   -0.867127
 O   -0.261231   -2.593807    0.288418
 C   -2.395921   -1.407438    0.283523
 F   -2.974050   -2.263597    1.209080
 C   -3.027517   -0.033236    0.462186
 O   -4.395649   -0.046016    0.138261
 C   -2.337692    0.975823   -0.452822
 O   -0.932761    0.972197   -0.182803
 C   -2.804046    2.405921   -0.242181
 O   -2.168112    3.290777   -1.128930
 C    1.616499    0.754683    0.670439
 C    2.936621    0.892809    0.851334
 F    3.426906    1.725062    1.765643
 C    3.903420    0.141102    0.051825
 O    5.107895    0.203119    0.136999
 C    1.919874   -0.908373   -1.062464
 O    1.481532   -1.730140   -1.853777
 H   -0.494254   -0.557553   -1.493634
 H   -0.686761   -1.055958    1.522877
 H    3.877219   -1.289098   -1.428622
 H    0.043212   -2.658233   -0.630776
 H   -2.630856   -1.797424   -0.715751
 H   -2.867675    0.278087    1.507820
 H   -4.807660   -0.743698    0.664088
 H   -2.503886    0.697078   -1.504010
 H   -3.876644    2.461412   -0.436026
 H   -2.630047    2.681639    0.810588
 H   -1.217381    3.187000   -0.995229
 H    0.891150    1.317353    1.242357
