32 
3l7c_ligand_xtb.xyz
 C   -0.319195   -0.222326   -0.432618
 N    1.111346   -0.054998   -0.290546
 C   -0.826754   -1.344934    0.507006
 N    3.264772   -0.632331   -0.922025
 O   -0.129712   -2.533957    0.319743
 C   -2.341062   -1.463014    0.282710
 F   -2.887371   -2.329936    1.206738
 C   -3.035772   -0.101648    0.447809
 O   -4.379315   -0.166274    0.061635
 C   -2.342857    0.951814   -0.427906
 O   -0.948711    0.993492   -0.157814
 C   -2.894492    2.357023   -0.157115
 O   -2.390539    3.297997   -1.057211
 C    1.625830    0.736698    0.694393
 C    2.953364    0.864087    0.868791
 F    3.426156    1.661224    1.837628
 C    3.917379    0.153157    0.032308
 O    5.117271    0.189662    0.096092
 C    1.923751   -0.803193   -1.130306
 O    1.473077   -1.537435   -1.977747
 H   -0.495304   -0.530979   -1.479453
 H   -0.647341   -1.058829    1.550476
 H    3.869791   -1.172866   -1.533171
 H   -0.124146   -2.784752   -0.614691
 H   -2.560634   -1.893015   -0.703986
 H   -2.945340    0.196930    1.505376
 H   -4.814155   -0.865839    0.566560
 H   -2.511095    0.697766   -1.484955
 H   -3.977086    2.338177   -0.288941
 H   -2.656013    2.631015    0.880026
 H   -1.427740    3.290440   -0.998186
 H    0.909451    1.267813    1.301621
