44 
3l7d_ligand_ani.xyz
 C    2.552128   -0.460791    0.418401
 N    1.104647   -0.342266    0.293627
 C    3.142031   -1.441121   -0.593563
 N   -1.036454   -1.135882    0.954726
 C    4.650338   -1.433228   -0.483910
 F    5.210109   -2.177446   -1.525791
 N   -2.954399   -0.189302    0.230357
 C    5.196694   -0.015726   -0.587546
 O    6.582073    0.009888   -0.330649
 C    4.502479    0.877304    0.431673
 O    3.090107    0.832507    0.234049
 C    4.898063    2.344640    0.323887
 O    4.217227    3.117810    1.285014
 C    0.529293    0.579848   -0.529013
 C   -0.816663    0.683744   -0.625571
 C   -1.565848   -0.217839    0.184880
 C    0.319465   -1.282643    1.016097
 O    0.887564   -2.150340    1.654887
 C   -3.838990    0.542621   -0.532730
 O   -3.506375    1.324554   -1.407639
 C   -5.285083    0.272539   -0.233954
 C   -6.197460    0.444709   -1.274127
 C   -7.548864    0.193807   -1.069582
 C   -7.998895   -0.207445    0.186062
 C   -7.095372   -0.348227    1.236943
 C   -5.740819   -0.110421    1.028769
 H    2.743986   -0.801820    1.439783
 H    2.749075   -2.448093   -0.420354
 H    2.854523   -1.120358   -1.602064
 H    4.991544   -1.885783    0.458392
 H   -3.329364   -0.924769    0.814237
 H    4.965331    0.363498   -1.596625
 H    6.999487   -0.574743   -0.977602
 H    4.735994    0.522433    1.448950
 H    4.694900    2.703125   -0.699887
 H    5.969580    2.449527    0.511561
 H    3.278237    2.913073    1.172043
 H    1.217242    1.214575   -1.077859
 H   -1.309945    1.401947   -1.265629
 H   -5.823146    0.777746   -2.238621
 H   -8.253350    0.315738   -1.888313
 H   -9.055651   -0.402697    0.348479
 H   -7.443156   -0.653778    2.220831
 H   -5.052580   -0.186435    1.868245
