49 
3l8v_ligand_ani.xyz
 N    7.615233   -2.210313    1.214259
 C    7.964726   -1.770351   -0.000585
 C    7.129872   -0.971388   -0.795085
 C    5.886467   -0.625503   -0.300485
 O    5.112209    0.181332   -1.096147
 C    3.777830    0.326175   -0.804649
 C    2.851393   -0.690076   -0.987389
 C    1.515567   -0.468643   -0.684417
 C    1.081670    0.778346   -0.216501
 C    2.006250    1.811933   -0.054058
 C    3.331527    1.564271   -0.355996
 F    4.227863    2.548740   -0.213357
 N   -0.275038    0.888355    0.099951
 C   -1.080888    1.992014    0.211932
 C   -2.476869    1.804265    0.439408
 C   -3.252201    2.947058    0.614214
 C   -2.683005    4.209082    0.509638
 C   -1.327159    4.275077    0.226613
 N   -0.542788    3.205121    0.090063
 C   -3.083944    0.434872    0.507372
 O   -2.439583   -0.563850    0.821412
 N   -4.406603    0.371306    0.162199
 C   -5.217595   -0.772531    0.094778
 C   -4.879348   -2.045793    0.548253
 C   -5.788687   -3.093259    0.431388
 C   -7.029987   -2.863916   -0.134025
 C   -7.409459   -1.610518   -0.594365
 C   -6.486975   -0.594296   -0.464601
 F   -7.897453   -3.883026   -0.242169
 C    6.410265   -1.853492    1.661835
 C    5.502073   -1.066757    0.968704
 F   -6.798418    0.650040   -0.891110
 N    9.232189   -2.106225   -0.429164
 H    7.444049   -0.610832   -1.770777
 H    3.184473   -1.658101   -1.348836
 H    0.794031   -1.272050   -0.812539
 H    1.704593    2.790786    0.294891
 H   -0.765025    0.014569    0.272537
 H   -4.308520    2.855473    0.863556
 H   -3.275677    5.109912    0.627527
 H   -0.833150    5.237508    0.117874
 H   -4.827861    1.186988   -0.257204
 H   -3.905174   -2.211984    0.985684
 H   -5.534609   -4.090108    0.776717
 H   -8.384417   -1.434882   -1.035298
 H    6.150985   -2.223582    2.652378
 H    4.538637   -0.808207    1.394101
 H    9.654917   -2.861431    0.089477
 H    9.383720   -2.142814   -1.425505
