45 
3l8x_ligand_ani.xyz
 C    2.786321    2.061129   -0.214463
 C    5.332366   -1.406358    0.184360
 C   -0.084152    0.559334   -0.172793
 C   -2.405452    0.131845    0.205653
 C    2.338451    0.766372   -0.522061
 C    1.904055    3.268848   -0.378394
 C    7.602204   -2.329976    0.155527
 C   -1.323533    0.106020   -0.677528
 C    4.492318   -0.167304    0.059090
 C   -7.529691   -0.771677    0.604121
 C   -6.530044   -0.920292    1.560012
 C   -7.184796   -0.473809   -0.711205
 C    4.945768    1.108857    0.385539
 C    4.099852    2.200252    0.243528
 C   -5.192581   -0.765593    1.215783
 C   -5.851417   -0.328494   -1.071264
 C    3.182510   -0.326868   -0.385072
 C   -1.873888   -0.358978   -1.899924
 C   -1.121069    0.955651    1.820031
 C   -4.853865   -0.462282   -0.103560
 N   -3.160660   -0.585209   -1.790347
 N   -2.330760    0.547196    1.483637
 N    0.008843    0.996219    1.080097
 N   -3.498515   -0.309872   -0.501264
 N    1.009014    0.562277   -0.994312
 N    6.682899   -1.211677    0.144870
 O    4.826724   -2.511474    0.309157
 H    1.300409    3.191757   -1.287506
 H    1.209850    3.360281    0.462354
 H    2.504949    4.181600   -0.425720
 H    7.081846   -3.183211    0.592005
 H    7.930466   -2.605989   -0.854206
 H    8.477629   -2.090267    0.765503
 H   -8.573656   -0.889744    0.881428
 H   -6.790817   -1.155552    2.588802
 H   -7.957668   -0.360124   -1.467582
 H    5.948390    1.262246    0.779565
 H    4.468632    3.196350    0.482673
 H   -4.408151   -0.867920    1.957226
 H   -5.570084   -0.116562   -2.097640
 H    2.830205   -1.332919   -0.601646
 H   -1.377524   -0.514902   -2.847994
 H   -1.009790    1.306136    2.841824
 H    0.920769   -0.039347   -1.801573
 H    7.024866   -0.322652   -0.183799
