39 
3lau_ligand_ani.xyz
 C   -5.681709   -8.182581   18.687306
 C   -5.258246   -8.476905   17.372904
 C   -5.358353   -9.382095   19.423461
 C   -6.255705   -6.919100   18.930268
 C   -5.388674   -7.581121   16.303809
 N   -4.751859   -9.731493   17.406019
 N   -4.805492  -10.286374   18.635801
 N   -5.519240   -9.738407   20.763170
 C   -6.371391   -6.030637   17.883059
 C   -5.950503   -6.342951   16.565743
 C   -6.056037   -9.033423   21.814820
 C   -6.116895   -5.345355   15.477747
 C   -6.046056   -9.792399   23.135352
 O   -6.501628   -7.907281   21.715628
 C   -6.614375   -5.720884   14.224260
 C   -5.784690   -4.002780   15.671312
 C   -6.650198   -8.968379   24.266586
 C   -6.781794   -4.797327   13.205446
 C   -5.929067   -3.066765   14.655781
 C   -6.645276   -9.718967   25.593933
 C   -6.433390   -3.462922   13.417803
 O   -6.608426   -2.598352   12.383029
 H   -6.590567   -6.656301   19.924431
 H   -5.040095   -7.844547   15.309870
 H   -5.176471  -10.670885   20.950518
 H   -6.822845   -5.059259   18.067816
 H   -6.598301  -10.734138   23.004339
 H   -5.009834  -10.074086   23.371761
 H   -6.896664   -6.757550   14.052457
 H   -5.386583   -3.686333   16.632554
 H   -6.092810   -8.029547   24.351988
 H   -7.670529   -8.685274   23.987025
 H   -7.172484   -5.092325   12.236530
 H   -5.658049   -2.027005   14.831298
 H   -7.081889   -9.114568   26.395568
 H   -7.223179  -10.648042   25.522665
 H   -5.623944   -9.983396   25.892579
 H   -6.330579   -1.715633   12.658178
 H   -4.360172  -10.245612   16.634185
