39 
3lau_ligand_dft.xyz
 C   -5.676057   -8.161272   18.691344
 C   -5.276833   -8.476713   17.374704
 C   -5.342066   -9.345484   19.431321
 C   -6.233625   -6.893080   18.941609
 C   -5.409034   -7.579446   16.305978
 N   -4.765418   -9.734409   17.416318
 N   -4.802747  -10.266316   18.660631
 N   -5.446234   -9.676057   20.786638
 C   -6.364413   -6.011508   17.892576
 C   -5.958061   -6.336294   16.570074
 C   -6.146287   -9.052782   21.785835
 C   -6.122651   -5.344428   15.478573
 C   -6.107463   -9.805704   23.110774
 O   -6.750264   -8.005574   21.642188
 C   -6.558815   -5.733565   14.205632
 C   -5.841979   -3.991411   15.685943
 C   -6.606639   -8.962951   24.280336
 C   -6.705879   -4.815283   13.177189
 C   -5.984567   -3.059460   14.664648
 C   -6.609703   -9.745069   25.591816
 C   -6.417409   -3.469498   13.404105
 O   -6.578019   -2.608773   12.363689
 H   -6.566784   -6.640472   19.939124
 H   -5.063672   -7.839344   15.309877
 H   -5.021864  -10.568803   20.999127
 H   -6.821554   -5.042927   18.070717
 H   -6.728454  -10.706847   23.004703
 H   -5.085351  -10.159147   23.302425
 H   -6.811344   -6.774739   14.024917
 H   -5.483584   -3.660841   16.656639
 H   -5.976560   -8.071621   24.374526
 H   -7.612644   -8.599512   24.050083
 H   -7.053903   -5.120048   12.195877
 H   -5.750161   -2.013036   14.848927
 H   -6.969799   -9.124047   26.417895
 H   -7.260354  -10.625095   25.527505
 H   -5.603202  -10.094186   25.850784
 H   -6.356695   -1.716012   12.654146
 H   -4.373910  -10.279247   16.667805
