49 
3lc5_ligand_ani.xyz
 C   -0.218019    2.249645   -0.057506
 C   -1.052896    3.182140    0.585758
 C    1.135232    2.167545    0.336178
 C   -0.566529    4.054959    1.565481
 C    1.613833    3.011805    1.319517
 C    0.769587    3.959057    1.916815
 C   -0.934277    1.462197   -1.016814
 C   -2.259010    1.747249   -1.074214
 S   -2.692659    3.050897    0.003886
 C   -3.252621    1.046833   -1.925162
 N   -4.255974    1.568626   -2.514099
 N   -2.971993   -0.299585   -2.108959
 O    1.974494    1.280356   -0.293871
 C    2.355536    0.137031    0.480216
 C    3.705817   -0.347890    0.036596
 C    4.425785   -1.204596    0.865883
 C    4.216414    0.011839   -1.205326
 C    5.657847   -1.703583    0.454505
 C    5.445552   -0.491527   -1.622048
 C    6.165577   -1.347697   -0.792655
 C    1.306560   -0.939578    0.307990
 O    1.453185   -1.813530   -0.685357
 N    0.311491   -2.598794   -0.708474
 N    0.198882   -1.094323    0.970591
 C   -0.399861   -2.127245    0.283121
 C   -1.749876   -2.616239    0.609092
 C   -2.294643   -3.707139   -0.072883
 C   -2.491593   -1.971976    1.600698
 C   -3.578400   -4.142346    0.235565
 C   -3.775869   -2.409561    1.902744
 C   -4.322029   -3.494558    1.220037
 H   -1.215121    4.783125    2.043286
 H    2.657030    2.937311    1.617046
 H    1.172548    4.616381    2.681759
 H   -0.465064    0.712918   -1.645464
 H   -4.319936    2.565696   -2.310174
 H   -3.744230   -0.779542   -2.553965
 H   -2.601889   -0.793134   -1.302944
 H    2.377881    0.400132    1.542737
 H    4.012269   -1.483553    1.833388
 H    3.646081    0.688070   -1.835929
 H    6.220975   -2.370563    1.102672
 H    5.843342   -0.212985   -2.595432
 H    7.126603   -1.738487   -1.119185
 H   -1.707811   -4.206791   -0.838881
 H   -2.051933   -1.127401    2.125290
 H   -4.000838   -4.991383   -0.296183
 H   -4.352102   -1.902158    2.672701
 H   -5.326255   -3.836260    1.456001
