49 
3lc5_ligand_xtb.xyz
 C   -0.595060    2.040000    0.240932
 C   -1.715472    2.454611    0.984386
 C    0.678910    2.130341    0.824730
 C   -1.594182    2.969575    2.266680
 C    0.793970    2.633326    2.106030
 C   -0.331455    3.056314    2.812579
 C   -0.954366    1.511266   -1.026858
 C   -2.296626    1.502629   -1.240320
 S   -3.187396    2.183161    0.105431
 C   -3.042005    0.991354   -2.400840
 N   -4.267383    1.212896   -2.660961
 N   -2.306594    0.249345   -3.284749
 O    1.764181    1.714656    0.080944
 C    2.530646    0.679814    0.656678
 C    3.576030    0.227833   -0.340359
 C    4.897621    0.058152    0.043360
 C    3.194383   -0.046289   -1.646377
 C    5.833476   -0.378139   -0.878777
 C    4.133168   -0.475761   -2.566420
 C    5.453500   -0.643744   -2.183154
 C    1.662337   -0.498984    0.958915
 O    2.046658   -1.412837    1.855362
 N    1.064958   -2.357754    1.888578
 N    0.521952   -0.780020    0.417225
 C    0.167306   -1.954006    1.027977
 C   -1.081227   -2.628154    0.739359
 C   -1.350729   -3.890969    1.262243
 C   -2.024921   -1.991504   -0.063672
 C   -2.554735   -4.505423    0.975612
 C   -3.227340   -2.611479   -0.343021
 C   -3.492044   -3.869583    0.174977
 H   -2.466830    3.281298    2.818212
 H    1.766633    2.708058    2.569102
 H   -0.206144    3.450900    3.809264
 H   -0.221732    1.161320   -1.729884
 H   -4.733697    1.830333   -2.004212
 H   -2.853461   -0.194504   -4.004813
 H   -1.517827   -0.268815   -2.938246
 H    3.017495    0.998584    1.590786
 H    5.195887    0.265504    1.060737
 H    2.162148    0.085778   -1.929852
 H    6.861840   -0.508208   -0.576670
 H    3.833632   -0.683575   -3.582772
 H    6.185880   -0.982257   -2.900680
 H   -0.610392   -4.368199    1.884856
 H   -1.801443   -1.008181   -0.446365
 H   -2.767011   -5.484631    1.378545
 H   -3.959185   -2.111958   -0.960857
 H   -4.431802   -4.354929   -0.043109
