25 
3lce_ligand_ani.xyz
 C   -3.383871   -2.204462   -0.458742
 O   -3.137459    1.575602    0.697097
 O   -1.688482    2.713881   -0.571216
 O    1.204207    2.329636   -0.002372
Cl    3.481197   -0.543466   -0.804546
Cl    2.052541    0.026687    1.640012
 O   -2.567637   -1.064240   -0.635008
 S   -0.268294   -2.010161    0.423340
 C   -1.972823    1.708893    0.046508
 C   -1.693904   -0.830364    0.422943
 C    0.709716   -0.928289   -0.651053
 C   -1.040235    0.540378    0.237670
 C   -0.060331    0.376264   -0.907520
 C    1.908526   -0.077401   -0.114672
 C    1.250045    1.176218   -0.767064
 H   -2.785599   -3.122496   -0.394258
 H   -4.035573   -2.251621   -1.332549
 H   -3.997666   -2.113645    0.448756
 H   -3.645713    2.384612    0.517457
 H    0.452996    2.852030   -0.330714
 H   -2.212875   -0.911473    1.386477
 H    0.997625   -1.459660   -1.560129
 H   -0.496486    0.764076    1.161656
 H   -0.556564    0.454927   -1.878796
 H    1.711250    1.344620   -1.750693
