47 
3lcu_ligand_xtb.xyz
 N    2.885404    0.214637   -1.135776
 C    3.028904   -0.700063    0.022217
 C    2.432258   -2.082434   -0.270807
 C    0.920345   -2.154961   -0.106837
 S    0.010827   -1.077768   -1.292303
 C    4.542993   -0.831772    0.241594
 O    4.853421   -1.465727    1.343965
 O    5.313447   -0.389728   -0.570021
 C   -1.532645   -2.007999   -1.503507
 C   -2.593127   -1.687541   -0.450205
 O   -2.027148   -1.586372    0.850019
 C   -3.364736   -0.382785   -0.714747
 O   -4.561175   -0.700295   -1.365161
 C   -3.603059    0.179151    0.708420
 O   -4.792452   -0.294332    1.256765
 C   -2.400518   -0.383519    1.480332
 N   -1.250598    0.503766    1.465992
 C   -0.093937    0.212856    2.135317
 N    0.942348    0.889392    1.743021
 C    0.463632    1.710492    0.752657
 C    1.059803    2.597142   -0.141304
 N    2.452697    2.724060   -0.230822
 N    0.316131    3.221175   -1.036957
 C   -0.986633    2.976125   -1.070611
 N   -1.658379    2.113319   -0.334903
 C   -0.918928    1.480317    0.568917
 H    3.778257    0.144714   -1.661881
 H    2.769848    1.248796   -0.822559
 H    2.082324   -0.055062   -1.717273
 H    2.550666   -0.265503    0.910601
 H    2.713380   -2.390165   -1.280512
 H    2.866382   -2.796197    0.432133
 H    0.587669   -3.172644   -0.303421
 H    0.620684   -1.873705    0.900651
 H    5.814342   -1.557969    1.467008
 H   -1.265182   -3.063557   -1.478366
 H   -1.912754   -1.756237   -2.493027
 H   -3.320998   -2.512465   -0.450726
 H   -2.755873    0.322697   -1.294543
 H   -5.002374    0.108834   -1.651265
 H   -3.598411    1.274752    0.723884
 H   -5.260169   -0.811246    0.580236
 H   -2.659508   -0.604024    2.521632
 H   -0.069090   -0.524817    2.914120
 H    2.903642    2.766632    0.677053
 H    2.711304    3.509310   -0.820718
 H   -1.555433    3.529264   -1.803216
