52 
3ldp_ligand_ani.xyz
 N   -5.617659   -1.752810   -0.319535
 C   -5.523076   -0.435419   -0.486896
 N   -4.416553    0.319029   -0.509267
 C   -4.484615   -2.455207   -0.153200
 N   -2.005310    0.025636   -0.371893
 C   -1.233926   -1.113417   -0.118339
 N   -1.932781   -2.210559   -0.002257
 C   -3.249289   -1.786830   -0.173724
 C   -3.311355   -0.417048   -0.375631
 C   -1.645219    1.420303   -0.590691
 O   -0.248145    1.597270   -0.711121
 C    0.219736    2.671789    0.123232
 C   -1.039691    3.408876    0.577433
 C   -2.097837    2.310979    0.573191
 N   -4.560769   -3.793880    0.009396
 N    0.117665   -0.999441    0.049202
 C    0.913975   -2.197950    0.226360
 C    2.379681   -1.832757    0.205499
 N    2.720493   -0.666449   -0.296379
 C    4.660761   -2.450874    0.636311
 C    3.331927   -2.758216    0.701973
 C    5.064680   -1.212705    0.068592
 C    4.045436   -0.347782   -0.392103
 C    4.410926    0.893269   -0.970524
 C    5.731229    1.248896   -1.086375
 C    6.748370    0.385383   -0.623473
 C    6.423351   -0.819698   -0.056301
 C    1.062363    2.088614    1.251163
 O    0.348702    1.178461    2.048800
 O   -1.346528    4.372023   -0.404457
 O   -3.370631    2.864788    0.359748
 H   -6.462261    0.092961   -0.607777
 H   -2.124439    1.746989   -1.519963
 H    0.828804    3.333150   -0.503170
 H   -0.928218    3.876680    1.568333
 H   -2.060379    1.730900    1.504397
 H   -3.731129   -4.301021    0.275774
 H   -5.466290   -4.213285    0.147961
 H    0.570372   -0.309207   -0.542020
 H    0.649721   -2.671762    1.177714
 H    0.691681   -2.938465   -0.554420
 H    5.417405   -3.140582    1.007121
 H    2.989644   -3.701227    1.122034
 H    3.612459    1.543460   -1.317293
 H    5.996473    2.202404   -1.534872
 H    7.789430    0.683026   -0.721109
 H    7.198416   -1.493353    0.303913
 H    1.394417    2.903664    1.906803
 H    1.955982    1.616565    0.813808
 H    0.314854    0.331592    1.563604
 H   -2.315299    4.410372   -0.442076
 H   -3.968978    2.144869    0.073640
