52 
3ldq_ligand_xtb.xyz
 N   -5.544816   -1.709655   -0.272609
 C   -5.432635   -0.418074   -0.508955
 N   -4.324042    0.304418   -0.591165
 C   -4.441318   -2.441213   -0.074719
 N   -1.919790   -0.008585   -0.408143
 C   -1.173361   -1.131761   -0.102266
 N   -1.895988   -2.209889    0.062661
 C   -3.196097   -1.799877   -0.127355
 C   -3.224266   -0.427339   -0.405622
 C   -1.560707    1.365992   -0.679066
 O   -0.180460    1.570379   -0.700852
 C    0.201456    2.620747    0.193816
 C   -1.086210    3.370051    0.564962
 C   -2.171214    2.293869    0.398808
 N   -4.579015   -3.767105    0.134405
 N    0.160323   -1.047083    0.107293
 C    0.949056   -2.245173    0.257475
 C    2.408837   -1.895824    0.161366
 N    2.701255   -0.679185   -0.214479
 C    4.710168   -2.516510    0.357585
 C    3.392732   -2.863953    0.458939
 C    5.056604   -1.208177   -0.045061
 C    3.992849   -0.310359   -0.329823
 C    4.288483    1.003857   -0.743704
 C    5.589784    1.407284   -0.861535
 C    6.642596    0.523761   -0.574914
 C    6.384375   -0.758971   -0.176352
 C    0.949282    2.041616    1.407313
 O    0.162238    1.163392    2.167886
 O   -1.290220    4.441485   -0.311449
 O   -3.381811    2.860633    0.003236
 H   -6.359461    0.122141   -0.645999
 H   -1.986510    1.626320   -1.664683
 H    0.867564    3.291037   -0.358925
 H   -1.044112    3.729875    1.601819
 H   -2.274696    1.730128    1.338227
 H   -3.774331   -4.286921    0.434352
 H   -5.503096   -4.128534    0.290007
 H    0.656604   -0.298254   -0.372532
 H    0.729846   -2.703547    1.228569
 H    0.697051   -2.989289   -0.512332
 H    5.494579   -3.226225    0.581181
 H    3.090615   -3.854703    0.762279
 H    3.466259    1.666656   -0.965258
 H    5.818271    2.413953   -1.178512
 H    7.661796    0.866593   -0.674228
 H    7.190471   -1.444913    0.042242
 H    1.234457    2.861588    2.070083
 H    1.855246    1.536821    1.049472
 H    0.059392    0.340568    1.664575
 H   -2.246264    4.495983   -0.463060
 H   -3.979619    2.123517   -0.248944
