42 
3le9_ligand_dft.xyz
 N   -0.026592   -0.302629   -1.145882
 N   -0.719771    0.848950   -1.571265
 C   -0.818095   -1.204016   -0.483438
 N    4.372967   -1.253306   -0.055096
 C    3.749898   -0.226186   -0.705264
 C    2.277535   -0.277021   -0.248985
 N    2.265614   -1.441053    0.621396
 C    3.481076   -2.072593    0.671711
 O    3.773169   -3.113102    1.207032
 O    4.236378    0.554196   -1.492786
 C    1.857349    1.011043    0.457636
 C    1.361009   -0.486502   -1.481741
 C   -2.144603   -0.580896   -0.469433
 C   -2.023402    0.659770   -1.076147
 C   -3.116612    1.524282   -1.155993
 C   -4.312217    1.088326   -0.618355
 C   -4.443047   -0.182489   -0.015268
 C   -3.350321   -1.034987    0.066912
 O   -0.426784   -2.276731   -0.024914
 O   -5.684618   -0.465896    0.452552
 C   -5.881884   -1.725968    1.055265
 C    1.150618    0.955299    1.657260
 C    0.648865    2.119707    2.232352
 C    0.850260    3.350628    1.616287
 C    1.566302    3.413131    0.423019
 C    2.065375    2.250288   -0.157536
 H   -0.261458    1.676154   -1.185056
 H    5.346485   -1.491578   -0.173248
 H    1.415545   -2.002015    0.683136
 H    1.503793   -1.498811   -1.874362
 H    1.620592    0.233485   -2.260826
 H   -3.037793    2.499001   -1.625920
 H   -5.194939    1.718301   -0.653897
 H   -3.394136   -2.014819    0.527064
 H   -6.932996   -1.761637    1.343027
 H   -5.255915   -1.845593    1.948827
 H   -5.669312   -2.542258    0.353088
 H    0.992668   -0.003766    2.138822
 H    0.096400    2.060698    3.165125
 H    0.456059    4.257313    2.064970
 H    1.741671    4.370399   -0.058837
 H    2.634002    2.302766   -1.080758
