52 
3lea_ligand_ani.xyz
 N    0.310099    4.851916   -0.409063
 C    0.524475    3.987871    0.636298
 C   -0.127848    2.643243    0.217242
 N   -0.734840    3.011876   -1.058127
 C   -0.511622    4.321221   -1.415202
 O   -0.923994    4.916266   -2.380722
 O    1.081830    4.251018    1.676332
 C    0.938883    1.564495    0.071176
 C    0.950033    0.719813   -1.037386
 C    1.882827   -0.300807   -1.141922
 C    2.837358   -0.503465   -0.141026
 C    2.813801    0.338157    0.976496
 C    1.879924    1.356957    1.082460
 C    3.851545   -1.576387   -0.267971
 C    5.182063   -1.379291    0.102331
 C    6.093576   -2.411836   -0.063451
 C    5.639014   -3.621923   -0.578373
 N    4.369317   -3.841860   -0.924931
 C    3.512341   -2.834363   -0.774733
 N   -1.707001    0.905513    1.147086
 C   -1.201855   -0.218553    1.924201
 C   -2.614969    0.540516    0.188649
 C   -1.198641    2.254560    1.276524
 C   -2.838004   -0.910112    0.369010
 C   -2.026385   -1.365818    1.390222
 C   -2.074734   -2.708965    1.745018
 C   -2.937770   -3.551005    1.055062
 C   -3.753542   -3.068565    0.012856
 C   -3.709080   -1.723770   -0.346152
 O   -3.119486    1.278807   -0.648766
 O   -4.551114   -3.995673   -0.580515
 C   -5.386353   -3.545178   -1.623044
 H    0.595504    5.819622   -0.397906
 H   -1.576169    2.553535   -1.387816
 H    0.215472    0.864438   -1.825412
 H    1.889819   -0.932562   -2.026875
 H    3.527540    0.181907    1.781079
 H    1.890120    2.009491    1.952919
 H    5.499779   -0.414435    0.492443
 H    7.137707   -2.284691    0.207173
 H    6.323405   -4.456477   -0.718006
 H    2.479015   -3.041384   -1.053520
 H   -0.126997   -0.363058    1.749920
 H   -1.351606   -0.052706    2.997216
 H   -0.766352    2.376735    2.275310
 H   -2.041448    2.943223    1.173434
 H   -1.455468   -3.104860    2.546248
 H   -3.006756   -4.606028    1.300885
 H   -4.311403   -1.292156   -1.141599
 H   -5.946459   -4.417926   -1.961907
 H   -4.800132   -3.141507   -2.458347
 H   -6.086709   -2.777373   -1.270320
