67 
3lgp_ligand_ani.xyz
 N    3.457445    1.854097    0.060649
 C    2.238120    2.661083    0.133061
 C    2.713507    3.931892    0.858662
 C    3.861597    3.434702    1.740241
 C    4.560006    2.393144    0.862916
 C   -2.906901    0.748306   -1.675996
 C   -3.581478    1.922805   -1.292790
 C   -3.128389    3.163115   -1.754296
 C   -2.022985    3.188919   -2.590408
 C   -1.359377    2.005785   -2.958357
 C   -1.785824    0.766700   -2.499984
 N   -3.599365   -0.292814   -1.063536
 C   -4.608934    0.311366   -0.356421
 N   -4.639079    1.611627   -0.459496
 C    0.224816   -2.861695    0.198436
 S   -0.557229   -2.419643   -1.282172
 C   -2.077994   -2.162736   -0.483621
 C   -1.967176   -2.414879    0.853264
 C   -0.655194   -2.819099    1.241999
 C    3.456527    0.721857   -0.674755
 C    4.718465   -0.145842   -0.617980
 C    4.592004   -1.446967   -1.437453
 C    3.797539   -2.513824   -0.674878
 O    4.390409   -3.468946   -0.171588
 N    2.472333   -2.332922   -0.581450
 O    5.784109    0.622881   -1.117780
 C    1.672343   -3.233764    0.222864
 O    5.892942   -1.937946   -1.660454
 O    2.479452    0.403619   -1.349611
 C   -3.308122   -1.714896   -1.217135
 C   -5.559623   -0.492171    0.497877
 F   -6.198764   -1.441289   -0.219737
 F   -6.482328    0.286903    1.052859
 F   -4.901374   -1.131749    1.487646
 C    1.084166    1.968475    0.849286
 C    1.307666    1.044770    1.867247
 C    0.227814    0.488867    2.537712
 C   -1.079183    0.848327    2.243295
 C   -1.297824    1.785068    1.238981
 C   -0.228816    2.327698    0.538831
Cl    0.524488   -0.709017    3.770488
 H    1.899929    2.882648   -0.886280
 H    3.079267    4.658806    0.124425
 H    1.907537    4.406404    1.425849
 H    3.456656    2.948069    2.635863
 H    4.535257    4.233066    2.062075
 H    5.324395    2.831469    0.210686
 H    5.039793    1.603653    1.449102
 H   -3.639792    4.070358   -1.453116
 H   -1.657984    4.144842   -2.959147
 H   -0.488721    2.067783   -3.606205
 H   -1.258512   -0.146366   -2.759263
 H   -2.800847   -2.299773    1.538850
 H   -0.363379   -3.065053    2.257802
 H    4.910281   -0.433843    0.431805
 H    4.114016   -1.219079   -2.397270
 H    2.073590   -1.466855   -0.940961
 H    6.463812   -0.022547   -1.373492
 H    2.032457   -3.226967    1.261630
 H    1.825549   -4.260924   -0.139309
 H    5.962609   -2.728643   -1.092808
 H   -4.177268   -2.272559   -0.859031
 H   -3.210352   -1.923929   -2.287590
 H    2.313850    0.736144    2.138140
 H   -1.903076    0.395983    2.790952
 H   -2.307620    2.107029    1.011019
 H   -0.425026    3.044273   -0.255471
