28 
3lgs_ligand_ani.xyz
 C    3.370376   -1.242397    0.403636
 O    2.207513   -1.512853   -0.382084
 C    3.425548    0.268926    0.582327
 O    4.079587    0.832997   -0.530726
 C    1.943525    0.635201    0.552731
 O    1.771372    1.964115    0.147674
 C    1.401081   -0.366201   -0.477326
 N    0.014107   -0.728215   -0.222804
 C   -0.538441   -1.992286   -0.108916
 N   -1.833837   -1.991859    0.028098
 C   -2.170952   -0.646053    0.003467
 C   -3.396038    0.038854    0.087371
 N   -4.559119   -0.626618    0.244462
 N   -3.408601    1.380202    0.025852
 C   -2.244590    2.012354   -0.107185
 N   -1.017044    1.483242   -0.191847
 C   -1.044013    0.148766   -0.145857
 H    3.286137   -1.757869    1.369544
 H    4.250284   -1.607568   -0.131871
 H    3.915471    0.562715    1.522704
 H    3.662321    1.696310   -0.673651
 H    1.466547    0.434192    1.523276
 H    0.813718    2.093295   -0.012740
 H    1.473423    0.067124   -1.484541
 H    0.097972   -2.866809   -0.139569
 H   -4.558231   -1.632592    0.178396
 H   -5.426104   -0.117082    0.186813
 H   -2.296832    3.093977   -0.145077
