57 
3li2_ligand_xtb.xyz
 C   -4.935045   -1.706859    0.438985
 C   -4.529261   -0.742501   -0.649174
 C   -3.169912   -0.086710   -0.324432
 C   -2.724492    0.815322   -1.489836
 C   -1.343040    1.393029   -1.222123
 N   -1.338040    2.444900   -0.392865
 C   -0.144848    3.209406   -0.113641
 C    0.805308    2.496900    0.875846
 C    2.269411    2.905825    0.711247
 C    2.848921    2.580292   -0.675831
 N    2.513600    1.244201   -1.105061
 C    3.339707    0.207230   -0.923469
 C    2.728885   -1.153271   -1.227983
 C    3.222870   -2.146093   -0.157310
 C    2.466439   -3.496436   -0.230259
 C    0.994462   -3.247434   -0.058193
 O   -4.404377   -1.798302    1.514857
 O   -5.968796   -2.461330    0.073248
 O   -3.243645    0.695390    0.833950
 C   -2.116904   -1.193724   -0.161933
 O   -2.035181   -1.975774   -1.200117
 O   -1.446603   -1.293571    0.844029
 O   -0.333359    0.947439   -1.743496
 C   -0.571177    4.549229    0.452464
 O    0.422371    5.436156    0.458189
 O   -1.672244    4.787257    0.870102
 O    4.494109    0.315556   -0.534440
 C    3.011991   -1.583654    1.262627
 O    4.581062   -2.425364   -0.339562
 O    2.118322   -0.586543    1.314358
 O    3.585612   -1.986957    2.232529
 O    0.669500   -2.878146    1.155841
 O    0.192280   -3.333438   -0.970382
 H   -4.488238   -1.277412   -1.597602
 H   -5.295132    0.033026   -0.718847
 H   -2.678962    0.224064   -2.403725
 H   -3.446807    1.624228   -1.597849
 H   -2.166421    2.680965    0.138512
 H    0.383766    3.368914   -1.059100
 H    0.479066    2.700926    1.897841
 H    0.710986    1.423628    0.707609
 H    2.852045    2.367975    1.460311
 H    2.385163    3.974779    0.892051
 H    2.491811    3.292362   -1.424169
 H    3.938529    2.645026   -0.628077
 H    1.553715    1.077325   -1.393657
 H    1.643141   -1.086561   -1.254226
 H    3.086912   -1.504058   -2.198095
 H    2.666525   -3.959631   -1.195247
 H    2.848998   -4.126207    0.573488
 H   -6.222696   -3.070953    0.785092
 H   -3.258236    0.097115    1.596746
 H   -1.247689   -2.608716   -1.143891
 H    0.132912    6.273963    0.855144
 H    5.040881   -1.564017   -0.353561
 H    1.997014   -0.309270    2.237040
 H   -0.228487   -2.443460    1.194922
