71 
3lik_ligand_dft.xyz
 C    6.361777    2.421043   -0.634541
 N    4.750871    0.851302    0.108352
 O    4.480374    0.161958   -2.038069
 C    4.893644    2.265344   -0.214044
 N    3.251219   -1.998037   -0.417868
 O    2.839921   -1.515569    1.753275
 C    4.510045    3.124521    0.987422
 C    2.998500    3.113934    1.272889
 O    7.570237   -0.301431    0.450873
 C    2.424125    1.724048    1.451035
 C    4.636676   -0.094277   -0.849022
 C    4.634001   -1.543845   -0.342084
 S   -6.397939   -2.401681   -0.790700
 C    5.587520   -2.417222   -1.160437
 O    2.971317    1.080998    2.485750
 C    7.055373   -2.306188   -0.700447
 N    6.582571    2.344973   -1.964572
 O    7.256139    2.500008    0.205662
 C    7.580387   -0.885855   -0.755357
 C    2.407644   -1.776094    0.630660
 C    0.931443   -1.865992    0.310396
 C    0.044405   -1.670277    1.540805
 C   -1.882626   -0.323717    0.644007
 C   -3.619512   -2.476790    0.846353
 C   -4.095630   -1.264197    0.338068
 C   -3.202204   -0.189597    0.237536
 C   -5.497664   -1.098277   -0.074167
 C   -6.279781    0.018029    0.030589
 C   -7.616028   -0.161074   -0.450425
 C   -8.651515    0.892815   -0.435466
 C   -9.994426    0.578248   -0.199139
 C  -10.967894    1.570585   -0.199889
 C  -10.615063    2.898153   -0.427605
 C   -9.281114    3.224276   -0.656513
 C   -8.308690    2.230500   -0.661834
 C   -1.406456   -1.536959    1.150099
 C   -2.292917   -2.609287    1.240276
 C   -7.813053   -1.431706   -0.919169
 O    7.927698   -0.325168   -1.770406
 O    1.575144    1.240490    0.731334
 H    5.003863    0.563546    1.043666
 H    4.228476    2.472604   -1.057717
 H    2.843697   -2.015824   -1.344387
 H    4.821395    4.155263    0.791860
 H    5.073514    2.792848    1.865062
 H    2.809650    3.684385    2.188756
 H    2.449331    3.587215    0.455226
 H    7.789246    0.652734    0.349748
 H    4.901478   -1.586682    0.715810
 H    5.504917   -2.146624   -2.218107
 H    5.276507   -3.460729   -1.051687
 H    2.708110    0.132234    2.426009
 H    7.154899   -2.688848    0.319142
 H    7.676298   -2.913165   -1.364226
 H    7.528080    2.097538   -2.230579
 H    5.854386    1.917588   -2.526394
 H    0.715475   -1.077256   -0.420509
 H    0.717656   -2.823296   -0.181436
 H    0.184775   -2.502760    2.237748
 H    0.372262   -0.761607    2.052436
 H   -1.199179    0.518577    0.560557
 H   -4.298280   -3.318506    0.954978
 H   -3.546629    0.752758   -0.178535
 H   -5.931820    0.934535    0.494433
 H  -10.271059   -0.451767    0.008255
 H  -12.004811    1.308217   -0.011364
 H  -11.374723    3.673857   -0.423770
 H   -8.997173    4.256684   -0.838388
 H   -7.272895    2.489719   -0.863040
 H   -1.945930   -3.559714    1.638984
 H   -8.709571   -1.835428   -1.370022
