71 
3lik_ligand_ani.xyz
 C    7.291151    2.291679   -0.547317
 N    5.503335    0.710463   -0.036566
 O    4.467042    0.159881   -1.986455
 C    5.780739    2.084268   -0.358793
 N    3.010087   -1.615965   -0.412601
 O    2.554945   -1.519986    1.810616
 C    5.263278    3.018762    0.746666
 C    3.730621    3.053417    0.842733
 O    7.772945   -1.071982    0.543251
 C    3.081363    1.706841    1.083990
 C    4.828766   -0.133613   -0.855822
 C    4.449782   -1.499010   -0.254555
 S   -6.526700   -2.282696   -0.743807
 C    5.180575   -2.647051   -0.970224
 O    3.553529    1.085935    2.172296
 C    6.607686   -2.887610   -0.453028
 N    7.632375    3.345375   -1.323832
 O    8.140993    1.608163    0.012543
 C    7.464391   -1.654401   -0.623295
 C    2.157486   -1.530919    0.642571
 C    0.688637   -1.444502    0.279556
 C   -0.157874   -0.890512    1.427796
 C   -2.261117    0.283600    0.651919
 C   -3.715953   -2.079391    0.808083
 C   -4.352627   -0.909888    0.372776
 C   -3.605670    0.269166    0.302243
 C   -5.776229   -0.899785   -0.012086
 C   -6.678311    0.116574    0.118132
 C   -7.987588   -0.200175   -0.374646
 C   -9.135745    0.735265   -0.366574
 C  -10.424125    0.286558   -0.064256
 C  -11.497084    1.170787   -0.059974
 C  -11.299202    2.514147   -0.366308
 C  -10.019498    2.970292   -0.671371
 C   -8.947452    2.086982   -0.665744
 C   -1.625613   -0.879129    1.090907
 C   -2.374329   -2.057005    1.158998
 C   -8.037256   -1.472990   -0.867701
 O    7.794129   -1.216380   -1.700694
 O    2.217145    1.239748    0.369643
 H    5.858626    0.371186    0.844777
 H    5.253662    2.289927   -1.298640
 H    2.674606   -1.283377   -1.310518
 H    5.621139    4.035236    0.552264
 H    5.688020    2.704064    1.706121
 H    3.438037    3.718369    1.664649
 H    3.292747    3.458465   -0.074689
 H    8.140690   -0.179050    0.333050
 H    4.656634   -1.538503    0.822353
 H    5.198715   -2.434556   -2.045236
 H    4.592262   -3.556244   -0.817332
 H    3.155437    0.185044    2.216202
 H    6.592857   -3.186074    0.599582
 H    7.066156   -3.694164   -1.035422
 H    8.610461    3.468252   -1.540195
 H    6.954050    3.823522   -1.893734
 H    0.570393   -0.821750   -0.614749
 H    0.348535   -2.453091    0.006677
 H    0.027558   -1.497020    2.320810
 H    0.185743    0.122689    1.660044
 H   -1.699519    1.213611    0.586333
 H   -4.276907   -3.006284    0.881801
 H   -4.080912    1.182433   -0.046581
 H   -6.441829    1.058298    0.604288
 H  -10.586167   -0.759177    0.187280
 H  -12.493022    0.807661    0.179654
 H  -12.139599    3.203306   -0.367227
 H   -9.855617    4.017496   -0.911199
 H   -7.947074    2.434904   -0.912583
 H   -1.895347   -2.976788    1.489865
 H   -8.882326   -1.961533   -1.333412
