70 
3lil_ligand_xtb.xyz
 C   -3.904597    3.426626   -0.743631
 N   -2.160946   -0.658781    0.517698
 O   -3.272156   -1.752769    2.150464
Cl    9.219622    0.835377    0.755179
 C   -2.546772    4.123207   -0.890416
 N   -4.055881    1.297313    0.397000
 O   -3.780090    3.160113    1.640033
 C   -1.442976    3.132509   -1.016686
 C   -0.148058    3.138293   -0.589926
 O   -5.524235   -2.604456   -0.024118
 C    0.373919    1.894307   -1.037049
 C    1.703353    1.342038   -0.837878
 C    2.166375    0.316395   -1.660323
 C    3.406227   -0.247459   -1.443619
 O   -3.124713   -3.738055   -0.254425
 C    4.220538    0.200449   -0.404163
 N    1.228327   -1.198665    1.707855
 O   -0.061828    0.635571    1.517872
 C    3.755713    1.231937    0.410105
 C    2.514464    1.797148    0.198470
 C   -3.916047    2.633460    0.556772
 N   -0.556791    1.224604   -1.678279
 O   -1.683993    1.979856   -1.668288
 C   -4.126217    0.401023    1.524997
 C   -3.151813   -0.782689    1.432142
 C   -5.553829   -0.084932    1.842343
 C   -6.385671   -0.446925    0.601004
 C   -5.617418   -1.419384   -0.255975
 C    5.540875   -0.403491   -0.173912
 C    6.631803    0.398461    0.152203
 C    7.872184   -0.176728    0.361233
 C    8.054826   -1.546415    0.257661
 C    6.968860   -2.342660   -0.063287
 C    5.724445   -1.780864   -0.279466
 C   -0.941156   -1.429734    0.638755
 C   -0.418699   -1.888326   -0.731509
 C   -1.027743   -3.222315   -1.184300
 C   -2.530199   -3.084649   -1.214930
 C    0.105561   -0.548205    1.337971
 O   -5.020545   -0.832033   -1.275974
 O   -3.104623   -2.405372   -2.045188
 H   -4.685408    4.186332   -0.683406
 H   -4.093944    2.782465   -1.601881
 H   -2.038834    0.244469    0.079881
 H   -2.557783    4.766483   -1.775357
 H   -2.358189    4.743866   -0.013305
 H   -4.236749    0.904822   -0.516332
 H    0.354881    3.905627   -0.043208
 H    1.541701   -0.021843   -2.472034
 H    3.762984   -1.027600   -2.100015
 H   -4.094080   -3.518078   -0.170687
 H    1.950954   -0.684546    2.184292
 H    1.310185   -2.197137    1.644242
 H    4.367235    1.576988    1.231159
 H    2.156095    2.572062    0.857052
 H   -3.772430    0.984248    2.388687
 H   -6.086224    0.691600    2.391940
 H   -5.452931   -0.964105    2.481498
 H   -6.610311    0.446785    0.018326
 H   -7.314266   -0.913519    0.929067
 H    6.517926    1.469099    0.219620
 H    9.028731   -1.978091    0.424463
 H    7.098894   -3.411384   -0.144351
 H    4.882570   -2.414237   -0.516226
 H   -1.175038   -2.288136    1.280164
 H   -0.650773   -1.108171   -1.459499
 H    0.666205   -1.994651   -0.690527
 H   -0.761164   -4.025812   -0.498164
 H   -0.668834   -3.454870   -2.187057
 H   -4.388187   -1.454671   -1.748846
