70 
3lil_ligand_ani.xyz
 C   -4.093698    3.127460   -0.394970
 N   -1.998419   -0.213737    1.258384
 O   -3.208888   -2.122878    1.259962
Cl    8.885376    0.409491    1.248246
 C   -2.847197    4.008242   -0.554341
 N   -4.643364    0.998825    0.663834
 O   -3.213632    2.400246    1.722579
 C   -1.617076    3.241010   -0.921244
 C   -0.497106    2.860418   -0.246904
 O   -5.232524   -3.125897   -0.712875
 C    0.277633    2.172214   -1.226474
 C    1.605781    1.549769   -1.065128
 C    2.172632    0.790228   -2.090341
 C    3.376287    0.133241   -1.888587
 O   -2.547315   -3.690094   -0.958160
 C    4.059427    0.230339   -0.673388
 N    1.451836   -0.719382    2.314395
 O   -0.009978    0.995768    2.512046
 C    3.487544    1.004258    0.341664
 C    2.278926    1.653470    0.152470
 C   -3.936510    2.154421    0.759859
 N   -0.355022    2.121719   -2.376787
 O   -1.538536    2.791234   -2.182717
 C   -4.442539   -0.072822    1.625345
 C   -3.165182   -0.903563    1.356110
 C   -5.674653   -0.981622    1.769057
 C   -6.420326   -1.387306    0.477697
 C   -5.509727   -1.946511   -0.587498
 C    5.358647   -0.451654   -0.460075
 C    6.387218    0.204749    0.223124
 C    7.608353   -0.427687    0.409823
 C    7.831541   -1.719587   -0.052802
 C    6.803292   -2.375459   -0.722963
 C    5.581107   -1.747880   -0.932192
 C   -0.722659   -0.898241    1.190137
 C   -0.177044   -1.090956   -0.249617
 C   -0.532221   -2.432968   -0.900372
 C   -1.980291   -2.555173   -1.303118
 C    0.265381   -0.104124    2.060160
 O   -5.004441   -0.991104   -1.369963
 O   -2.542557   -1.671266   -1.941371
 H   -4.961524    3.765968   -0.185264
 H   -4.312973    2.585646   -1.323846
 H   -1.947748    0.762916    1.548485
 H   -3.030200    4.768107   -1.319619
 H   -2.662779    4.516340    0.394663
 H   -4.985255    0.724155   -0.248296
 H   -0.296871    2.973803    0.807943
 H    1.658198    0.699322   -3.043126
 H    3.806317   -0.448059   -2.700981
 H   -3.533218   -3.589875   -1.006559
 H    2.174304   -0.146014    2.727033
 H    1.762952   -1.493831    1.749460
 H    3.982815    1.080143    1.306297
 H    1.844842    2.218613    0.973381
 H   -4.280281    0.434921    2.584791
 H   -6.398430   -0.471423    2.411234
 H   -5.348475   -1.882446    2.296695
 H   -6.960412   -0.526910    0.070596
 H   -7.152587   -2.158643    0.727042
 H    6.242905    1.220186    0.583283
 H    8.792127   -2.197482    0.110072
 H    6.961318   -3.384336   -1.093287
 H    4.781618   -2.272143   -1.450528
 H   -0.849863   -1.898408    1.631413
 H   -0.519172   -0.265866   -0.881502
 H    0.918124   -1.036294   -0.218533
 H   -0.260275   -3.276117   -0.258044
 H    0.041640   -2.526152   -1.829795
 H   -4.185972   -1.343118   -1.810585
