60 
3lir_ligand_xtb.xyz
 C   -5.447484   -2.285056    0.135761
 N   -3.478838   -0.924904    0.036020
 O   -2.040481   -0.304622    1.657911
 C   -4.553925   -1.316884    0.913380
 N   -0.370633    0.951431   -0.054220
 O   -1.480105    2.915127   -0.197260
 C   -5.354013   -0.087927    1.398340
 N    3.689305    0.400189   -1.310770
 C   -5.791194    0.813131    0.238475
 O    2.103575   -1.761321   -1.667369
 C   -4.596025    1.528939   -0.369616
 O    2.716542    1.343401   -1.393990
 C   -2.333432   -0.380280    0.482846
 C   -1.425228    0.153415   -0.639664
 C   -0.884117   -0.980726   -1.518933
 O   -3.975052    2.291221    0.508003
 C   -0.050070   -2.022248   -0.750827
 N   -6.337416   -2.954145    0.897025
 O   -5.367785   -2.422150   -1.063225
 C    1.364856   -1.513462   -0.604727
 C   -0.508698    2.262902    0.166395
 C    0.672201    2.930337    0.850317
 C    1.797207    3.242987   -0.158869
 C    3.771327    1.691214    0.510919
 C    4.330733    0.583722   -0.175606
 C    5.427304   -0.281456    0.227853
 C    6.062378   -1.088211   -0.716014
 C    7.102695   -1.914153   -0.337620
 C    7.518652   -1.949140    0.984014
 C    6.887264   -1.155722    1.927498
 C    5.847948   -0.324007    1.554879
 C    2.761703    2.120771   -0.303541
 O    1.763911   -0.891288    0.354218
 O   -4.251072    1.403470   -1.519839
 H   -3.715190   -0.937275   -0.948467
 H   -4.122266   -1.822003    1.786041
 H    0.373160    0.443987    0.410769
 H   -4.715483    0.488444    2.069851
 H   -6.230915   -0.423738    1.954574
 H   -6.289274    0.236943   -0.541996
 H   -6.475541    1.572574    0.619229
 H    2.937529   -1.223741   -1.643398
 H   -2.030000    0.823879   -1.264880
 H   -0.278562   -0.552978   -2.320765
 H   -1.735991   -1.483202   -1.978299
 H   -3.122039    2.658104    0.147389
 H   -0.480534   -2.201318    0.234470
 H   -0.022878   -2.951018   -1.319512
 H   -6.359580   -2.867145    1.896858
 H   -6.961635   -3.607255    0.452868
 H    1.050507    2.298050    1.653582
 H    0.308006    3.866716    1.273490
 H    1.361746    3.472142   -1.132695
 H    2.349258    4.118158    0.189541
 H    4.071471    2.106816    1.448558
 H    5.733947   -1.048721   -1.743346
 H    7.592609   -2.533294   -1.074444
 H    8.332384   -2.595201    1.278456
 H    7.205624   -1.186489    2.959104
 H    5.349956    0.279991    2.297501
