73 
3liw_ligand_dft.xyz
 C    5.283989   -0.357589    1.356623
 C    3.761242   -0.484752    1.189723
 C    3.238677    0.802853    0.517847
 N    1.788151    0.820151    0.407395
 C    1.000868    1.070060    1.496568
 O    1.427530    1.162061    2.639293
 N   -0.345736    1.214256    1.180147
 C   -1.332178    1.089844    2.243820
 C   -2.664910    1.662919    1.726162
 O   -3.752219    1.168401    1.987998
 N   -2.515231    2.779803    0.968209
 C   -3.567812    3.243990    0.086619
 C   -3.758443    2.322115   -1.137265
 C   -2.441479    1.885081   -1.738323
 C   -1.511156    2.822472   -2.199199
 C   -0.272146    2.420115   -2.686940
 C    0.058446    1.065878   -2.727832
 C   -0.857658    0.120630   -2.270775
 C   -2.097192    0.531845   -1.781622
 C   -1.483106   -0.345821    2.788693
 C   -1.578315   -1.368663    1.683937
 C   -0.424237   -1.986178    1.192415
 C   -0.490085   -2.858514    0.110736
 C   -1.711861   -3.124676   -0.499830
 C   -2.877064   -2.522100   -0.016294
 C   -4.195547   -2.736739   -0.689541
 N   -4.342215   -3.965583   -1.309831
 N   -5.136457   -1.873011   -0.783465
 C   -2.799039   -1.657604    1.076535
 C    3.873858    0.938696   -0.877122
 C    3.558293   -0.298083   -1.739370
 C    4.105992   -1.561097   -1.057024
 C    3.435435   -1.706859    0.318426
 C    5.627605   -1.432381   -0.883431
 C    5.947619   -0.200206   -0.021282
 C    5.397576    1.060122   -0.710250
 H    5.677919   -1.247391    1.863780
 H    5.521868    0.505126    1.992407
 H    3.284169   -0.577005    2.169927
 H    3.544236    1.657500    1.136411
 H    1.383392    0.972418   -0.506722
 H   -0.625837    0.759114    0.316056
 H   -0.989173    1.727858    3.065032
 H   -1.561979    2.970056    0.686740
 H   -3.306211    4.258244   -0.229304
 H   -4.500158    3.301154    0.652292
 H   -4.371781    2.844818   -1.881169
 H   -4.321037    1.437962   -0.823331
 H   -1.757751    3.881762   -2.175837
 H    0.435065    3.162651   -3.044955
 H    1.016137    0.751548   -3.132890
 H   -0.617071   -0.938133   -2.290717
 H   -2.808918   -0.212439   -1.437769
 H   -2.369580   -0.376274    3.427462
 H   -0.604143   -0.548137    3.407215
 H    0.533465   -1.777100    1.662959
 H    0.416818   -3.325672   -0.263169
 H   -1.763328   -3.779888   -1.364316
 H   -5.284511   -4.122393   -1.643792
 H   -3.943592   -4.758591   -0.827039
 H   -4.857498   -0.991790   -0.353315
 H   -3.696412   -1.184577    1.463255
 H    3.482013    1.843446   -1.361631
 H    2.477036   -0.408688   -1.888939
 H    4.007876   -0.173475   -2.733289
 H    3.877687   -2.437873   -1.675170
 H    2.349614   -1.795338    0.192353
 H    3.783813   -2.620892    0.816069
 H    6.111766   -1.341349   -1.864945
 H    6.028924   -2.336993   -0.408357
 H    7.033085   -0.104615    0.099872
 H    5.640899    1.951785   -0.118434
 H    5.866868    1.188032   -1.694289
