64 
3ljg_ligand_dft.xyz
 C   -2.894995    3.915537   -0.897382
 N   -2.603916    1.491635   -0.940494
 O   -0.733246   -0.366958   -1.608549
 C   -3.268932    2.535384   -0.384823
 N   -0.906991   -1.252875    0.470874
 O   -4.079468    2.387942    0.521903
 C   -2.729741    0.154149   -0.400040
 N    0.758606   -4.426262    1.032915
 C   -3.823865   -0.639969   -1.157890
 C   -4.525312   -1.734416   -0.339767
 O   -0.900922   -3.357338    2.139870
 O   -3.444896   -2.687364    1.530492
 O   -2.862807   -3.476332   -0.493750
 C   -3.540932   -2.746585    0.195812
 C   -1.359817   -0.509789   -0.563154
 C    0.158198   -2.216086    0.274549
 C    1.573750   -1.601029    0.433133
 C    2.266169   -1.324254   -0.894519
 C   -0.060277   -3.385966    1.239587
 C   -2.039868    4.648364    0.158827
 C    0.426462    4.441219   -0.355352
 C    1.643606    3.777218   -0.266988
 C    1.778505    2.621350    0.508692
 C   -0.694760    3.988007    0.339958
 C    3.067226    1.885481    0.561936
 C    3.464673    1.201388    1.717203
 C    4.654947    0.482558    1.750617
 C    5.111631    1.137304   -0.517739
 C    3.912026    1.840328   -0.554677
 C    5.485459    0.448448    0.633350
 C    0.656737    2.177913    1.219501
 C   -0.553800    2.853368    1.143330
 C    2.640193   -2.576799   -1.635334
 O    3.263324   -2.317475   -2.791425
 O    2.434202   -3.721068   -1.273739
 H   -3.825359    4.467155   -1.059791
 H   -2.353250    3.864316   -1.848601
 H   -1.866506    1.633708   -1.617037
 H   -1.497528   -1.409768    1.279079
 H   -3.011742    0.250581    0.653925
 H    1.420545   -4.419228    0.260959
 H    0.650337   -5.245834    1.610152
 H   -3.389560   -1.066235   -2.068062
 H   -4.582695    0.085802   -1.461814
 H   -5.231983   -2.257935   -0.990767
 H   -5.078973   -1.286527    0.489093
 H   -2.663360   -3.219864    1.805897
 H    0.049353   -2.620382   -0.738341
 H    1.471284   -0.657128    0.971017
 H    2.209100   -2.248106    1.045675
 H    3.184531   -0.748750   -0.737834
 H    1.619127   -0.722261   -1.542208
 H   -1.907377    5.689673   -0.153215
 H   -2.597394    4.655659    1.101212
 H    0.348758    5.333640   -0.972274
 H    2.504898    4.175594   -0.795249
 H    2.843247    1.244905    2.607126
 H    4.940324   -0.040821    2.658382
 H    5.746552    1.112558   -1.398505
 H    3.611848    2.333275   -1.474477
 H    6.418253   -0.106604    0.660772
 H    0.716224    1.278055    1.824786
 H   -1.411961    2.482483    1.698596
 H    3.456217   -3.175444   -3.202966
