29 
3lk8_ligand_xtb.xyz
 O    0.484154    1.962503    1.469611
 C    1.403540    1.652668    0.727364
 N    1.417876    2.009843   -0.567547
 O    0.264604    2.615342   -1.076310
 C    2.636601    0.866213    1.152931
 N    2.372386   -0.557949    1.162701
 S    1.762761   -1.217471   -0.253008
 O    2.399138   -0.508711   -1.331185
 O    1.937002   -2.631407   -0.147655
 C    0.012944   -0.847767   -0.264471
 C   -0.562270   -0.272463   -1.384705
 C   -1.906632    0.027709   -1.381816
 C   -2.690550   -0.246712   -0.255187
 O   -3.992558    0.100565   -0.346910
 C   -4.842868   -0.132994    0.753683
 C   -2.103089   -0.849327    0.857284
 C   -0.752845   -1.150688    0.842794
 H    1.933499    1.479941   -1.264399
 H   -0.287231    2.764279   -0.281508
 H    2.939237    1.175215    2.154618
 H    3.451927    1.037317    0.448451
 H    1.868770   -0.882412    1.972727
 H    0.053235   -0.063781   -2.244730
 H   -2.377832    0.484594   -2.236502
 H   -4.911010   -1.199419    0.988210
 H   -4.511270    0.417624    1.638910
 H   -5.822135    0.231293    0.448264
 H   -2.682937   -1.083726    1.734926
 H   -0.297971   -1.630811    1.695406
