21 
3lka_ligand_ani.xyz
 C   -0.081073    1.327115   -0.063552
 N    2.769189   -0.215569    1.452912
 O   -3.595044    0.501062    0.048591
 S    2.278975   -0.077916   -0.127859
 C   -1.458772    1.438170   -0.012910
 O    2.603098   -1.346660   -0.750779
 C   -2.254251    0.286045   -0.007150
 O    2.806160    1.189568   -0.595237
 C   -1.662435   -0.976249   -0.061703
 C    0.506236    0.062900   -0.103713
 C   -4.434071   -0.631522    0.089800
 C   -0.275258   -1.083883   -0.115477
 H    0.550597    2.210699   -0.083899
 H    2.473530   -1.076735    1.897295
 H    2.599310    0.614534    2.008502
 H   -1.950958    2.404802    0.021492
 H   -2.266444   -1.876497   -0.065966
 H   -4.324969   -1.246172   -0.813566
 H   -4.227490   -1.251988    0.971901
 H   -5.454434   -0.249780    0.146492
 H    0.196962   -2.060439   -0.179265
