21 
3lka_ligand_dft.xyz
 C   -0.096095    1.335548   -0.041949
 N    2.686573   -0.332046    1.471074
 O   -3.598704    0.485624    0.062577
 S    2.265678   -0.062823   -0.133751
 C   -1.474483    1.435654    0.007292
 O    2.611380   -1.289316   -0.836492
 C   -2.265019    0.279156    0.012663
 O    2.793954    1.232423   -0.537313
 C   -1.661572   -0.981679   -0.038770
 C    0.499743    0.074880   -0.083093
 C   -4.452824   -0.639312    0.059831
 C   -0.275568   -1.077345   -0.087249
 H    0.522623    2.226049   -0.065230
 H    3.341894   -1.106626    1.516705
 H    3.076824    0.509506    1.884174
 H   -1.967972    2.400942    0.034738
 H   -2.254192   -1.888486   -0.048216
 H   -4.334004   -1.229862   -0.856954
 H   -4.274398   -1.279723    0.932488
 H   -5.467579   -0.243549    0.104661
 H    0.201795   -2.050013   -0.142398
