59 
3lkh_ligand_ani.xyz
 C    2.548625    4.690570    0.261701
 F    2.225409    0.619341    2.272281
 N    3.587194    0.304181   -0.459658
 O   -1.043304    1.664946   -1.526893
 C    2.554894    3.223675   -0.164542
 N   -0.969461   -1.369994   -1.563844
 O   -2.117000   -3.313500   -1.263115
 C    3.930149    2.784428   -0.677857
 O    1.372427   -2.701217   -0.967707
 C    3.965258    1.404326   -1.341107
 O    1.512832    0.231802   -1.361878
 C    4.580384   -0.173871    0.491267
 C   -5.840065    2.153942    0.981428
 C   -5.965135    0.769079    0.941488
 C   -4.854013   -0.025783    0.673139
 C   -3.604864    0.550848    0.435315
 C   -3.491866    1.944162    0.470487
 C   -4.599163    2.740039    0.745814
 C   -2.397433   -0.305834    0.131649
 C   -2.137243   -0.525731   -1.371376
 C   -1.949210    0.777670   -2.145300
 C   -1.063168   -2.713322   -1.405457
 C    0.275786   -3.455962   -1.454615
 C    1.342992   -2.319220    0.352136
 C    0.906951   -3.163256    1.371013
 C    0.921271   -2.715664    2.689475
 C    1.362181   -1.436977    3.003220
 C    1.808178   -0.631979    1.967769
 C    1.839005   -1.036966    0.637392
 C    2.298947   -0.117813   -0.471341
 H    1.560050    4.993217    0.622398
 H    2.815299    5.348506   -0.573879
 H    3.268161    4.868885    1.069437
 H   -0.153776    1.279139   -1.560202
 H    2.252603    2.600176    0.687377
 H    1.801384    3.068101   -0.950535
 H   -0.048781   -0.936688   -1.555646
 H    4.282877    3.512637   -1.421528
 H    4.655647    2.812838    0.147840
 H    3.287466    1.376338   -2.197197
 H    4.979782    1.203157   -1.704950
 H    4.429020   -1.241151    0.670489
 H    4.526842    0.356145    1.448532
 H    5.574791   -0.034784    0.057318
 H   -6.705599    2.775976    1.194816
 H   -6.930368    0.303555    1.126004
 H   -4.960909   -1.109354    0.657260
 H   -2.526439    2.394300    0.247424
 H   -4.494240    3.821482    0.773680
 H   -1.501397    0.152987    0.571098
 H   -2.516322   -1.297296    0.584127
 H   -2.986540   -1.069652   -1.797220
 H   -2.906717    1.308115   -2.204173
 H   -1.642132    0.540424   -3.176019
 H    0.152931   -4.405219   -0.923597
 H    0.530196   -3.687769   -2.493141
 H    0.562044   -4.166962    1.141804
 H    0.573436   -3.375515    3.479031
 H    1.373458   -1.059395    4.020000
