128 
3lkj_ligand_ani.xyz
 C   -4.450483   -2.554780   -1.532710
 N   -5.788141   -2.357860   -1.702220
 O   -3.921831   -3.650480   -1.683039
 C   -6.656798   -3.537199   -1.737979
 N   -6.110013   -4.254251    0.616600
 O    1.957448   -3.854742    1.831685
 C   -7.836734   -3.124452   -2.641972
 N    3.954781   -3.176160    0.959963
 O    2.976522    2.006468   -1.757196
 C   -7.413642   -1.797765   -3.286662
 N    2.843517   -1.236096   -0.384336
 O   -8.027048    4.172733   -1.120988
 C   -6.485942   -1.187808   -2.236132
 N    4.636816    0.467847   -1.754734
 O   -7.905329    1.937814   -1.044988
 C   -7.155918   -3.928055   -0.334226
 N    4.992314    3.634669   -1.054764
 O   -3.340094    3.095300    0.196230
 C   -5.265943   -5.326701    0.513502
 N   -5.339379    2.072998   -0.189038
 C   -4.395483   -5.300286    1.576093
 N   -4.145731   -0.207766   -0.835541
 C   -4.720048   -4.154141    2.359167
 C   -5.779528   -3.536362    1.738161
 C   -3.587534   -1.386008   -1.113920
 C   -2.217510   -1.618973   -0.998017
 C   -1.375118   -0.570898   -0.622116
 C    0.099170   -0.776293   -0.507872
 C    0.613692   -1.875181    0.190068
 C    1.987195   -2.033505    0.258361
 C    2.612672   -3.126449    1.101396
 C    4.821691   -3.982746    1.789459
 C    6.253422   -3.508119    1.635408
 C    7.299966   -4.425962    1.562861
 C    8.612674   -3.991660    1.397680
 C    8.897258   -2.635898    1.302216
 C    7.869981   -1.692777    1.391880
 C    8.167854   -0.235971    1.330486
 C    9.163168    0.268413    0.485215
 C    9.482550    1.622058    0.491301
 C    8.805731    2.501026    1.333726
 C    7.793945    2.012805    2.158221
 C    7.475637    0.660561    2.149962
 C    6.560482   -2.147435    1.555761
 C    2.370319   -0.151524   -0.994369
 C    3.362473    0.847372   -1.540674
 C    5.636999    1.477457   -2.158662
 C    6.867751    0.642719   -2.528326
 C    6.304282   -0.727602   -2.892487
 C    5.174474   -0.891743   -1.882398
 C    5.933683    2.489428   -1.048467
 C    4.873969    4.349129    0.259688
 C    5.158177    5.833854   -0.013038
 C    4.852422    5.994668   -1.502680
 C    5.327762    4.668953   -2.090617
 C    1.005861    0.122834   -1.076324
 C   -1.963208    0.667783   -0.352094
 C   -3.340559    0.787131   -0.449501
 C   -3.993649    2.105548   -0.113284
 C   -6.172760    3.225969    0.046185
 C   -6.450909    3.442394    1.556609
 C   -7.297987    4.684484    1.830608
 C   -7.293442    5.035771    3.330014
 C   -7.194695    3.778486    4.216870
 C   -7.823991    2.569421    3.523988
 C   -7.063400    2.201206    2.236841
 C   -7.445343    3.021021   -0.757264
 H   -6.069808   -4.360840   -2.155976
 H   -8.731943   -2.973066   -2.026791
 H   -8.077543   -3.897205   -3.377517
 H    4.375334   -2.521190    0.315902
 H   -8.259613   -1.145464   -3.520939
 H   -6.854611   -1.976504   -4.211612
 H   -8.837189    3.933653   -1.603254
 H   -5.782507   -0.454456   -2.634428
 H   -7.063773   -0.716591   -1.431412
 H   -7.717410   -3.087426    0.087788
 H   -7.838408   -4.783012   -0.422725
 H    4.063032    3.235886   -1.302075
 H   -5.320301   -5.990923   -0.341260
 H   -5.792235    1.203545   -0.441709
 H   -3.602792   -6.015773    1.764922
 H   -4.235745   -3.820405    3.268695
 H   -6.319469   -2.628099    1.977439
 H   -1.825828   -2.606878   -1.215458
 H   -0.038936   -2.581704    0.693104
 H    4.480463   -3.918106    2.830907
 H    4.733660   -5.039261    1.506442
 H    7.084915   -5.490512    1.625431
 H    9.419487   -4.717926    1.335705
 H    9.924821   -2.295580    1.188900
 H    9.675966   -0.398655   -0.204663
 H   10.274582    1.990621   -0.155758
 H    9.066514    3.555881    1.345691
 H    7.250575    2.690040    2.813897
 H    6.706258    0.283951    2.819399
 H    5.760746   -1.408387    1.615270
 H    5.244499    2.006596   -3.037278
 H    7.520894    0.547370   -1.649481
 H    7.445342    1.105082   -3.333517
 H    7.038790   -1.533989   -2.819747
 H    5.897655   -0.724496   -3.910292
 H    4.402999   -1.600406   -2.185875
 H    5.577922   -1.198401   -0.911284
 H    6.954926    2.880985   -1.154381
 H    5.887818    1.980501   -0.079319
 H    3.860869    4.189258    0.638256
 H    5.574296    3.913991    0.976351
 H    4.557525    6.487774    0.625007
 H    6.213224    6.055818    0.185642
 H    3.775331    6.116332   -1.669667
 H    5.359134    6.850571   -1.958367
 H    4.851188    4.411893   -3.041208
 H    6.412921    4.676418   -2.238197
 H    0.665783    1.019412   -1.583552
 H   -1.372772    1.527823   -0.051282
 H   -5.655055    4.111001   -0.337386
 H   -5.456413    3.614102    1.991081
 H   -8.325690    4.495814    1.497007
 H   -6.929960    5.529775    1.238915
 H   -6.457680    5.707879    3.561700
 H   -8.211174    5.590151    3.561688
 H   -7.674265    3.961014    5.185534
 H   -6.141045    3.557508    4.434677
 H   -7.852709    1.706206    4.198623
 H   -8.869087    2.802986    3.278207
 H   -6.253371    1.499300    2.467104
 H   -7.744449    1.680513    1.552350
