42 
3lm1_ligand_dft.xyz
 C   -2.101769    4.488428   -0.482123
 C   -1.884208    3.028156   -0.823806
 O   -1.448054    2.671745   -1.909090
 N   -2.205045    2.138426    0.157682
 C   -2.254193    0.715861   -0.090086
 C   -2.782530    0.008290    1.165241
 O   -4.039695    0.517109    1.542583
 C   -2.854636   -1.496023    0.902390
 O   -3.918223   -1.674274   -0.009834
 C   -1.502024   -2.011434    0.395285
 C   -1.542383   -3.451377   -0.099735
 O   -2.385438   -3.583435   -1.234926
 O   -1.026404   -1.256477   -0.717905
 C   -0.898465    0.122139   -0.486316
 O    0.005087    0.393489    0.565224
 C    1.334463    0.218035    0.357575
 C    1.875817   -0.457675   -0.740200
 C    3.254145   -0.573965   -0.857216
 C    4.071824   -0.031427    0.123733
 N    5.521906   -0.165270   -0.001188
 O    6.215511    0.321557    0.880032
 O    5.957709   -0.756768   -0.978173
 C    3.544255    0.631424    1.228183
 C    2.172134    0.755837    1.341227
 H   -1.230701    5.057680   -0.813004
 H   -2.969142    4.855580   -1.039455
 H   -2.266113    4.664866    0.584297
 H   -2.750590    2.456482    0.946409
 H   -2.928211    0.495333   -0.927479
 H   -2.101948    0.206872    1.999592
 H   -4.676399    0.123923    0.925554
 H   -3.076377   -2.010854    1.850698
 H   -3.734472   -2.466440   -0.544537
 H   -0.782363   -1.942027    1.222966
 H   -1.951866   -4.106258    0.673711
 H   -0.523251   -3.784607   -0.332976
 H   -2.029694   -2.981863   -1.905214
 H   -0.540648    0.560637   -1.418522
 H    1.231195   -0.909966   -1.482627
 H    3.699060   -1.088794   -1.699665
 H    4.211854    1.042278    1.975331
 H    1.723111    1.273867    2.181263
