88 
3lnk_ligand_ani.xyz
 C    1.242444    3.966199   -0.947581
 F    4.092559   -5.040987   -1.872904
 N    0.781554    2.941074   -0.150142
 O    2.334742    3.909873   -1.496908
 C   -2.872163   -1.559729   -0.207441
 F    7.259281   -1.588850   -1.725691
 N    1.759781   -1.314523    1.039252
 O   -4.061242    0.474969   -0.371947
 C   -4.133137   -0.745311   -0.288202
 N    1.796619    1.971402    2.365737
 O    0.236793   -0.215576    2.298836
 C    0.486731   -1.029564    1.402016
 N   -5.347382   -1.383681   -0.252440
 O    4.293232    1.061760    2.370364
 C    2.511418    1.709983    1.076917
 C    2.901547   -0.821366    1.788824
 C   -0.599945   -1.675985    0.602496
 C    3.473680    0.540742    1.309065
 C    1.566148    1.703858   -0.130421
 C   -1.815161   -1.005615    0.506135
 C    4.576172   -2.404680    0.571468
 C    3.981555   -1.928677    1.881545
 C   -2.687568   -2.777438   -0.864590
 C   -0.444580   -2.908947   -0.034355
 C    0.350450    5.162551   -1.120076
 C    5.690682   -3.325555   -1.854769
 C    4.612142   -3.960075   -1.263738
 C    6.203574   -2.225157   -1.189077
 C   -1.477097   -3.467712   -0.784427
 C    4.050159   -3.527620   -0.073067
 C    5.676509   -1.755538    0.003797
 C    0.042539    3.160095    1.093197
 C    0.992691    3.206134    2.301589
 C   -6.518723   -0.516675   -0.380150
 C   -5.586895   -2.713101    0.295100
 C   -1.038727    5.059780   -1.214539
 C    0.960222    6.409214   -1.262279
 C   -1.291662   -4.785483   -1.488450
 C   -6.883621    0.229988    0.905804
 C   -6.204735   -3.673846   -0.718759
 C   -8.168881    1.039058    0.753018
 C   -6.460894   -5.052858   -0.118157
 C    0.186840    7.550072   -1.440976
 C   -1.811417    6.200611   -1.411617
 C   -1.200540    7.447842   -1.513155
 H    1.928126   -1.885037    0.223048
 H    1.170967    1.167789    2.601929
 H    2.554228    2.015066    3.068723
 H    5.134594    0.591057    2.391153
 H    3.168807    2.570052    0.907347
 H    2.546738   -0.660996    2.808802
 H    4.060278    0.395599    0.390219
 H    2.139257    1.662308   -1.057061
 H    0.859893    0.872177   -0.109982
 H   -1.944314   -0.041084    0.986884
 H    4.785639   -1.583836    2.545433
 H    3.515086   -2.783287    2.385976
 H   -3.497147   -3.195706   -1.456693
 H    0.483944   -3.469194    0.069006
 H    6.117200   -3.677077   -2.786760
 H    3.217542   -4.083488    0.351019
 H    6.142859   -0.892996    0.475467
 H   -0.665052    2.326524    1.221878
 H   -0.522469    4.090433    1.031293
 H    1.658351    4.069770    2.201452
 H    0.420686    3.330134    3.223511
 H   -6.306894    0.199634   -1.179499
 H   -7.363387   -1.138881   -0.700590
 H   -4.652202   -3.117259    0.692339
 H   -6.273282   -2.624859    1.152321
 H   -1.515888    4.084802   -1.141676
 H    2.044864    6.466509   -1.230943
 H   -1.078080   -5.594012   -0.778603
 H   -0.456247   -4.743364   -2.197660
 H   -2.192143   -5.057583   -2.045657
 H   -6.998326   -0.495992    1.721753
 H   -6.052194    0.888721    1.175870
 H   -5.553947   -3.763312   -1.595928
 H   -7.147930   -3.250029   -1.082803
 H   -8.405798    1.577171    1.676275
 H   -9.021778    0.392547    0.514433
 H   -8.075703    1.779418   -0.049975
 H   -6.930067   -5.722273   -0.845997
 H   -5.526278   -5.519873    0.213409
 H   -7.126608   -4.985212    0.749771
 H    0.667413    8.521009   -1.532922
 H   -2.892332    6.114954   -1.471677
 H   -1.805705    8.338944   -1.658002
