91 
3lox_ligand_ani.xyz
 C   -3.387164   -0.314939    0.186428
 O   -3.507511    0.549291    1.049091
 N   -4.290403   -0.515851   -0.821523
 C   -5.457591    0.342391   -1.068158
 C   -5.002662    1.781727   -1.318139
 C   -6.171111   -0.197091   -2.319329
 C   -6.829465   -1.564999   -2.110351
 C   -7.781712   -1.545390   -0.911211
 C   -7.067375   -1.051195    0.348682
 C   -6.435384    0.321850    0.122767
 N   -2.331210   -1.222676    0.163235
 C   -1.200153   -1.010213    1.055663
 C   -0.628968   -2.357941    1.585603
 C    0.661086   -2.097251    2.372665
 C   -1.674217   -2.972912    2.527265
 C   -0.350811   -3.356744    0.452558
 C   -0.165384   -0.147531    0.297450
 O    0.304881   -0.554775   -0.766857
 N    0.185301    1.064574    0.813670
 C   -0.471226    1.726157    1.955897
 C    1.043354    1.986007    0.034720
 C    0.864856    3.342315    0.686730
 C   -0.051876    3.183402    1.865218
 C   -0.497627    3.982751    0.664988
 C   -0.544969    5.488265    0.844115
 C   -1.591355    3.464139   -0.247260
 C    2.526585    1.551886    0.070719
 O    3.340653    2.085885    0.825186
 N    2.870768    0.577633   -0.799709
 C    4.182145   -0.062394   -0.753506
 C    4.085558   -1.451185   -1.392003
 C    3.422622   -2.473182   -0.479541
 C    4.211728   -2.890592    0.788828
 C    3.430625   -3.956027   -0.921403
 C    3.817495   -4.359804    0.519492
 O    5.174460    2.169393   -1.240538
 C    5.289892    0.781682   -1.438408
 O    6.864521   -0.816081   -0.478897
 N    7.643966    1.232357   -1.072078
 C    6.671585    0.300409   -0.936349
 H   -4.157119   -1.310829   -1.429248
 H   -4.550943    2.197131   -0.413506
 H   -4.263999    1.807848   -2.126174
 H   -5.858917    2.403385   -1.600611
 H   -6.947253    0.527635   -2.601601
 H   -5.454895   -0.226900   -3.151454
 H   -6.055729   -2.328368   -1.948177
 H   -7.363515   -1.860295   -3.020673
 H   -8.624587   -0.874346   -1.132707
 H   -8.209898   -2.541609   -0.746420
 H   -6.278481   -1.761664    0.630221
 H   -7.765868   -1.003761    1.192228
 H   -5.895875    0.657747    1.012569
 H   -7.224740    1.058331   -0.089008
 H   -2.047317   -1.507582   -0.768068
 H   -1.583555   -0.465638    1.918718
 H    0.492608   -1.403503    3.206147
 H    1.450922   -1.675185    1.740349
 H    1.038205   -3.036918    2.792142
 H   -1.852403   -2.330042    3.397849
 H   -2.627274   -3.125567    2.010463
 H   -1.323970   -3.943139    2.897048
 H    0.175441   -4.231579    0.853485
 H   -1.282283   -3.712094   -0.001316
 H    0.268932   -2.913761   -0.332710
 H   -1.559821    1.618510    1.894944
 H   -0.128890    1.286104    2.899636
 H    0.707410    1.992014   -1.011004
 H    1.731684    3.992808    0.719864
 H    0.121877    3.716228    2.797033
 H   -1.500981    5.798776    1.282560
 H   -0.435464    5.999265   -0.120064
 H    0.255264    5.841495    1.504542
 H   -1.544603    3.972404   -1.218152
 H   -1.524760    2.387055   -0.429044
 H   -2.580330    3.667023    0.184975
 H    2.105377    0.056698   -1.219105
 H    4.477412   -0.148963    0.299556
 H    5.094528   -1.805495   -1.624876
 H    3.544605   -1.374715   -2.347463
 H    2.397722   -2.159076   -0.232078
 H    3.898754   -2.450661    1.744787
 H    5.285305   -2.707851    0.652949
 H    2.491547   -4.356504   -1.322930
 H    4.230417   -4.160160   -1.642169
 H    4.593029   -5.121844    0.640627
 H    2.936775   -4.654701    1.103843
 H    4.803011    2.301915   -0.347759
 H    5.247003    0.616018   -2.523863
 H    7.378412    2.187293   -1.259607
 H    8.561351    1.023556   -0.710567
