53 
3lp2_ligand_dft.xyz
 C    0.871152   -0.978276   -0.587118
 N    0.515276    1.785416   -0.314344
 O    3.442556   -1.958529   -0.429472
 C   -0.381101   -0.422499   -0.658094
 C   -0.503871    0.983209   -0.518667
 C    1.738828    1.248685   -0.239129
 C    1.981017   -0.133854   -0.375651
 N    2.789296    2.154700   -0.018243
 C    4.047366    1.669213    0.060431
 C    4.344906    0.271284   -0.074044
 C    3.306244   -0.633774   -0.291335
 C    5.756371   -0.125416    0.035128
 O    6.685235    0.641137    0.236193
 O    4.966255    2.598413    0.270350
 O    2.566365    3.398908    0.106200
 O   -1.437428   -1.244351   -0.904841
 C   -2.711276   -0.802278   -0.573101
 C   -3.080517   -0.607403    0.751257
 C   -4.373390   -0.215563    1.065348
 C   -5.345236   -0.007796    0.062702
 C   -4.944523   -0.239932   -1.269411
 C   -3.645382   -0.620190   -1.579964
 N   -6.624605    0.427644    0.373520
 C   -7.063709    0.500988    1.756980
 C   -7.358338   -0.851502    2.412624
 C   -7.629959    0.566249   -0.665901
 C   -8.264370   -0.748392   -1.129958
 O    5.966478   -1.448398   -0.112128
 C    7.707788   -2.119265    1.466622
 C    7.327306   -1.926720    0.012183
 H    1.007634   -2.047662   -0.694648
 H    4.385629   -2.184998   -0.356306
 H   -1.484918    1.447870   -0.579769
 H    5.837239    2.151579    0.313844
 H   -2.352817   -0.761473    1.542461
 H   -4.618359   -0.074495    2.110537
 H   -5.644752   -0.123169   -2.086901
 H   -3.354744   -0.786341   -2.612290
 H   -7.966487    1.119116    1.777796
 H   -6.317566    1.049612    2.343986
 H   -8.192013   -1.354713    1.914148
 H   -6.489163   -1.514148    2.362425
 H   -7.623989   -0.713736    3.466305
 H   -7.189411    1.094666   -1.518999
 H   -8.409685    1.230146   -0.279236
 H   -7.502455   -1.458691   -1.465013
 H   -8.827577   -1.218881   -0.318514
 H   -8.954440   -0.566753   -1.961041
 H    7.714472   -1.162710    1.994335
 H    7.011038   -2.799318    1.965082
 H    8.711723   -2.551083    1.524948
 H    7.986726   -1.217161   -0.489556
 H    7.322637   -2.870030   -0.535954
