26 
3lp4_ligand_ani.xyz
 N   -2.707841   -1.571464   -0.082374
 C   -1.642121   -0.575193    0.330300
 C   -2.190753    0.805769   -0.011434
 O   -1.576271    1.793307   -0.319067
 C   -0.274936   -0.860656   -0.288153
 C    0.869390   -0.108800    0.391657
 C    2.223153   -0.393208   -0.255888
 C    3.353911    0.369496    0.436171
 N    4.689334    0.138757   -0.215218
 O   -3.543359    0.790970    0.095793
 H   -3.625124   -1.105559    0.027928
 H   -2.578272   -1.831567   -1.079709
 H   -2.670063   -2.411727    0.513953
 H   -1.566039   -0.610630    1.420795
 H   -0.082818   -1.939849   -0.224748
 H   -0.292930   -0.602044   -1.355551
 H    0.659034    0.966662    0.358033
 H    0.908303   -0.386387    1.455646
 H    2.177996   -0.109566   -1.317416
 H    2.424196   -1.474254   -0.222395
 H    3.145371    1.438829    0.415879
 H    3.425928    0.063495    1.479416
 H    4.643528    0.460785   -1.195891
 H    5.430704    0.651897    0.277936
 H    4.900645   -0.872358   -0.196876
 H   -3.845740    1.692565   -0.103588
