54 
3lpf_ligand_ani.xyz
 N   -2.212773   -0.076513    0.374071
 N   -0.600003    1.546549    0.620934
 N    2.328117   -1.775574   -0.124287
 C   -8.217565   -0.775226    0.128577
 C    7.572449    0.418839    0.311057
 C    7.164415   -2.185544   -1.007896
 O    0.095686   -1.746464    0.222831
 O    1.398319    3.888832   -1.366995
 S   -2.830956    2.357096   -0.590749
 C   -4.579124   -2.644274   -0.767167
 C   -3.395933   -1.978475   -0.488470
 C   -5.814576   -2.064024   -0.490436
 C   -4.665140   -0.099460    0.347612
 C    5.098734    0.500083    0.694541
 C    4.713532   -1.946987   -0.548747
 C    2.624330    0.634065    1.127965
 C    0.664301    2.692819   -1.190873
 C    0.042274    2.786372    0.196517
 C    0.146014    0.753738    1.607122
 O   -6.991684   -0.127764    0.392020
 C   -1.851071    1.227643    0.165759
 C    6.187515   -0.169158    0.189262
 C    5.990883   -1.426553   -0.448189
 C   -3.443352   -0.691858    0.063831
 C   -5.848414   -0.789640    0.074332
 C    1.379413    0.099735    1.044163
 C    1.185887   -1.188026    0.364155
 C    3.789040   -0.022544    0.604257
 C    3.612211   -1.259010   -0.029418
 H   -1.438493   -0.737992    0.419808
 H    2.180309   -2.664895   -0.583881
 H   -8.338295   -0.986931   -0.941988
 H   -8.306356   -1.713493    0.691815
 H   -8.998059   -0.084762    0.451088
 H    8.031756    0.574675   -0.671378
 H    7.542281    1.384821    0.822179
 H    8.240169   -0.238849    0.878784
 H    7.897465   -2.423349   -0.228691
 H    6.842622   -3.126612   -1.461909
 H    7.689139   -1.605781   -1.775661
 H    1.805844    3.864367   -2.240255
 H   -4.547666   -3.640490   -1.202342
 H   -2.429534   -2.437059   -0.689442
 H   -6.727443   -2.604722   -0.712851
 H   -4.720637    0.896117    0.774140
 H    5.241225    1.464459    1.185970
 H    4.563594   -2.909631   -1.039686
 H    2.770812    1.599170    1.613902
 H    1.315144    1.807207   -1.254433
 H   -0.133198    2.586917   -1.940577
 H    0.828514    3.029479    0.914082
 H   -0.692845    3.597416    0.213147
 H   -0.522855    0.013903    2.043769
 H    0.440927    1.429347    2.420788
