54 
3lpf_ligand_dft.xyz
 N   -2.203644   -0.100335    0.283357
 N   -0.576339    1.485390    0.575727
 N    2.353804   -1.722798   -0.300290
 C   -8.220955   -0.730497    0.346871
 C    7.572861    0.371648    0.585841
 C    7.211129   -2.012235   -1.094172
 O    0.113365   -1.732140   -0.020109
 O    1.312097    3.914180   -1.512602
 S   -2.778399    2.355669   -0.677548
 C   -4.647884   -2.615694   -0.803205
 C   -3.447127   -1.960506   -0.585323
 C   -5.864309   -2.037250   -0.442885
 C   -4.654786   -0.110546    0.397524
 C    5.083294    0.402713    0.912135
 C    4.747765   -1.847359   -0.675936
 C    2.606108    0.499976    1.265286
 C    0.737316    2.670242   -1.169723
 C    0.083212    2.733515    0.212981
 C    0.118112    0.670583    1.572448
 O   -6.973616   -0.117238    0.566867
 C   -1.833017    1.200291    0.095613
 C    6.195791   -0.191764    0.348000
 C    6.019479   -1.342070   -0.463072
 C   -3.455391   -0.693909    0.012932
 C   -5.857803   -0.777987    0.158524
 C    1.364527    0.009785    1.037609
 C    1.195578   -1.189186    0.214009
 C    3.786782   -0.097082    0.705626
 C    3.630407   -1.233842   -0.099149
 H   -1.429122   -0.768389    0.275383
 H    2.220707   -2.549545   -0.868934
 H   -8.405101   -0.900305   -0.722134
 H   -8.303129   -1.686247    0.881717
 H   -8.969739   -0.037920    0.733877
 H    8.053134    0.668551   -0.353910
 H    7.530486    1.253117    1.231006
 H    8.231109   -0.362703    1.064922
 H    7.924750   -2.350350   -0.333902
 H    6.913200   -2.880928   -1.686848
 H    7.749911   -1.322138   -1.753702
 H    0.585912    4.516963   -1.713491
 H   -4.645314   -3.596332   -1.270015
 H   -2.503373   -2.411647   -0.876486
 H   -6.788932   -2.569344   -0.632430
 H   -4.680695    0.863099    0.868922
 H    5.203218    1.287540    1.533057
 H    4.612287   -2.728132   -1.299101
 H    2.727042    1.386869    1.884923
 H    1.553002    1.940853   -1.166207
 H   -0.007604    2.344419   -1.907088
 H    0.850438    2.948425    0.963169
 H   -0.650835    3.543376    0.235976
 H   -0.573095   -0.073540    1.970001
 H    0.398067    1.326414    2.405645
