47 
3lpg_ligand_xtb.xyz
 N    1.846824   -1.709643   -0.641360
 N   -0.756482    1.516179    0.740009
 N   -2.553817    0.122749    0.306484
 C    7.236979   -0.192136    0.212076
 O   -2.543278    2.320810   -0.364137
 O   -0.362441   -1.562787   -0.257887
 O    1.506492    3.787970   -1.017949
 F   -3.292090   -2.465889    0.581617
 C   -6.487317   -1.120466   -0.444723
 C   -6.156180    0.215399   -0.588313
 C   -5.513146   -2.025519   -0.056278
 C   -4.866296    0.658889   -0.358965
 C    5.492644   -1.591108   -0.920528
 C    4.191889   -1.976685   -1.143741
 C    4.780555    0.043524    0.672893
 C    2.353923    0.282203    1.156949
 C    0.552428    2.750097   -0.954030
 C   -0.051665    2.747752    0.455143
 C   -0.097608    0.572223    1.619000
 C   -2.003401    1.375604    0.177906
 C    5.806354   -0.574973   -0.008665
 C   -4.232110   -1.574295    0.173777
 C    1.072875   -0.093798    0.942615
 C   -3.865506   -0.232941    0.021906
 C    0.763073   -1.154537   -0.009213
 C    3.446007   -0.328567    0.470250
 C    3.153934   -1.351518   -0.450397
 H    1.638136   -2.454681   -1.296579
 H   -1.901939   -0.662758    0.333124
 H    7.781017   -1.019078    0.667631
 H    7.719893    0.040409   -0.735460
 H    7.312982    0.672824    0.865254
 H    1.741630    3.942104   -1.938073
 H   -7.494775   -1.460205   -0.628409
 H   -6.910994    0.927539   -0.885817
 H   -5.733953   -3.073314    0.075620
 H   -4.613880    1.698547   -0.480347
 H    6.292841   -2.078788   -1.457382
 H    3.963808   -2.760864   -1.850753
 H    4.994782    0.831966    1.379356
 H    2.579169    1.067546    1.865402
 H    1.033126    1.778022   -1.149160
 H   -0.248609    2.894935   -1.687056
 H    0.755408    2.880428    1.175908
 H   -0.746896    3.586793    0.540503
 H   -0.815602   -0.181769    1.946419
 H    0.256219    1.115524    2.503148
