47 
3lpg_ligand_ani.xyz
 N    1.861131   -1.762447   -0.511261
 N   -0.778972    1.573848    0.710511
 N   -2.578396    0.116605    0.395277
 C    7.305067   -0.163998    0.130607
 O   -2.654307    2.299957   -0.334473
 O   -0.347587   -1.621246   -0.050205
 O    1.189938    4.033543   -1.162960
 F   -3.109511   -2.470840    0.279927
 C   -6.450388   -1.281485   -0.442110
 C   -6.222790    0.089728   -0.408862
 C   -5.396714   -2.161769   -0.212663
 C   -4.955836    0.604776   -0.150456
 C    5.524157   -1.663812   -0.872702
 C    4.212991   -2.063189   -1.039723
 C    4.843710    0.092422    0.603420
 C    2.399726    0.376024    1.103403
 C    0.467658    2.823802   -1.035156
 C   -0.128410    2.830995    0.366161
 C   -0.064529    0.670237    1.606847
 C   -2.054103    1.383350    0.212958
 C    5.861614   -0.574808   -0.040556
 C   -4.146269   -1.638504    0.043543
 C    1.108434   -0.014420    0.957368
 C   -3.887309   -0.263593    0.079699
 C    0.785530   -1.172005    0.112429
 C    3.491883   -0.291427    0.451510
 C    3.187670   -1.381948   -0.375662
 H    1.625856   -2.554867   -1.094703
 H   -1.912296   -0.655034    0.404161
 H    7.904226   -0.985258    0.540217
 H    7.752476    0.120095   -0.828674
 H    7.399343    0.688878    0.809272
 H    1.548996    4.072684   -2.056651
 H   -7.444785   -1.667757   -0.645198
 H   -7.041825    0.780730   -0.589642
 H   -5.524033   -3.239996   -0.226290
 H   -4.786416    1.673092   -0.135736
 H    6.316998   -2.198740   -1.391260
 H    3.974848   -2.907275   -1.685287
 H    5.073467    0.938651    1.251673
 H    2.650310    1.221669    1.744245
 H    1.124365    1.947923   -1.154306
 H   -0.341852    2.751569   -1.775338
 H    0.674075    3.021704    1.084135
 H   -0.858126    3.643342    0.440462
 H   -0.765581   -0.065227    2.003280
 H    0.292316    1.255061    2.465376
