91 
3lpk_ligand_ani.xyz
 C    3.172958   -1.887389    0.525659
 F   -7.066179   -0.005519    1.253472
 N    5.500742   -0.460866   -0.778018
 O    3.926225    0.842178   -1.717551
 S   -1.931290    2.856422    0.553285
 C    3.108871   -1.100562   -0.628946
 F   -3.326876   -1.497219    3.666590
 N   -1.526828   -2.050185   -1.209398
 O   -0.336528   -1.607224   -3.080869
 C    1.944179   -1.109824   -1.394284
 N   -3.968296    1.523058   -2.516754
 O   -2.851264   -0.470916   -3.719176
 C    0.871869   -1.911684   -1.027723
 N   -1.661051    2.438111   -1.058467
 C    0.965808   -2.720380    0.110269
 O    6.140057    1.358781    1.205993
 C    2.114573   -2.722444    0.896107
 O   -3.285554    2.491224    0.950063
 C    4.205826   -0.169912   -1.078730
 O   -1.482506    4.233312    0.695448
 C    6.516865    0.565722   -1.017077
 C    6.100598   -1.737638   -0.397859
 C    7.508076   -1.639692   -0.979247
 C    7.841053   -0.166094   -0.748439
 C    6.319214    1.786197   -0.126790
 C    2.195294   -3.585134    2.132448
 C   -0.364038   -1.863348   -1.873099
 C   -2.815098   -2.112449   -1.872702
 C   -3.361400   -0.769853   -2.418527
 C   -3.819809   -2.873325   -0.989219
 C   -4.314036   -2.142655    0.240963
 C   -5.499558   -1.402160    0.191589
 C   -5.926335   -0.715927    1.318682
 C   -5.225748   -0.728620    2.515128
 C   -4.063030   -1.481623    2.538570
 C   -3.600418   -2.190640    1.441888
 C   -1.765965    1.027446   -1.422866
 C   -2.294116    3.312208   -2.042156
 C   -3.770165    2.965207   -2.253200
 C   -3.211410    0.538589   -1.609227
 C    2.944093    1.439922    1.778378
 C    6.209707    2.419692    2.122037
 C   -1.289387    0.689298    2.105695
 C   -0.384077   -0.186361    2.688298
 C    0.984122    0.053711    2.581891
 C    1.469855    1.167088    1.892504
 C    0.554799    2.039948    1.302752
 C   -0.804333    1.784825    1.403183
 H    4.062305   -1.860812    1.152265
 H   -1.504970   -2.107959   -0.201409
 H    1.871177   -0.477418   -2.273989
 H   -3.637873    1.226932   -3.471854
 H   -4.978708    1.313019   -2.426213
 H   -1.934590   -0.813041   -3.753998
 H    0.150122   -3.390105    0.377489
 H    6.449944    0.894164   -2.060456
 H    5.523704   -2.582047   -0.783494
 H    6.162104   -1.814773    0.696059
 H    7.490770   -1.875065   -2.049515
 H    8.208476   -2.323822   -0.491058
 H    8.651924    0.204282   -1.382373
 H    8.124800   -0.008873    0.299288
 H    5.449226    2.363026   -0.471145
 H    7.203284    2.443306   -0.207229
 H    2.334146   -2.977872    3.036454
 H    3.034353   -4.289208    2.083123
 H    1.277023   -4.165511    2.258052
 H   -2.664854   -2.715109   -2.776595
 H   -4.440131   -0.928671   -2.543703
 H   -3.347861   -3.820391   -0.701868
 H   -4.681672   -3.141827   -1.612252
 H   -6.097080   -1.342386   -0.715335
 H   -5.570917   -0.172401    3.378889
 H   -2.703521   -2.792139    1.546878
 H   -1.249920    0.437324   -0.671103
 H   -1.225341    0.926246   -2.371131
 H   -2.177099    4.347406   -1.714473
 H   -1.735023    3.185114   -2.977740
 H   -4.308010    3.237369   -1.340966
 H   -4.171257    3.556082   -3.078519
 H   -3.713878    0.501906   -0.643746
 H    3.259796    2.278082    2.412766
 H    3.530863    0.564028    2.074275
 H    3.215901    1.707788    0.748810
 H    5.459571    3.198775    1.909920
 H    6.024768    2.011412    3.119452
 H    7.204882    2.892874    2.114106
 H   -2.359590    0.529693    2.175527
 H   -0.745990   -1.051182    3.236768
 H    1.696027   -0.631264    3.035974
 H    0.892822    2.922440    0.762444
