34 
3lpt_ligand_ani.xyz
 N    0.420833   -2.774027    0.484303
Cl    4.637354    1.209477   -0.622241
 C   -1.285939   -1.075095    0.526850
 O   -1.732251   -3.404011    0.793456
 C   -2.752112   -0.792852    0.610008
 O   -2.798963   -1.224691   -1.799869
 C   -0.325492   -0.122465    0.344393
 O   -4.558554   -0.242890   -0.877816
 C   -0.706600    1.310845    0.342426
 C    1.068869   -0.479624    0.151521
 C    1.414363   -1.839302    0.240318
 C   -0.924629   -2.505806    0.613756
 C   -1.301537    1.872563   -0.787363
 C   -1.665254    3.215730   -0.798427
 C   -1.455985    4.005764    0.328916
 C   -0.882317    3.447252    1.467631
 C   -0.511761    2.105724    1.475000
 C    2.086348    0.460721   -0.133966
 C    3.386689    0.044537   -0.284747
 C    3.730663   -1.307600   -0.173114
 C    2.743693   -2.237715    0.085268
 C   -3.464192   -0.717705   -0.741799
 H    0.665312   -3.753013    0.555840
 H   -2.948763    0.155600    1.120542
 H   -3.238847   -1.597741    1.173958
 H   -1.942515   -1.575885   -1.508916
 H   -1.481160    1.256210   -1.669141
 H   -2.116236    3.645292   -1.688888
 H   -1.741944    5.054671    0.320548
 H   -0.718259    4.056570    2.352988
 H   -0.058759    1.674484    2.367005
 H    1.822067    1.509848   -0.235404
 H    4.764472   -1.614300   -0.293638
 H    3.003083   -3.291746    0.166906
