45 
3lpu_ligand_ani.xyz
 N   -0.633776   -2.773046   -0.246199
Cl   -5.465733    0.602001   -0.278032
 C   -4.012525   -0.354100   -0.262530
 O    4.152171   -1.555665    1.000478
 C   -4.122363   -1.751704   -0.435113
 O    2.534334   -1.082232    2.467642
 C   -2.993135   -2.522271   -0.427506
 C   -1.714001   -1.941945   -0.243862
 C   -1.614398   -0.545938   -0.069794
 C   -2.795630    0.248299   -0.089051
 C    0.562568   -2.262110   -0.068914
 C    0.783501   -0.862684    0.124072
 C   -0.305266   -0.002373    0.104070
 C   -0.157475    1.470093    0.263490
 C    2.202332   -0.296785    0.244741
 C    3.082212   -1.045072    1.237008
 C    2.894600   -0.152587   -1.118758
 C    4.061562    0.833894   -1.104140
 C    4.740924    0.955435   -2.465116
 C    1.683011   -3.277797   -0.082121
 C    0.156416    2.275641   -0.833810
 C    0.310069    3.651757   -0.689402
 C    0.157045    4.243128    0.561209
 C   -0.155490    3.451691    1.662407
 C   -0.316655    2.076510    1.513752
 H   -5.103852   -2.195858   -0.573634
 H    3.164706   -1.566344    3.026661
 H   -3.036722   -3.598985   -0.560987
 H   -2.709905    1.325025    0.028904
 H    2.091084    0.702584    0.681882
 H    3.241391   -1.133858   -1.460592
 H    2.145300    0.180614   -1.850320
 H    3.693361    1.818451   -0.784741
 H    4.795319    0.514634   -0.355616
 H    4.040976    1.308707   -3.231940
 H    5.578279    1.659649   -2.427646
 H    5.134342   -0.013908   -2.792530
 H    1.306902   -4.197259   -0.531890
 H    2.549633   -2.930541   -0.645869
 H    2.020087   -3.506788    0.933782
 H    0.278867    1.823860   -1.818094
 H    0.550547    4.260250   -1.557405
 H    0.279735    5.316628    0.677299
 H   -0.277382    3.902988    2.643620
 H   -0.564621    1.464133    2.380282
