53 
3ls4_ligand_ani.xyz
 C    1.237832    0.603042   -0.871492
 O   -0.722047    1.858091   -0.646574
 C    1.982980   -0.552086   -0.674486
 O   -0.546503   -2.595122    1.040367
 C    1.374013   -1.635768   -0.036586
 C    0.040291   -1.566117    0.358923
 C   -0.748703   -0.440016    0.092388
 C   -0.094768    0.664809   -0.455659
 C   -2.222443   -0.383483    0.445345
 C   -3.066726   -1.555123   -0.009325
 C   -4.385917   -1.462321   -0.176086
 C   -5.113535   -0.139009   -0.096274
 C   -4.260715    1.010150    0.454328
 C   -2.851868    0.901617   -0.106928
 C   -1.937548    2.115763    0.091205
 C   -2.512090    3.365586   -0.571074
 C   -1.589993    2.398673    1.550957
 C   -5.251611   -2.647210   -0.506981
 C    3.440054   -0.614178   -1.074657
 C    4.398417   -0.151294    0.032342
 C    5.868607   -0.204237   -0.383601
 C    6.818871    0.242625    0.726610
 C    8.286365    0.195945    0.308146
 H    1.665182    1.483469   -1.342246
 H    0.112913   -3.284890    1.188416
 H    1.938867   -2.548921    0.152763
 H   -2.287876   -0.366176    1.548362
 H   -2.554407   -2.496484   -0.176831
 H   -5.448620    0.111863   -1.113469
 H   -6.028207   -0.262458    0.496297
 H   -4.214798    0.953274    1.550894
 H   -4.731002    1.967949    0.206434
 H   -2.913785    0.760404   -1.194036
 H   -3.416457    3.710404   -0.061733
 H   -1.770857    4.168976   -0.532877
 H   -2.753834    3.166610   -1.620719
 H   -2.492619    2.664090    2.112169
 H   -1.123286    1.533559    2.033448
 H   -0.887932    3.235413    1.602157
 H   -6.023591   -2.791348    0.258656
 H   -4.669068   -3.571795   -0.576338
 H   -5.770538   -2.503484   -1.462956
 H    3.595391    0.009192   -1.965032
 H    3.694161   -1.643506   -1.360946
 H    4.252765   -0.773913    0.925746
 H    4.141511    0.874724    0.329329
 H    6.022902    0.428406   -1.270906
 H    6.126946   -1.228850   -0.691602
 H    6.664809   -0.395250    1.608116
 H    6.554345    1.263368    1.036089
 H    8.579946   -0.820043    0.018733
 H    8.946208    0.516732    1.120931
 H    8.470260    0.850726   -0.551767
