38 
3lvw_ligand_xtb.xyz
 N   -1.706244    0.996277   -0.276213
 C   -2.650800    0.089013   -0.956292
 C   -4.007691    0.089010   -0.235727
 O   -4.850212   -0.737699   -0.405623
 O   -4.121241    1.139319    0.575047
 C   -2.092642   -1.334901   -1.079218
 C   -1.861985   -2.052835    0.261877
 C   -0.684124   -1.437089    0.981350
 O   -0.802132   -0.430295    1.678941
 N    0.511771   -2.000246    0.767561
 C    1.699301   -1.214629    1.026757
 C    1.632818    0.033848    0.116232
 O    0.813069    0.116420   -0.783447
 C    2.949990   -2.038734    0.755342
 S    2.992068   -2.495887   -1.032206
 N    2.524850    0.991223    0.386363
 C    2.595799    2.206560   -0.394775
 C    1.452994    3.174929   -0.093836
 O    1.876059    4.422892   -0.098971
 O    0.310071    2.843320    0.091450
 H   -0.756028    0.955545   -0.706324
 H   -2.028086    1.965687   -0.244686
 H   -1.540118    0.653220    0.716020
 H   -2.839404    0.464832   -1.970048
 H   -4.983725    1.151857    1.021589
 H   -2.818788   -1.912776   -1.651716
 H   -1.157761   -1.295907   -1.640511
 H   -2.752530   -1.970581    0.885748
 H   -1.675991   -3.107869    0.066667
 H    0.605450   -2.740680    0.085662
 H    1.675518   -0.886464    2.073142
 H    2.929338   -2.954327    1.345269
 H    3.850070   -1.470863    0.987852
 H    3.969608   -3.388071   -0.919212
 H    3.112301    0.923036    1.202227
 H    3.547780    2.707652   -0.228234
 H    2.506844    1.940655   -1.455759
 H    1.162933    5.065780    0.054202
