38 
3lvw_ligand_ani.xyz
 N   -1.792657    0.863352   -0.204746
 C   -2.650438   -0.113056   -0.934306
 C   -3.978210   -0.234806   -0.212660
 O   -4.704198   -1.197353   -0.201219
 O   -4.283587    0.926435    0.399567
 C   -1.976463   -1.466534   -1.175610
 C   -1.639721   -2.313423    0.069561
 C   -0.549294   -1.676272    0.901435
 O   -0.794556   -0.858522    1.784190
 N    0.738698   -1.983370    0.560271
 C    1.776279   -1.030447    0.885919
 C    1.647829    0.249966    0.027740
 O    0.914837    0.325594   -0.954815
 C    3.159164   -1.674357    0.768282
 S    3.498251   -2.252457   -0.933056
 N    2.430583    1.290812    0.415605
 C    2.317387    2.565037   -0.252510
 C    1.012239    3.282481    0.047390
 O    1.002775    4.515967   -0.480138
 O    0.082173    2.824998    0.668966
 H   -0.872989    0.916656   -0.673043
 H   -2.219668    1.804836   -0.177057
 H   -1.629700    0.528703    0.768081
 H   -2.901566    0.310321   -1.914753
 H   -5.151785    0.792768    0.814075
 H   -2.652475   -2.046226   -1.807956
 H   -1.064494   -1.276760   -1.754141
 H   -2.532298   -2.419597    0.692178
 H   -1.326965   -3.313638   -0.250402
 H    0.877316   -2.494691   -0.303894
 H    1.618250   -0.748622    1.932586
 H    3.193248   -2.526497    1.450141
 H    3.936799   -0.965593    1.064422
 H    4.174834   -3.356071   -0.584664
 H    2.826718    1.278778    1.343173
 H    3.150404    3.210735    0.032640
 H    2.370220    2.413337   -1.335267
 H    0.143573    4.906824   -0.248997
