38 
3lxg_ligand_xtb.xyz
 C    2.505156   -1.288524    0.167920
 C    2.056709    0.042177   -0.056422
 N    1.681712   -2.285221    0.258369
 N    0.677956    0.278850   -0.170052
 C    0.340186   -2.051962    0.136407
 C   -0.208967   -0.771718   -0.077242
 C   -2.339914   -1.566878   -0.107782
 N   -1.513601   -0.539321   -0.191808
 C   -1.907630   -2.887153    0.100249
 C   -0.562538   -3.122513    0.224307
 C    0.526470    1.613097   -0.387544
 N    1.693846    2.216205   -0.414742
 C    2.652556    1.286481   -0.216012
 C    3.962731   -1.580377    0.307608
 C    4.087365    1.672151   -0.196434
 C   -0.768705    2.321242   -0.526322
 C   -1.377960    2.625819    0.848547
 C   -2.610592    3.511468    0.725124
 O   -3.660510   -1.358803   -0.222019
 C   -4.078909   -0.023767   -0.424161
 H   -2.641218   -3.673568    0.159128
 H   -0.170475   -4.113498    0.388666
 H    4.493514   -1.299873   -0.599768
 H    4.384024   -1.015036    1.136095
 H    4.093620   -2.643034    0.489272
 H    4.543103    1.433085    0.763295
 H    4.642203    1.153943   -0.977083
 H    4.156202    2.743105   -0.364105
 H   -1.462340    1.710602   -1.103929
 H   -0.576015    3.257595   -1.051510
 H   -0.628764    3.128133    1.463832
 H   -1.639478    1.684356    1.335882
 H   -2.344016    4.471097    0.288192
 H   -3.360448    3.044071    0.090283
 H   -3.050371    3.691469    1.703478
 H   -3.740092    0.613761    0.394517
 H   -3.684555    0.366210   -1.365426
 H   -5.165957   -0.052848   -0.456494
