46 
3ly2_ligand_ani.xyz
 C    1.224733    0.014167   -0.202424
 C    2.489317    0.604262   -0.175102
 O    3.590728   -0.139731   -0.453320
 C    3.987613   -1.117672    0.511105
 C    5.371537   -0.706980    0.984547
 C    6.247917   -0.994580   -0.245863
 C    5.543834   -2.155034   -0.999478
 C    4.228104   -2.417884   -0.238717
 C    2.604898    1.973443    0.098068
 C    0.006309   -2.040256   -0.462012
 O    1.194715   -1.327825   -0.408339
 O    0.076270   -3.231714   -0.623220
 O    3.865108    2.470798    0.140597
 C    4.013333    3.851567    0.393415
 C    1.444543    2.731076    0.315988
 C    0.196097    2.137139    0.250593
 C    0.062036    0.769762   -0.030229
 C   -1.205518    0.071708   -0.140489
 N   -2.365921    0.848144   -0.030809
 C   -1.216160   -1.268554   -0.327762
 C   -3.643973    0.292700    0.093180
 C   -4.552630    0.300799   -0.971146
Cl   -4.093746    1.007837   -2.487414
 C   -5.810232   -0.274160   -0.831788
 N   -6.226941   -0.842793    0.296584
 C   -5.382801   -0.851475    1.325049
 C   -4.103325   -0.304493    1.271615
Cl   -3.091590   -0.357753    2.673199
 H    3.249484   -1.191770    1.318263
 H    5.665673   -1.333564    1.836747
 H    5.386943    0.339241    1.299469
 H    7.276892   -1.243222    0.034285
 H    6.294455   -0.109252   -0.885851
 H    6.164332   -3.056770   -1.036795
 H    5.343503   -1.864985   -2.033633
 H    3.390072   -2.673738   -0.887604
 H    4.350521   -3.227747    0.491356
 H    3.512120    4.455152   -0.374712
 H    3.615308    4.121045    1.380462
 H    5.085670    4.046972    0.367214
 H    1.515290    3.791408    0.532040
 H   -0.692650    2.733343    0.442022
 H   -2.346934    1.677103   -0.611164
 H   -2.132943   -1.837025   -0.421442
 H   -6.498872   -0.265646   -1.674349
 H   -5.726472   -1.314862    2.247868
