72 
3lzb_ligand_ani.xyz
 C   -3.464770   -2.240971    1.852161
 C   -2.342977   -1.535457    1.437141
 C   -9.469470    0.677172    0.812228
 C   -8.808098    1.834504   -1.189393
 C    5.576997   -0.035408    0.761781
 C   -4.730632   -1.939046    1.362339
 C   -0.253265   -2.623313   -0.769989
 C    0.390860   -3.843751   -0.943353
 C   -8.892567    0.651434   -0.458479
 C   -4.867565   -0.889705    0.451519
 C    0.544679   -1.530716   -0.420725
 C   -1.314384    0.265657    0.037159
 C    2.383557   -2.893288   -0.472292
 C    1.984918    1.334900   -0.869043
 C   -7.286646   -1.235593   -0.082257
 C   -9.889503    3.041420    0.595944
 C   -9.973144    1.863441    1.334361
 C   -9.303402    3.026526   -0.665739
 C    7.038541   -1.432665   -0.531202
 C    4.539817   -0.940382    0.584918
 C    6.008839   -2.342755   -0.692115
 C   -3.750493   -0.154879    0.057974
 C   -2.479895   -0.490177    0.516915
 C    6.845269   -0.251518    0.201762
 C    4.737532   -2.106054   -0.158662
 C   -0.024240   -0.191526   -0.237850
 C   -0.201939    1.994678   -0.456470
 C    2.093351    2.658891   -1.066853
 C    7.834520    1.649812    1.434768
 C    9.029084    0.685672   -0.495121
 C    9.257389    2.056925    1.798152
 C    9.594603    2.099726   -0.559061
 C   -8.360845   -0.655639   -0.999851
 N    1.701930   -4.003215   -0.802674
 N    1.872961   -1.680983   -0.269943
 N   -1.411462    1.621840   -0.151222
 N    0.691032    0.967306   -0.515529
 N    7.866390    0.662431    0.372281
 N    3.741165   -3.070563   -0.355969
 N   -6.112207   -0.530047   -0.104134
 O   -7.490780   -2.211548    0.616459
 O    9.973305    2.606337    0.707917
 S    0.579069    3.510905   -0.831159
 H   -3.352820   -3.053221    2.564271
 H   -1.359357   -1.805536    1.808645
 H   -9.516875   -0.246704    1.386569
 H   -8.356339    1.825613   -2.179824
 H    5.387127    0.866881    1.335309
 H   -5.602807   -2.499753    1.669115
 H   -1.322535   -2.529269   -0.907385
 H   -0.174140   -4.734219   -1.212763
 H    2.741516    0.563058   -0.944884
 H  -10.281091    3.969649    1.005211
 H  -10.429255    1.870904    2.321004
 H   -9.233526    3.943462   -1.246103
 H    8.010609   -1.653586   -0.963401
 H    3.572955   -0.744378    1.035129
 H    6.187572   -3.252365   -1.262257
 H   -3.855002    0.686192   -0.623582
 H    2.973879    3.217301   -1.348614
 H    7.252318    2.543702    1.153282
 H    7.358921    1.216310    2.323591
 H    9.814886   -0.011300   -0.156846
 H    8.736246    0.383697   -1.507822
 H    9.794005    1.183483    2.201273
 H    9.240991    2.823917    2.578453
 H    8.853820    2.768272   -1.025098
 H   10.492672    2.115803   -1.184899
 H   -7.962441   -0.516198   -2.012881
 H   -9.148593   -1.411224   -1.055337
 H    4.041412   -3.991560   -0.638881
 H   -6.114844    0.323399   -0.641403
