75 
3lzs_ligand_xtb.xyz
 N   -6.992946    2.257838   -0.934948
 C   -6.103402    1.218359   -0.996169
 C   -6.083110    0.240719    0.006452
 C   -5.139995   -0.764362   -0.018911
 C   -4.209386   -0.806998   -1.041779
 C   -4.212592    0.148972   -2.042028
 C   -5.155249    1.155223   -2.023962
 S   -2.980062   -2.099085   -1.035320
 O   -3.600432   -3.368169   -0.801556
 O   -2.182921   -1.955682   -2.229693
 N   -1.992675   -1.764171    0.256989
 C   -2.166606   -2.488526    1.492480
 C   -0.845522   -3.090267    1.991611
 C   -0.323161   -4.104367    0.978899
 C   -1.054362   -3.738691    3.357040
 C   -1.466962   -0.419987    0.305021
 C   -0.092167   -0.300297   -0.378597
 O   -0.195805   -0.185915   -1.773769
 C    0.693831    0.925966    0.128263
 N    2.032778    0.847935   -0.410662
 C    3.131494    0.957781    0.354793
 O    3.140508    1.168387    1.542477
 O    4.252339    0.807926   -0.402815
 C    5.476146    0.943154    0.296450
 C    5.857934   -0.301201    1.119962
 O    7.260618   -0.205937    1.257180
 C    7.777475    0.254969    0.049628
 O    8.111693   -0.813993   -0.805439
 C    7.759763   -0.462083   -2.125912
 C    6.481204    0.371312   -2.007808
 C    6.668067    1.081408   -0.662676
 C    0.045653    2.261657   -0.282325
 C   -1.022872    2.828888    1.914290
 C   -2.125988    3.135956    2.689912
 C   -3.378224    3.241981    2.107503
 C   -3.518339    3.051697    0.744022
 C   -2.412902    2.743364   -0.029864
 C   -1.155011    2.616928    0.546323
 H   -7.794425    2.152162   -0.336320
 H   -7.139719    2.796369   -1.771937
 H   -6.814621    0.282367    0.799718
 H   -5.121942   -1.530504    0.739796
 H   -3.476431    0.081038   -2.827384
 H   -5.168072    1.903848   -2.802211
 H   -2.597778   -1.832231    2.261459
 H   -2.869182   -3.294353    1.274881
 H   -0.116037   -2.279114    2.094169
 H   -0.261803   -3.652020   -0.007922
 H   -0.999169   -4.953911    0.916581
 H    0.662858   -4.461846    1.266479
 H   -1.795828   -4.531488    3.289430
 H   -1.396855   -3.006584    4.085156
 H   -0.122608   -4.168363    3.716023
 H   -2.165170    0.256125   -0.198198
 H   -1.385530   -0.108105    1.348566
 H    0.491114   -1.200414   -0.119981
 H   -0.821032   -0.868560   -2.090846
 H    0.796984    0.875535    1.216404
 H    2.119355    0.657616   -1.396332
 H    5.411416    1.809923    0.965333
 H    5.573248   -1.209094    0.571896
 H    5.417060   -0.311679    2.115144
 H    8.681256    0.835334    0.287538
 H    7.631983   -1.386436   -2.689684
 H    8.567822    0.130191   -2.581410
 H    6.364604    1.068439   -2.833674
 H    5.607236   -0.276530   -1.967791
 H    6.961483    2.121970   -0.792591
 H   -0.222186    2.199044   -1.337269
 H    0.804457    3.038878   -0.159709
 H   -0.046636    2.757180    2.371474
 H   -2.008392    3.296584    3.751669
 H   -4.239797    3.480829    2.713279
 H   -4.489841    3.141741    0.281529
 H   -2.529225    2.597946   -1.094598
