75 
3lzv_ligand_xtb.xyz
 N   -6.988269    2.263321   -0.919734
 C   -6.100521    1.222551   -0.985891
 C   -6.079712    0.241993    0.013810
 C   -5.138531   -0.764706   -0.016712
 C   -4.210314   -0.806011   -1.041845
 C   -4.213729    0.153146   -2.039051
 C   -5.154583    1.160953   -2.015865
 S   -2.982181   -2.099256   -1.040632
 O   -3.602930   -3.368248   -0.808154
 O   -2.187009   -1.954076   -2.236109
 N   -1.991601   -1.767288    0.250332
 C   -2.171973   -2.487448    1.487439
 C   -0.853128   -3.085556    1.996732
 C   -0.321947   -4.101192    0.990276
 C   -1.070161   -3.731105    3.362341
 C   -1.465563   -0.423108    0.298104
 C   -0.090571   -0.304409   -0.385161
 O   -0.193486   -0.190865   -1.780443
 C    0.694838    0.922067    0.121668
 N    2.034073    0.844429   -0.416792
 C    3.131938    0.957899    0.349436
 O    3.139144    1.171383    1.536634
 O    4.253984    0.807872   -0.406147
 C    5.476435    0.945817    0.295120
 C    5.855990   -0.294992    1.124759
 O    7.258372   -0.200077    1.264183
 C    7.777531    0.254573    0.055409
 O    8.110551   -0.818821   -0.794718
 C    7.762725   -0.470852   -2.117356
 C    6.485899    0.366042   -2.005532
 C    6.670492    1.079905   -0.662091
 C    0.046013    2.257410   -0.288624
 C   -1.020255    2.821446    1.910077
 C   -2.122133    3.130014    2.686890
 C   -3.374119    3.241823    2.105141
 C   -3.515288    3.055527    0.741193
 C   -2.411151    2.745230   -0.033790
 C   -1.153408    2.613360    0.541539
 H   -7.788681    2.156909   -0.319818
 H   -7.136135    2.804259   -1.755000
 H   -6.809201    0.282725    0.808905
 H   -5.120179   -1.533134    0.739665
 H   -3.479227    0.086458   -2.826015
 H   -5.167566    1.912184   -2.791690
 H   -2.608611   -1.829139    2.251799
 H   -2.872149   -3.295016    1.268481
 H   -0.125799   -2.272857    2.102209
 H   -0.254179   -3.651061    0.002907
 H   -0.996110   -4.952000    0.925160
 H    0.662530   -4.456380    1.285825
 H   -1.808216   -4.526679    3.291069
 H   -1.420793   -2.998345    4.085889
 H   -0.139656   -4.156526    3.729437
 H   -2.162979    0.253505   -0.205323
 H   -1.384039   -0.111015    1.341538
 H    0.492451   -1.204543   -0.125713
 H   -0.820889   -0.871677   -2.097175
 H    0.797935    0.871591    1.209760
 H    2.121449    0.652307   -1.402048
 H    5.410309    1.815531    0.960040
 H    5.571760   -1.205135    0.580113
 H    5.413283   -0.300984    2.119134
 H    8.682158    0.834343    0.291664
 H    7.633952   -1.396960   -2.677934
 H    8.573300    0.117669   -2.572936
 H    6.373651    1.060869   -2.833791
 H    5.610168   -0.279316   -1.966053
 H    6.965307    2.119849   -0.794285
 H   -0.223351    2.194479   -1.343116
 H    0.804817    3.034844   -0.167414
 H   -0.044107    2.745638    2.366829
 H   -2.003677    3.287450    3.749023
 H   -4.234677    3.482225    2.711748
 H   -4.486643    3.150433    0.279332
 H   -2.528370    2.602747   -1.098804
