15 
3m1k_ligand_ani.xyz
 C    2.346675   -0.133038   -0.000204
 C    1.786611   -1.360112    0.000047
 C    0.373539   -1.527365    0.000233
 N    0.113919    0.817742   -0.000063
 O   -0.738099    1.912853    0.000165
 C    1.539043    1.119100   -0.000030
 C   -0.439023   -0.410115    0.000061
 S   -2.201923   -0.579590   -0.000116
 H    3.424211   -0.006996   -0.000510
 H    2.418033   -2.248715    0.000102
 H   -0.060642   -2.517416    0.000461
 H   -0.152252    2.690478    0.000387
 H    1.791008    1.737464   -0.878585
 H    1.790987    1.737211    0.878709
 H   -2.514290    0.723579   -0.000243
