63 
3m3c_ligand_dft.xyz
 C   -3.331664    0.181758    0.092851
 C   -4.366903    1.013811   -0.643762
 C   -5.758558    0.480818   -0.325099
 C   -5.849722   -1.021702   -0.612499
 C   -4.705455   -1.750267    0.091808
 C   -4.577846   -3.227394   -0.250046
 O   -4.325876    2.359499   -0.246431
 O   -6.734600    1.119807   -1.121439
 O   -5.775574   -1.257901   -1.997634
 O   -3.448404   -1.177823   -0.254322
 O   -3.510981   -3.816294    0.460206
 O    1.554774   -0.134078    1.369597
 C    1.413154    0.399849    0.079030
 C    0.157112    1.269533    0.007619
 N    0.392338    2.523850    0.696600
 C   -1.033617    0.494593    0.622102
 O   -2.080858    0.603339   -0.319881
 C   -0.724911   -0.986361    0.908071
 O   -0.620655   -1.708925   -0.302513
 C    0.567259   -1.121047    1.715362
 C    1.216069   -2.497564    1.609907
 O    2.375226   -2.558061    2.404997
 C   -0.500520    3.546681    0.662735
 O   -1.605639    3.442961    0.144249
 C   -0.047677    4.837514    1.312567
 C    6.309984   -0.275098   -0.761233
 C    6.077230    1.096458   -0.759724
 C    4.790326    1.556386   -0.549014
 C    3.746826    0.649634   -0.341530
 C    3.992627   -0.725274   -0.343319
 C    5.285049   -1.186897   -0.557506
 O    2.521797    1.217094   -0.159660
 N    7.670354   -0.767084   -0.981226
 O    7.844160   -1.976185   -0.982792
 O    8.551607    0.062497   -1.150704
 H   -3.452222    0.306907    1.184859
 H   -4.176399    0.889975   -1.719693
 H   -5.955898    0.657265    0.744481
 H   -6.800582   -1.399346   -0.201440
 H   -4.850349   -1.652658    1.180497
 H   -4.459129   -3.332866   -1.335711
 H   -5.489663   -3.752099    0.047678
 H   -3.409403    2.683946   -0.318848
 H   -6.514159    2.061930   -1.120644
 H   -6.321450   -0.568514   -2.404958
 H   -2.698800   -3.391074    0.154119
 H    1.344458   -0.393716   -0.675235
 H   -0.087949    1.465362   -1.041292
 H    1.326802    2.689282    1.038471
 H   -1.317370    0.984191    1.562583
 H   -1.540099   -1.405137    1.515599
 H   -1.436878   -1.513926   -0.792160
 H    0.342032   -0.920458    2.767676
 H    0.526201   -3.264249    1.974100
 H    1.427004   -2.720358    0.554332
 H    2.896113   -1.771985    2.189711
 H   -0.805831    5.150558    2.034232
 H    0.013241    5.612172    0.543053
 H    0.918585    4.759211    1.817604
 H    6.899749    1.781505   -0.923089
 H    4.570035    2.618045   -0.545191
 H    3.200400   -1.443132   -0.175694
 H    5.500327   -2.248225   -0.561943
