63 
3m3e_ligand_xtb.xyz
 C   -3.344401    0.214286    0.136930
 C   -4.348608    1.084594   -0.630089
 C   -5.768639    0.588040   -0.335995
 C   -5.873823   -0.911952   -0.652958
 C   -4.773860   -1.677651    0.093796
 C   -4.725019   -3.153525   -0.324581
 O   -4.269757    2.425045   -0.236919
 O   -6.708184    1.264153   -1.132905
 O   -5.749177   -1.128637   -2.031694
 O   -3.485261   -1.149975   -0.175910
 O   -3.728110   -3.856241    0.364018
 O    1.579956   -0.252778    1.353155
 C    1.433543    0.336876    0.084403
 C    0.170041    1.209829    0.050736
 N    0.399267    2.443649    0.763498
 C   -1.023928    0.434551    0.654823
 O   -2.078927    0.614061   -0.262853
 C   -0.707460   -1.060505    0.860559
 O   -0.595280   -1.709345   -0.379859
 C    0.581329   -1.220483    1.676272
 C    1.173967   -2.631442    1.529411
 O    2.294709   -2.793560    2.352527
 C   -0.478594    3.473491    0.714417
 O   -1.525471    3.409749    0.102814
 C   -0.034282    4.687260    1.496071
 C    6.360673   -0.219468   -0.765378
 C    6.079054    1.144308   -0.762478
 C    4.788385    1.566309   -0.547829
 C    3.765846    0.635285   -0.332916
 C    4.057566   -0.726847   -0.337074
 C    5.353140   -1.151301   -0.554255
 O    2.530075    1.171812   -0.134774
 N    7.708936   -0.666008   -0.988322
 O    7.912654   -1.861472   -0.995410
 O    8.561134    0.180885   -1.156257
 H   -3.488902    0.368423    1.226971
 H   -4.134054    0.966809   -1.703745
 H   -5.980721    0.758041    0.731677
 H   -6.852983   -1.275905   -0.301025
 H   -4.967660   -1.599998    1.176518
 H   -4.571396   -3.193406   -1.408562
 H   -5.673748   -3.631055   -0.075992
 H   -3.342902    2.722269   -0.267006
 H   -6.498753    2.205199   -1.076331
 H   -6.291165   -0.452564   -2.463465
 H   -2.878427   -3.452823    0.149008
 H    1.357350   -0.436856   -0.697851
 H   -0.099157    1.443633   -0.986456
 H    1.266686    2.524589    1.269243
 H   -1.288909    0.874837    1.628606
 H   -1.525113   -1.517283    1.439811
 H   -1.403427   -1.496872   -0.874912
 H    0.358464   -1.043301    2.735399
 H    0.437708   -3.374143    1.840230
 H    1.422334   -2.809710    0.474366
 H    2.856476   -2.014419    2.249506
 H   -0.788105    5.464190    1.410803
 H    0.909906    5.057247    1.103666
 H    0.100145    4.429854    2.544160
 H    6.879912    1.847952   -0.929516
 H    4.538233    2.614639   -0.543428
 H    3.287036   -1.459693   -0.168988
 H    5.597295   -2.202660   -0.559561
