63 
3m3e_ligand_ani.xyz
 C   -3.340966    0.153044    0.108588
 C   -4.419723    0.990222   -0.578048
 C   -5.806693    0.469956   -0.224647
 C   -5.925398   -1.014706   -0.546711
 C   -4.777100   -1.763783    0.125451
 C   -4.687487   -3.232037   -0.264211
 O   -4.407464    2.344254   -0.181674
 O   -6.785069    1.149208   -0.986166
 O   -5.847427   -1.204777   -1.939865
 O   -3.510457   -1.202970   -0.236285
 O   -3.542850   -3.811777    0.317866
 O    1.598518   -0.140809    1.339936
 C    1.465198    0.427804    0.054880
 C    0.168333    1.244066   -0.048875
 N    0.371973    2.530116    0.601861
 C   -1.004185    0.459111    0.569174
 O   -2.087939    0.549065   -0.360851
 C   -0.654382   -1.018100    0.823036
 O   -0.468723   -1.699572   -0.402760
 C    0.609947   -1.120673    1.674742
 C    1.279113   -2.490400    1.596716
 O    2.480208   -2.486241    2.335234
 C   -0.576157    3.504221    0.624914
 O   -1.738226    3.303695    0.296465
 C   -0.076194    4.850803    1.108217
 C    6.341164   -0.268429   -0.714320
 C    6.130342    1.106071   -0.722235
 C    4.849865    1.591402   -0.531046
 C    3.792925    0.697841   -0.330839
 C    4.017740   -0.680774   -0.325145
 C    5.304860   -1.167753   -0.520868
 O    2.565701    1.267324   -0.149251
 N    7.702845   -0.775668   -0.918397
 O    7.862885   -1.984231   -0.908354
 O    8.593310    0.040272   -1.085695
 H   -3.402966    0.277896    1.207718
 H   -4.276180    0.886427   -1.664753
 H   -5.978737    0.626887    0.853376
 H   -6.882621   -1.394743   -0.149590
 H   -4.892106   -1.688720    1.221817
 H   -4.676903   -3.310112   -1.360186
 H   -5.562378   -3.773857    0.112053
 H   -3.495145    2.678028   -0.210909
 H   -6.543593    2.087518   -0.960577
 H   -6.416675   -0.521753   -2.326200
 H   -2.806200   -3.245548    0.043250
 H    1.460450   -0.353711   -0.715053
 H   -0.085559    1.385110   -1.104219
 H    1.339173    2.800953    0.718923
 H   -1.284665    0.934269    1.516071
 H   -1.471942   -1.495362    1.391257
 H   -1.196443   -1.432176   -0.983769
 H    0.342520   -0.906967    2.718301
 H    0.627969   -3.263348    2.019957
 H    1.456626   -2.742751    0.540181
 H    2.877623   -1.614104    2.178924
 H   -0.918311    5.541162    1.164109
 H    0.673514    5.256180    0.419496
 H    0.387410    4.761835    2.096188
 H    6.969586    1.774333   -0.878318
 H    4.656266    2.659879   -0.533080
 H    3.214022   -1.391886   -0.155102
 H    5.514585   -2.231419   -0.525554
