147 
3m3r_ligand_dft.xyz
 C   -1.014580   -3.711163    0.041869
 C   -2.049783   -4.824244   -0.187622
 O   -1.505115   -5.975562   -0.783009
 C   -3.162438   -4.319768   -1.109788
 O   -4.363206   -5.032549   -0.904364
 C   -3.379962   -2.833142   -0.858525
 O   -4.446150   -2.286783   -1.617703
 C   -2.119283   -2.076263   -1.322220
 O   -0.934750   -2.839733   -1.085958
 C   -1.997671   -0.682680   -0.715640
 O   -1.780804   -0.723167    0.676019
 C   -5.737889   -2.404706   -1.048236
 C   -6.662290   -1.736265   -2.067835
 O   -6.410822   -2.209863   -3.371804
 C   -6.461311   -0.225608   -2.009259
 O   -7.262187    0.430205   -2.963360
 C   -6.774143    0.330847   -0.625740
 O   -5.875731    1.424072   -0.453019
 C   -6.651147   -0.724828    0.489079
 O   -5.750384   -1.785699    0.211889
 C   -8.015140   -1.274959    0.914135
 O   -8.738359   -0.182089    1.442762
 C   -6.064606    2.263585    0.651479
 C   -5.491483    3.613375    0.218277
 O   -6.100272    4.091195   -0.959633
 C   -3.980899    3.487657    0.026078
 O   -3.413446    4.756403   -0.245996
 C   -3.335902    2.907011    1.270268
 O   -1.968226    2.697180    0.992795
 C   -4.007946    1.579991    1.635367
 O   -5.411735    1.801924    1.810057
 C   -3.488299    0.990548    2.932176
 O   -3.607083    1.885857    4.018422
 C   -1.040020    3.082597    1.978774
 C   -0.447752    4.450743    1.626173
 O   -1.403715    5.483112    1.600819
 C    0.303115    4.376237    0.295297
 O    0.965726    5.595090    0.043513
 C    1.322739    3.250400    0.344213
 O    1.898385    3.001141   -0.927987
 C    0.653209    1.948009    0.785015
 O   -0.016766    2.122895    2.029551
 C    1.650098    0.824998    0.998289
 O    0.992766   -0.360092    1.434716
 C    3.137874    3.632227   -1.158704
 C    3.522104    3.260758   -2.594010
 O    2.403556    3.303388   -3.455668
 C    4.145168    1.866975   -2.610176
 O    4.407506    1.471345   -3.930592
 C    5.435807    1.842102   -1.799899
 O    5.619545    0.485462   -1.412020
 C    5.367922    2.797287   -0.578687
 O    4.039628    3.126292   -0.198681
 C    6.266889    4.021969   -0.685025
 O    5.948936    4.786403   -1.828720
 C    6.839647    0.140864   -0.844286
 C    7.089770   -1.346980   -1.083702
 O    7.130677   -1.612967   -2.455739
 C    5.993839   -2.154415   -0.393382
 O    6.275984   -3.513640   -0.622759
 C    5.980686   -1.786329    1.087992
 O    5.015030   -2.499400    1.871232
 C    5.815685   -0.271392    1.256579
 O    6.867852    0.381150    0.557013
 C    5.848132    0.172967    2.714264
 O    6.921251   -0.356878    3.457077
 C    3.732197   -2.639296    1.368934
 C    2.786872   -2.882212    2.552826
 O    3.403577   -3.613344    3.585215
 C    1.554318   -3.678849    2.095854
 O    0.387249   -3.293457    2.796157
 C    1.285457   -3.487784    0.610006
 O    0.214709   -4.324181    0.188962
 C    2.503079   -3.893106   -0.241081
 O    3.721629   -3.750879    0.489763
 C    2.575805   -3.144103   -1.579288
 O    1.545408   -3.509461   -2.453932
 H   -1.269507   -3.117705    0.925208
 H   -2.499890   -5.064719    0.788298
 H   -0.586269   -6.038609   -0.486250
 H   -2.811451   -4.450636   -2.143851
 H   -4.174326   -5.958980   -1.101522
 H   -3.571000   -2.643909    0.203935
 H   -2.196973   -1.979070   -2.411592
 H   -2.934946   -0.144695   -0.903642
 H   -1.190509   -0.140650   -1.226894
 H   -0.821830   -0.684338    0.832710
 H   -5.968245   -3.463098   -0.913656
 H   -7.706520   -1.981240   -1.853010
 H   -5.450356   -2.334143   -3.423715
 H   -5.394180   -0.033762   -2.196878
 H   -7.157120   -0.077394   -3.781731
 H   -7.800947    0.715176   -0.620887
 H   -6.236693   -0.235165    1.371044
 H   -8.547363   -1.732665    0.066846
 H   -7.840687   -2.056795    1.665603
 H   -9.620038   -0.484698    1.685049
 H   -7.125223    2.332078    0.915038
 H   -5.689493    4.352798    1.000649
 H   -6.159503    3.327581   -1.555962
 H   -3.783721    2.806211   -0.814155
 H   -3.994697    5.193043   -0.884998
 H   -3.458707    3.613196    2.100478
 H   -3.838924    0.849781    0.837566
 H   -4.016697    0.046066    3.124340
 H   -2.428394    0.761052    2.808136
 H   -4.540944    2.127181    4.077058
 H   -1.506384    3.091348    2.968729
 H    0.266990    4.718762    2.412180
 H   -2.059932    5.286526    0.904083
 H   -0.423024    4.156269   -0.503199
 H    0.331095    6.288232    0.277505
 H    2.108476    3.511087    1.062567
 H   -0.073464    1.637989    0.023617
 H    2.149359    0.589330    0.056956
 H    2.412356    1.129973    1.727655
 H    0.611309   -0.171328    2.304450
 H    3.025873    4.711991   -1.021677
 H    4.246210    3.980431   -2.976055
 H    1.652373    2.994079   -2.926891
 H    3.444712    1.167447   -2.122948
 H    3.635576    1.765105   -4.437643
 H    6.259213    2.141395   -2.461336
 H    5.753747    2.248632    0.280590
 H    6.137655    4.608749    0.235097
 H    7.308481    3.664888   -0.721234
 H    6.499293    5.576720   -1.835022
 H    7.654892    0.746617   -1.256322
 H    8.051021   -1.589002   -0.602307
 H    7.045731   -2.573386   -2.537942
 H    5.040976   -1.871040   -0.860855
 H    5.488875   -3.998017   -0.324517
 H    6.941936   -2.075941    1.521714
 H    4.851486    0.048687    0.831683
 H    4.879799   -0.074602    3.173037
 H    5.959072    1.260809    2.737211
 H    6.702705   -1.269464    3.678520
 H    3.409942   -1.738323    0.825121
 H    2.446573   -1.900302    2.911922
 H    4.334390   -3.350248    3.592446
 H    1.779188   -4.740157    2.267606
 H    0.478392   -3.606947    3.704147
 H    1.016181   -2.441530    0.431049
 H    2.411642   -4.962486   -0.450440
 H    2.598244   -2.055034   -1.393452
 H    3.520135   -3.407291   -2.066243
 H    0.691575   -3.247150   -2.072184
