39 
3m3x_ligand_dft.xyz
 N    4.341198    2.057945   -0.073471
 C    3.014518    2.080460    0.032004
 N    2.194907    1.067776    0.220823
 C    2.749183   -0.165733    0.305805
 C    4.159228   -0.325637    0.142655
 C    4.916951    0.859696   -0.018549
 N    1.904874   -1.178770    0.533203
 C   -1.676195   -0.563214   -0.592434
 C   -2.644575   -1.558534   -0.734522
 C   -3.993091   -1.273555   -0.552935
 C   -4.369194    0.022410   -0.218788
 C   -3.425108    1.035280   -0.078025
 C   -2.082815    0.734038   -0.264229
 S   -6.091126    0.393861    0.030651
 O   -6.268828    1.823233   -0.174193
 O   -6.868982   -0.598727   -0.694688
 N   -6.324573    0.096033    1.665478
 N    4.776809   -1.625564    0.124203
 O    5.908167   -1.744232   -0.307804
 O    4.116885   -2.588057    0.541471
 O    6.231733    0.793132   -0.088299
 C    6.952172    2.020853   -0.217393
 C    0.467827   -1.003976    0.630475
 C   -0.208005   -0.868960   -0.743845
 H    2.551701    3.062585   -0.040773
 H    2.325797   -2.093781    0.623214
 H   -2.342430   -2.567594   -1.002135
 H   -4.748509   -2.040642   -0.685181
 H   -3.744615    2.045387    0.154706
 H   -1.333661    1.515380   -0.163023
 H   -6.588567    0.951642    2.143642
 H   -7.016739   -0.635847    1.790818
 H    6.661025    2.544608   -1.130047
 H    6.770077    2.668952    0.642502
 H    7.998314    1.721000   -0.260996
 H    0.258245   -0.115187    1.230581
 H    0.069689   -1.871679    1.163874
 H    0.288201   -0.058515   -1.287121
 H   -0.060192   -1.791602   -1.315336
