29 
3m40_ligand_ani.xyz
 N    4.007023   -2.034734    0.218618
 C    2.731282   -2.413093    0.202445
 N    1.657209   -1.650265    0.038700
 C    1.852947   -0.337714   -0.104092
 C    3.176419    0.185677   -0.028297
 C    4.216819   -0.733779    0.093495
 N    0.797339    0.500982   -0.296696
 C   -0.588650    0.275512   -0.228373
 C   -1.383544    1.386785    0.086140
 C   -2.762117    1.271579    0.170327
 C   -3.350866    0.036535   -0.081608
 C   -2.575381   -1.067587   -0.417740
 C   -1.194566   -0.955992   -0.493893
 S   -5.112854   -0.132267   -0.021520
 O   -5.716540    0.794680   -0.965566
 O   -5.416155   -1.554744   -0.053812
 N   -5.484494    0.460769    1.498886
 N    3.411651    1.619637   -0.010978
 O    2.733459    2.324387   -0.758965
 O    4.253546    2.055017    0.746889
Cl    5.870185   -0.262455    0.030020
 H    2.551971   -3.477299    0.319777
 H    1.056716    1.467777   -0.455127
 H   -0.903592    2.343893    0.278127
 H   -3.375538    2.131805    0.424874
 H   -3.063040   -2.017155   -0.613244
 H   -0.579633   -1.809741   -0.747923
 H   -6.252936    1.119566    1.414867
 H   -5.711053   -0.297808    2.134104
