116 
3m56_ligand_ani.xyz
 C   -5.531553   -3.624059   -0.357619
 O   -5.448487   -2.404671   -0.333427
 C   -6.577182   -4.356685   -1.170702
 N   -4.709770   -4.436282    0.382712
 C   -3.507750   -3.916060    0.986987
 C   -2.297737   -4.263271    0.096063
 O   -2.397646   -5.028010   -0.852438
 C   -3.325991   -4.418643    2.418097
 O   -2.271227   -3.661685    2.995293
 N   -1.156490   -3.588585    0.393517
 C   -0.113606   -3.410141   -0.582234
 C    1.232094   -3.391908    0.146412
 O    1.315298   -3.222482    1.361905
 C   -0.275145   -2.085042   -1.374891
 C   -1.713062   -1.809412   -1.831405
 C   -1.911242   -0.396753   -2.372454
 C   -3.390039   -0.027680   -2.552475
 N   -4.156476   -0.097255   -1.281217
 N    2.324607   -3.521498   -0.638789
 C    3.675786   -3.354025   -0.130605
 C    4.004338   -1.854443    0.084407
 O    4.737855   -1.251029   -0.694414
 C    4.650583   -4.001480   -1.108586
 O    4.231423   -3.668349   -2.425720
 N    3.450762   -1.330692    1.205909
 C    3.268919    0.084167    1.535785
 C    4.392767    1.031682    1.103459
 C    5.743947    0.692223    1.733260
 C    6.898102    1.570674    1.235691
 C    7.065908    1.597035   -0.288481
 N    6.967362    0.261399   -0.930838
 C    6.899584    0.390812   -2.391972
 C    8.078133   -0.629462   -0.556927
 C    1.946940    0.546608    0.913811
 O    1.753524    0.529116   -0.292228
 N    0.982099    0.989455    1.777665
 C   -0.382859    1.101632    1.294543
 C   -0.618733    2.326941    0.396547
 O   -1.461131    2.280302   -0.501904
 C   -1.387001    1.079388    2.466213
 C   -2.770514    0.982623    1.877097
 O   -3.159854   -0.042738    1.343827
 O   -3.452774    2.119411    1.886237
 N    0.075009    3.441512    0.688475
 C   -0.073354    4.665272   -0.069145
 C    1.272866    5.364406   -0.084591
 O    1.322229    6.338728   -1.005690
 C   -1.128371    5.632489    0.510999
 C   -2.583473    5.179768    0.376672
 C   -3.083024    5.108176   -1.070750
 N   -4.526230    4.908005   -1.141994
 C   -5.095743    3.686844   -0.867793
 N   -6.473981    3.676308   -0.971198
 N   -4.467276    2.608693   -0.539311
 O    2.193953    5.111863    0.656206
 H   -7.222969   -4.948112   -0.514999
 H   -6.110503   -5.038285   -1.890043
 H   -7.183132   -3.628175   -1.709508
 H   -4.617734   -5.384697    0.037034
 H   -3.608048   -2.827255    1.044775
 H   -4.265244   -4.267923    2.964816
 H   -3.090866   -5.493447    2.409882
 H   -2.029079   -4.052836    3.842419
 H   -1.018815   -3.212796    1.323327
 H   -0.168723   -4.254804   -1.280184
 H    0.401383   -2.100343   -2.240494
 H    0.068692   -1.255860   -0.741885
 H   -2.379940   -1.933752   -0.970477
 H   -2.031373   -2.555788   -2.572722
 H   -1.457339    0.323585   -1.677859
 H   -1.399580   -0.275091   -3.334899
 H   -3.860039   -0.694003   -3.282382
 H   -3.468851    0.992212   -2.944596
 H   -4.829780   -0.878799   -1.259578
 H   -3.533598   -0.230650   -0.471503
 H   -4.638036    0.810971   -1.103463
 H    2.238910   -3.535404   -1.646453
 H    3.731116   -3.851341    0.841990
 H    4.637029   -5.090983   -0.961108
 H    5.662079   -3.632993   -0.902595
 H    4.982240   -3.778288   -3.019386
 H    2.765195   -1.944447    1.645089
 H    3.189472    0.118041    2.629869
 H    4.095397    2.048897    1.395707
 H    4.442909    1.028325    0.012847
 H    5.978946   -0.362673    1.544336
 H    5.666380    0.792061    2.824586
 H    7.832477    1.242473    1.709836
 H    6.744449    2.607492    1.563851
 H    8.039338    2.034800   -0.554928
 H    6.297869    2.234587   -0.740984
 H    6.088322   -0.191521   -0.654300
 H    6.805088   -0.600245   -2.839003
 H    6.031198    0.994271   -2.667909
 H    7.808091    0.874173   -2.772428
 H    7.943495   -1.600824   -1.040761
 H    8.102739   -0.774518    0.523272
 H    9.034921   -0.200313   -0.881000
 H    1.121881    0.862893    2.769690
 H   -0.608064    0.247387    0.647065
 H   -1.289028    1.967241    3.095242
 H   -1.207832    0.174606    3.055759
 H   -4.115188    2.105222    1.137662
 H    0.871980    3.382057    1.311532
 H   -0.337443    4.415557   -1.103215
 H    2.199914    6.748564   -0.924438
 H   -0.898221    5.783334    1.572762
 H   -1.002070    6.602586    0.014558
 H   -3.213474    5.902773    0.907591
 H   -2.734939    4.214164    0.871147
 H   -2.553690    4.316715   -1.620590
 H   -2.869481    6.054296   -1.579994
 H   -5.026419    5.465149   -1.819838
 H   -6.927367    4.521841   -0.651050
 H   -6.876523    2.843372   -0.561131
 H   -3.462267    2.695391   -0.669128
