116 
3m56_ligand_dft.xyz
 C    5.521130   -2.880576    0.018465
 O    5.155347   -1.858821    0.593405
 C    6.779327   -3.609071    0.414376
 N    4.816693   -3.433769   -1.010433
 C    3.453947   -3.022745   -1.240823
 C    2.558476   -3.514261   -0.086617
 O    2.997513   -4.188449    0.827678
 C    2.981312   -3.462946   -2.625671
 O    1.749675   -2.796280   -2.900901
 N    1.290439   -3.013765   -0.113698
 C    0.400016   -3.202426    1.009758
 C   -1.007507   -3.380808    0.438826
 O   -1.171208   -3.664546   -0.751775
 C    0.522413   -2.028767    2.017785
 C    1.980740   -1.672885    2.317478
 C    2.165106   -0.347770    3.061968
 C    3.567036    0.229576    2.859791
 N    3.837915    0.439687    1.402866
 N   -2.039649   -3.226009    1.291352
 C   -3.436386   -3.339499    0.899938
 C   -3.863015   -2.076093    0.121203
 O   -4.611896   -1.238329    0.623099
 C   -4.267349   -3.582120    2.156045
 O   -3.846068   -2.663677    3.145645
 N   -3.358248   -2.038396   -1.137184
 C   -2.931634   -0.846641   -1.858839
 C   -3.906865    0.335072   -1.843443
 C   -5.335219   -0.018449   -2.257698
 C   -6.317190    1.148856   -2.075578
 C   -6.261847    1.815190   -0.700901
 N   -6.306977    0.834474    0.435866
 C   -5.924822    1.472569    1.724173
 C   -7.608757    0.123871    0.543110
 C   -1.613992   -0.377481   -1.218931
 O   -1.487212   -0.341970   -0.006027
 N   -0.628969    0.065637   -2.050286
 C    0.668207    0.378348   -1.472197
 C    0.586496    1.548288   -0.484890
 O    1.393574    1.622275    0.445610
 C    1.691031    0.653935   -2.591537
 C    3.000092    1.048853   -1.939846
 O    3.710849    0.249604   -1.364985
 O    3.219585    2.351254   -1.975531
 N   -0.335528    2.494022   -0.724051
 C   -0.595153    3.577275    0.199495
 C   -2.085976    3.627139    0.495179
 O   -2.346153    4.470758    1.492347
 C   -0.101397    4.943403   -0.328310
 C    1.422347    5.062114   -0.424924
 C    2.095356    5.225903    0.943964
 N    3.535879    5.400098    0.852658
 C    4.403973    4.373931    0.625510
 N    5.721366    4.719553    0.581177
 N    4.056051    3.124212    0.464277
 O   -2.939295    3.007043   -0.103829
 H    7.247507   -4.124456   -0.428225
 H    6.521259   -4.351470    1.177289
 H    7.485509   -2.900485    0.848063
 H    5.050495   -4.392158   -1.233669
 H    3.437456   -1.927791   -1.225409
 H    3.743228   -3.182559   -3.361960
 H    2.843742   -4.551989   -2.660134
 H    1.280018   -3.303047   -3.573339
 H    0.888893   -2.824425   -1.026546
 H    0.680286   -4.137335    1.512569
 H    0.007958   -2.289674    2.951904
 H    0.018279   -1.153413    1.593000
 H    2.491926   -1.594493    1.355669
 H    2.480484   -2.487643    2.850116
 H    1.436023    0.389446    2.703063
 H    1.994582   -0.467943    4.136916
 H    4.342390   -0.440896    3.236659
 H    3.668159    1.196427    3.357033
 H    4.302096   -0.379118    0.964002
 H    2.956068    0.613593    0.898392
 H    4.393620    1.290259    1.201860
 H   -1.895976   -2.828660    2.211049
 H   -3.539649   -4.204917    0.235459
 H   -4.099824   -4.617350    2.477830
 H   -5.330651   -3.457960    1.916705
 H   -4.112394   -3.000091    4.008756
 H   -2.717292   -2.817129   -1.308757
 H   -2.766090   -1.163733   -2.894865
 H   -3.507536    1.104759   -2.515835
 H   -3.868634    0.769714   -0.842531
 H   -5.674450   -0.889145   -1.684952
 H   -5.356690   -0.328849   -3.307596
 H   -7.333644    0.810806   -2.301349
 H   -6.097713    1.939716   -2.801542
 H   -7.097317    2.507589   -0.561705
 H   -5.331715    2.375132   -0.577928
 H   -5.584485    0.095026    0.282382
 H   -5.874474    0.700446    2.492372
 H   -4.940701    1.926259    1.598650
 H   -6.666921    2.228824    1.987526
 H   -7.533680   -0.617022    1.339401
 H   -7.823452   -0.378772   -0.399537
 H   -8.395050    0.846349    0.769840
 H   -0.668676   -0.162055   -3.034003
 H    1.024099   -0.470615   -0.876623
 H    1.337947    1.448889   -3.253897
 H    1.836641   -0.276680   -3.148508
 H    3.865587    2.588426   -1.245030
 H   -1.035342    2.308607   -1.430750
 H   -0.085734    3.333872    1.136529
 H   -3.307571    4.523844    1.613729
 H   -0.543312    5.102605   -1.318554
 H   -0.494866    5.729356    0.325724
 H    1.664921    5.942267   -1.029298
 H    1.837912    4.198640   -0.955038
 H    1.863156    4.378173    1.603545
 H    1.699714    6.116609    1.439921
 H    3.921665    6.263937    1.201905
 H    5.984576    5.644582    0.276668
 H    6.357517    3.980784    0.321647
 H    3.060263    3.005126    0.644550
