56 
3m6f_ligand_ani.xyz
 C   -4.663507   -2.608345   -0.292315
 C   -3.523408   -2.334297    0.448110
 C   -2.629192   -1.385387   -0.040387
 C   -2.872517   -0.711290   -1.235704
 C   -4.040948   -0.994593   -1.926906
 C   -4.948448   -1.945566   -1.479606
Cl   -4.375776   -0.140652   -3.404970
 N   -1.455328   -1.081106    0.701578
 C   -1.407808   -0.960045    2.105703
 N   -0.179851   -0.453681    2.423892
 C    0.615590   -0.110301    1.265138
 C   -0.244706   -0.687814    0.138516
 O    0.063796   -0.776337   -1.028668
 C    2.041285   -0.686646    1.213608
 N    2.806043    0.291636    0.455315
 C    2.043709    1.483950    0.112215
 C    0.851626    1.424863    1.071649
 C   -0.360260    2.244603    0.688337
 C   -0.874545    2.252518   -0.610637
 C   -2.000081    2.996815   -0.930914
 C   -2.637919    3.759083    0.051591
 C   -2.136137    3.759562    1.356396
 C   -1.010790    3.007177    1.660189
 C   -3.807194    4.537142   -0.275054
 N   -4.746647    5.163710   -0.535168
 C    4.082587    0.041397    0.047423
 N    4.654655   -1.080173    0.514366
 C    5.905277   -1.341882    0.150184
 C    6.656801   -0.534578   -0.694486
 C    6.054175    0.627273   -1.191808
 C    4.760430    0.927431   -0.826567
 C    8.039083   -0.943829   -1.023768
 O    8.585578   -1.940636   -0.608373
 O    8.656463   -0.080234   -1.855247
 C    0.212023   -0.225501    3.796217
 O   -2.287574   -1.255067    2.886651
Cl   -5.779783   -3.805061    0.288674
 H   -3.336054   -2.833367    1.390593
 H   -2.160835    0.006017   -1.624731
 H   -5.851897   -2.164317   -2.038305
 H    2.470446   -0.828334    2.213652
 H    2.042343   -1.657979    0.711498
 H    2.635938    2.391727    0.266443
 H    1.720567    1.459286   -0.936750
 H    1.204896    1.788076    2.042074
 H   -0.413190    1.641049   -1.383490
 H   -2.398488    2.991585   -1.941056
 H   -2.627326    4.351392    2.123028
 H   -0.629826    3.020746    2.680129
 H    6.351738   -2.250845    0.544483
 H    6.608776    1.282080   -1.857811
 H    4.267886    1.816666   -1.207726
 H    9.544027   -0.447413   -1.999202
 H   -0.675273   -0.386017    4.409988
 H    0.997959   -0.920710    4.113227
 H    0.563889    0.802533    3.933461
