56 
3m6f_ligand_dft.xyz
 C   -4.470938   -2.695703   -0.405735
 C   -3.322406   -2.404887    0.319121
 C   -2.570534   -1.295851   -0.055548
 C   -2.946333   -0.494083   -1.129427
 C   -4.093002   -0.826608   -1.834973
 C   -4.873567   -1.923391   -1.489012
Cl   -4.575379    0.171375   -3.180672
 N   -1.403803   -0.950679    0.675752
 C   -1.362762   -0.873192    2.091989
 N   -0.117712   -0.414231    2.422508
 C    0.665407   -0.047545    1.266406
 C   -0.207877   -0.547828    0.117103
 O    0.088215   -0.539045   -1.055234
 C    2.089309   -0.622392    1.219511
 N    2.862041    0.400350    0.535832
 C    2.077750    1.556088    0.144925
 C    0.880006    1.494897    1.093600
 C   -0.381400    2.233699    0.714084
 C   -0.711989    2.544794   -0.608612
 C   -1.928876    3.138053   -0.917870
 C   -2.846173    3.420255    0.097851
 C   -2.528138    3.118851    1.425157
 C   -1.303335    2.538908    1.721166
 C   -4.110399    4.024860   -0.219570
 N   -5.128587    4.516625   -0.472993
 C    4.118715    0.139565    0.078489
 N    4.657943   -1.018155    0.498254
 C    5.891436   -1.307825    0.100770
 C    6.661953   -0.488063   -0.721798
 C    6.085489    0.710209   -1.163459
 C    4.805711    1.035938   -0.771022
 C    8.022768   -0.921646   -1.088731
 O    8.548951   -1.949887   -0.724286
 O    8.654493   -0.040948   -1.895026
 C    0.257864   -0.172305    3.795934
 O   -2.262755   -1.174215    2.839623
Cl   -5.432359   -4.076824    0.050261
 H   -3.031149   -3.013661    1.164819
 H   -2.356846    0.369635   -1.407502
 H   -5.771267   -2.166974   -2.044105
 H    2.477282   -0.796918    2.229092
 H    2.131163   -1.575512    0.684495
 H    2.639270    2.485174    0.286334
 H    1.780579    1.481606   -0.908092
 H    1.217665    1.862827    2.070247
 H   -0.031227    2.305526   -1.417057
 H   -2.176375    3.370990   -1.948086
 H   -3.238784    3.338387    2.214330
 H   -1.065132    2.313754    2.756874
 H    6.306805   -2.248721    0.452956
 H    6.644391    1.372433   -1.815913
 H    4.339068    1.949745   -1.118922
 H    9.527847   -0.424033   -2.071762
 H   -0.573309   -0.496427    4.423268
 H    1.152549   -0.740404    4.067582
 H    0.446520    0.891794    3.980263
