18 
3mag_ligand_ani.xyz
 N    1.133265    1.741069   -0.000913
 C    0.662641    0.509287   -0.001604
 N    1.345773   -0.683920   -0.001604
 C    2.802263   -0.674722    0.002962
 C    0.598817   -1.820693   -0.000543
 N   -0.707011   -1.875690   -0.000111
 C   -1.417871   -0.713818   -0.001372
 N   -2.762313   -0.798062   -0.012577
 C   -0.748366    0.506441   -0.001291
 N   -1.191953    1.800429    0.001009
 C   -0.044212    2.458148    0.000587
 H    3.174117   -0.140224   -0.875346
 H    3.170434   -0.165107    0.897677
 H    3.171967   -1.702930   -0.010364
 H    1.167312   -2.751306   -0.000477
 H   -3.196399   -1.704902    0.047709
 H   -3.313106    0.045056    0.046289
 H   -0.018287    3.544772    0.001446
