30 
3mb6_ligand_xtb.xyz
 C    1.424060    2.054502   -0.001102
 C    2.344224    1.023148   -0.001012
 C    1.902697   -0.328038   -0.001597
 C    0.568588   -0.662749   -0.002229
 C   -0.361846    0.379371   -0.001862
 C    0.060123    1.747797   -0.001356
 C   -1.766784    0.148235   -0.001373
 C   -2.667546    1.221091   -0.000140
 C   -2.247721    2.563071    0.000087
 C   -0.907786    2.797174   -0.000632
 C    3.767849    0.943278    0.000034
 C    4.076479   -0.389180    0.000089
 O    2.959183   -1.163384   -0.001005
 C   -2.574145   -1.015233   -0.001344
 C   -3.877939   -0.576598    0.000003
 O   -3.929798    0.777858    0.000811
 C   -5.163992   -1.304009    0.001740
 C    5.378750   -1.095774    0.001682
 O    5.484879   -2.287714    0.002581
 O   -5.059496   -2.648016   -0.004844
 O   -6.232533   -0.763343    0.008625
 O    6.461715   -0.294892    0.002239
 H    1.747228    3.084276   -0.000648
 H    0.256448   -1.693530   -0.002647
 H   -2.975289    3.357589    0.000956
 H   -0.540175    3.812286   -0.000403
 H    4.437873    1.780988    0.000837
 H   -2.223531   -2.028686   -0.001621
 H   -4.145652   -2.958432   -0.011024
 H    6.241443    0.644914    0.001370
