30 
3mb7_ligand_dft.xyz
 C    1.245782    3.196065   -0.013266
 C    2.456305    2.555746   -0.002997
 C    2.415593    1.154179    0.004584
 C    1.247232    0.399557    0.003235
 C   -0.008662    1.066954   -0.006991
 C    0.004659    2.489309   -0.015977
 C   -1.277812    0.424449   -0.010900
 C   -2.432119    1.199605   -0.021429
 C   -2.444502    2.603541   -0.032967
 C   -1.223709    3.220936   -0.028956
 C    1.676538   -0.969551    0.011409
 C    3.030673   -0.938537    0.016920
 O    3.506095    0.346947    0.013099
 C   -1.742584   -0.931890   -0.005189
 C   -3.102702   -0.864471   -0.014410
 O   -3.535957    0.423396   -0.019624
 C   -4.160857   -1.902669    0.036141
 C    4.015564   -2.038789    0.024106
 O    3.684106   -3.195633    0.022036
 O   -5.298782   -1.671991    0.337443
 O   -3.748619   -3.152848   -0.261306
 O    5.304044   -1.659466    0.031376
 H    1.215454    4.281735   -0.019801
 H    3.398162    3.091698   -0.001087
 H   -3.378189    3.153288   -0.041307
 H   -1.171922    4.305799   -0.034884
 H    1.092031   -1.876003    0.014317
 H   -1.146681   -1.832070    0.040390
 H   -2.856844   -3.142258   -0.633396
 H    5.364482   -0.692034    0.031701
