66 
3mbp_ligand_ani.xyz
 C    3.392945   -0.945326   -0.686837
 C    3.778068   -1.977876    0.378318
 C    4.242588   -1.261074    1.634750
 C    5.369942   -0.298937    1.303558
 C    4.911881    0.650078    0.199629
 C    6.010853    1.567638   -0.314381
 O    2.692221   -2.801762    0.739506
 O    4.724449   -2.182690    2.588903
 O    5.726613    0.471521    2.428722
 O    4.469648   -0.093112   -0.949577
 O    5.518092    2.416090   -1.326177
 C   -1.638633    0.192537   -1.606747
 C   -0.934038   -1.124203   -1.946900
 C    0.276234   -1.315914   -1.048910
 C    1.192394   -0.104615   -1.151432
 C    0.376996    1.135603   -0.776264
 C    1.167405    2.433728   -0.864018
 O   -1.754438   -2.257735   -1.777563
 O    0.956406   -2.500782   -1.441007
 O    2.272460   -0.215707   -0.236439
 O   -0.734173    1.263255   -1.674376
 O    0.428972    3.572862   -0.492961
 C   -5.879163    0.188709    1.530300
 C   -5.847657   -0.521324    0.183526
 C   -4.407806   -0.802865   -0.210347
 C   -3.581699    0.471721   -0.191485
 C   -3.742350    1.219899    1.140950
 C   -3.225892    2.658557    1.086259
 O   -5.385459   -0.729722    2.482420
 O   -6.603061   -1.716437    0.192700
 O   -4.381254   -1.363357   -1.519414
 O   -2.207325    0.124767   -0.322741
 O   -5.124667    1.369578    1.493097
 O   -1.862254    2.753721    0.723760
 H    3.146762   -1.449952   -1.627046
 H    4.615786   -2.587482   -0.004631
 H    3.394394   -0.685250    2.036829
 H    6.230254   -0.884918    0.933255
 H    4.080507    1.263346    0.576181
 H    6.379063    2.198734    0.498853
 H    6.852727    0.954954   -0.678579
 H    2.100981   -2.876896   -0.031676
 H    4.008732   -2.818095    2.733899
 H    5.923447   -0.154937    3.139237
 H    5.096232    1.828763   -1.969574
 H   -2.418823    0.403275   -2.349780
 H   -0.580251   -1.063774   -2.990380
 H   -0.059539   -1.418838   -0.008645
 H    1.573786    0.001964   -2.178939
 H    0.010270    0.999832    0.252678
 H    2.079525    2.337605   -0.252622
 H    1.476888    2.593149   -1.904857
 H   -2.687274   -1.981823   -1.831191
 H    0.262793   -3.166224   -1.575779
 H   -0.038974    3.394805    0.336589
 H   -6.903886    0.483359    1.786218
 H   -6.301727    0.123149   -0.575912
 H   -3.957706   -1.511756    0.497836
 H   -3.900692    1.126798   -1.016670
 H   -3.201514    0.652046    1.911549
 H   -3.344540    3.100382    2.079947
 H   -3.867163    3.227005    0.396760
 H   -5.401379   -0.295503    3.346225
 H   -6.355572   -2.188585    1.001407
 H   -5.099127   -2.014745   -1.543153
 H   -1.776221    2.527689   -0.218673
