26 
3mdz_ligand_dft.xyz
 N    4.091570    1.283245   -0.828949
 C   -0.175253    0.803142    0.012883
 C   -0.507269   -0.567717   -0.003588
 C   -1.827389   -0.999370   -0.014084
 C   -2.833984   -0.035140   -0.004368
 C   -5.186042    0.393132    0.002617
 O    4.020259    0.271840    1.454114
 O    4.076339   -1.214300   -0.604886
 S    3.644540   -0.016992    0.087816
 C    1.849706   -0.019428    0.011097
 N    1.182715    1.078111    0.021088
 S    0.952924   -1.522998   -0.024837
 C   -2.516161    1.338600    0.012371
 C   -1.196531    1.754670    0.020061
 O   -4.096778   -0.517935   -0.012457
 C   -6.460555   -0.425526   -0.005016
 H    3.727044    2.155476   -0.457844
 H    3.876619    1.156323   -1.812463
 H   -2.099910   -2.048411   -0.026882
 H   -5.137089    1.047162   -0.878725
 H   -5.132407    1.023232    0.900868
 H   -3.302782    2.083053    0.021045
 H   -0.944689    2.809549    0.035949
 H   -6.508628   -1.050895   -0.900622
 H   -6.504438   -1.073611    0.874476
 H   -7.330836    0.237447    0.005551
