40 
3mhc_ligand_dft.xyz
 N   -6.028261    1.011766    0.495746
 O    0.510623   -1.564864    0.035170
 O   -5.499439   -0.459024   -1.456948
 O   -5.283617   -1.345255    0.909790
 C    4.856478    1.604505   -0.029384
 C    5.182892   -0.528209    1.254933
 C    5.171952   -0.563597   -1.255765
 C    2.944218    0.609722    1.253892
 C    2.933201    0.574026   -1.267554
 C    3.256931   -1.559817    0.022314
 N   -1.831684    1.764331   -0.006554
 N   -3.173822    1.535867   -0.007833
 N    0.219497    0.668911    0.004684
 S   -2.102518   -0.808560    0.026585
 C    1.020967   -0.459837    0.016741
 C   -1.154329    0.647059    0.003338
 C   -3.460681    0.274677    0.006142
 C    4.465620    0.830281    1.239772
 C    4.454569    0.794842   -1.272744
 C    4.775780   -1.335352    0.012455
 C    2.522158   -0.206157    0.006277
 S   -5.163868   -0.277973   -0.061797
 H   -5.900951    1.838333   -0.080833
 H   -5.851818    1.198637    1.477577
 H    5.937970    1.788649   -0.036751
 H    4.363537    2.585838   -0.041122
 H    4.922948   -1.081791    2.166281
 H    6.269562   -0.376170    1.267960
 H    6.258451   -0.412144   -1.282531
 H    4.904148   -1.142689   -2.148778
 H    2.437934    1.584338    1.275041
 H    2.644389    0.073195    2.162759
 H    2.625601    0.011999   -2.158192
 H    2.426412    1.547579   -1.312106
 H    2.957526   -2.127676    0.910119
 H    2.949777   -2.152639   -0.846281
 H    0.623977    1.595214   -0.011291
 H    4.746829    1.408836    2.127163
 H    4.727936    1.348012   -2.178543
 H    5.278781   -2.308822    0.024034
