16 
3mhw_ligand_dft.xyz
 C    1.610754   -1.325471    0.008319
 N   -0.942985    1.308160    0.001291
 S   -1.230604   -1.297034   -0.011709
 C    2.780988   -0.575291    0.009275
 N   -3.179398    0.600900   -0.057570
 C    2.732620    0.823264    0.002978
 C    1.519299    1.496864   -0.003694
 C    0.332097    0.761357   -0.004947
 C    0.397752   -0.645761   -0.000348
 C   -1.831243    0.372020   -0.000922
 H    1.646201   -2.410191    0.012168
 H    3.740533   -1.082755    0.014214
 H   -3.434221    1.558697    0.140872
 H   -3.788962   -0.089225    0.354610
 H    3.658677    1.390109    0.003562
 H    1.470509    2.580597   -0.008089
