85 
3mj2_ligand_ani.xyz
 C    4.546698    2.783905   -0.386067
 C    3.797307    1.885965    0.377184
 C    4.262907    0.576236    0.506283
 C    5.404502    0.140366   -0.153045
 C    6.173639    1.043077   -0.906065
 C    5.718185    2.356905   -1.001669
 O    4.107659    4.060474   -0.605915
 C    4.576794    5.003826    0.352274
 C    2.539232    2.323242    1.079930
 N    1.419970    1.570958    0.847401
 O    2.513540    3.290243    1.830341
 C    0.213151    1.816448    1.625002
 C   -0.945515    2.198423    0.710554
 N   -1.101541    1.199929   -0.349285
 C    0.110130    0.978664   -1.128493
 C    1.254520    0.578470   -0.200435
 C   -2.344071    0.766521   -0.708521
 C   -2.453404   -0.033491   -1.992267
 O   -3.339191    1.020506   -0.027475
 S    5.972436   -1.546869   -0.068733
 C    4.231520   -2.983124    1.549811
 C    4.520646   -2.393597    0.358292
 S    3.148989   -2.514093   -0.707327
 C    2.252066   -3.144735    0.640398
 N    2.932819   -3.396240    1.719105
 N    0.879010   -3.315599    0.606883
 C    0.048528   -2.942322   -0.431680
 C   -1.397894   -2.814089   -0.055976
 C   -2.391521   -3.246062   -0.935067
 C   -3.723697   -2.943781   -0.684224
 C   -4.095254   -2.194602    0.438774
 C   -3.101374   -1.837135    1.355376
 C   -1.771405   -2.137286    1.108538
 O    0.466857   -2.719065   -1.552977
 C   -5.511779   -1.695061    0.622233
 N   -5.689552   -0.343190    0.007709
 C   -6.797084    0.489867    0.578739
 C   -7.365228    1.472800   -0.484926
 C   -7.939109    0.665553   -1.657581
 C   -8.506133    2.291157    0.135423
 C   -6.294220    2.435537   -1.018637
 C    7.443211    0.621722   -1.592067
 C   -6.310507    1.166084    1.867838
 H    3.693117   -0.094335    1.141989
 H    6.277468    3.085435   -1.583613
 H    4.202940    5.977268    0.027159
 H    5.675573    5.030542    0.368484
 H    4.181464    4.766794    1.345219
 H   -0.043939    0.902841    2.180036
 H    0.438269    2.611639    2.337434
 H   -0.750501    3.183638    0.261105
 H   -1.886908    2.249565    1.260226
 H   -0.040179    0.186354   -1.862148
 H    0.385617    1.897305   -1.667482
 H    2.174398    0.487014   -0.777277
 H    1.037537   -0.393102    0.261545
 H   -2.176297    0.580758   -2.857027
 H   -3.481733   -0.372907   -2.110688
 H   -1.794940   -0.905553   -1.975875
 H    4.939089   -3.099275    2.363316
 H    0.468757   -3.580284    1.490833
 H   -2.104853   -3.776418   -1.840150
 H   -4.485056   -3.268143   -1.390259
 H   -3.368409   -1.286039    2.255977
 H   -1.013693   -1.798249    1.810650
 H   -6.226972   -2.396114    0.179291
 H   -5.739694   -1.628615    1.689646
 H   -4.793595    0.185558    0.104071
 H   -5.859762   -0.504238   -0.998839
 H   -7.620327   -0.189211    0.848761
 H   -8.654259   -0.091556   -1.313699
 H   -7.163244    0.157482   -2.242115
 H   -8.465666    1.330359   -2.351238
 H   -8.146002    2.987640    0.900918
 H   -9.265195    1.643944    0.592891
 H   -9.001748    2.890697   -0.636395
 H   -5.849912    3.039083   -0.218205
 H   -5.480103    1.908463   -1.530385
 H   -6.742047    3.127511   -1.742124
 H    7.840234    1.438094   -2.204337
 H    7.278801   -0.244646   -2.242341
 H    8.215877    0.338860   -0.868169
 H   -5.946262    0.416999    2.581347
 H   -5.483335    1.858281    1.669165
 H   -7.112217    1.716772    2.365227
