60 
3mj5_ligand_xtb.xyz
 C    3.190390   -0.549650    1.568727
 C    2.527414   -0.307479    2.914500
 C    4.023959    0.595006    1.027938
 N    2.180634   -0.902757    0.498789
 C    1.123739    0.117903    0.319594
 C    0.339506   -0.172150   -0.953183
 C   -0.294466   -1.570086   -0.902186
 C    0.800959   -2.604574   -0.605931
 C    1.563891   -2.237421    0.660397
 C   -1.382629   -1.633914    0.180131
 O   -1.134951   -1.383028    1.348745
 N   -2.588528   -2.013136   -0.251626
 C   -3.756727   -2.072250    0.614820
 C   -4.769139   -1.034205    0.206719
 C   -4.473089    0.314613    0.440135
 C   -5.397282    1.242519    0.034812
 C   -6.591690    0.864818   -0.588692
 C   -6.888797   -0.454441   -0.825968
 C   -5.948531   -1.399813   -0.419740
 O   -5.351821    2.602944    0.140441
 C   -6.569794    3.075612   -0.402856
 O   -7.319425    1.978803   -0.881385
 C    4.869348    0.352375   -0.096058
 C    5.586851    1.446572   -0.655014
 C    5.480841    2.723716   -0.066041
 C    4.693460    2.919722    1.031203
 C    3.956644    1.854930    1.568075
 C    5.046012   -0.919354   -0.693349
 C    5.849372   -1.085567   -1.789238
 C    6.523007    0.004765   -2.355359
 C    6.401732    1.241566   -1.788595
 H    3.837138   -1.428457    1.673770
 H    3.300698   -0.099875    3.649403
 H    1.989798   -1.192813    3.242747
 H    1.836504    0.528835    2.897878
 H    2.725122   -0.921494   -0.376318
 H    1.592401    1.102491    0.270811
 H    0.445298    0.064399    1.173088
 H   -0.437050    0.584971   -1.066160
 H    0.997410   -0.105935   -1.824728
 H   -0.739887   -1.792839   -1.874356
 H    1.486897   -2.656978   -1.456669
 H    0.357284   -3.592098   -0.475968
 H    0.868721   -2.198528    1.501350
 H    2.343840   -2.973772    0.863099
 H   -2.759757   -2.159457   -1.234430
 H   -4.188548   -3.074386    0.558323
 H   -3.398895   -1.888825    1.630409
 H   -3.561181    0.609238    0.932618
 H   -7.809732   -0.741707   -1.303258
 H   -6.158278   -2.444679   -0.589975
 H   -7.141867    3.602484    0.376963
 H   -6.358865    3.768859   -1.231048
 H    6.038842    3.540173   -0.497775
 H    4.620592    3.892612    1.490531
 H    3.334871    2.051376    2.425800
 H    4.596408   -1.804036   -0.262123
 H    5.975066   -2.068364   -2.217992
 H    7.147422   -0.146122   -3.221551
 H    6.934700    2.087149   -2.196036
