40 
3mks_ligand_ani.xyz
 C   -4.000704    0.782053   -2.217013
 C   -4.049454   -0.355686   -1.460878
 C   -2.935049   -0.765408   -0.680198
 C   -1.761931    0.029010   -0.679707
 C   -1.733435    1.194038   -1.498800
 C   -2.827118    1.565794   -2.239262
 C   -2.982494   -1.963822    0.079994
 C   -1.916473   -2.340637    0.844391
 C   -0.761804   -1.535130    0.915753
 C   -0.632095   -0.393792    0.121842
 C    0.620549    0.370109    0.092279
 C    1.763789   -0.143594   -0.637234
 C    2.903783    0.680756   -0.789170
 C    2.937286    1.964619   -0.179399
 C    1.887626    2.399878    0.574428
 C    0.741069    1.592399    0.751482
 C    1.778488   -1.438500   -1.229221
 C    2.864752   -1.875752   -1.946553
 C    3.990537   -1.041187   -2.109391
 C    4.007984    0.204043   -1.545585
 C   -0.283707    2.035057    1.762909
 O   -0.658681    3.319414    1.708068
 O   -0.739272    1.305877    2.613968
 C    0.315694   -1.981410    1.882973
 O    0.674278   -1.082151    2.798665
 O    0.792048   -3.088586    1.845144
 H   -4.860262    1.084939   -2.810161
 H   -4.946019   -0.972042   -1.445082
 H   -0.819244    1.780933   -1.540971
 H   -2.793306    2.461404   -2.853660
 H   -3.882475   -2.572679    0.045213
 H   -1.936279   -3.256781    1.425955
 H    3.817608    2.587468   -0.317758
 H    1.940672    3.360638    1.082518
 H    0.907755   -2.078841   -1.105718
 H    2.862286   -2.864873   -2.396509
 H    4.843500   -1.395832   -2.683317
 H    4.873380    0.853176   -1.662416
 H   -0.253738    3.741146    0.935632
 H    0.135368   -0.262121    2.717667
