35 
3mmf_ligand_xtb.xyz
 C    3.629826   -0.414600   -0.134960
 N    5.583330   -0.497298    1.677293
 O    5.824396    1.032364   -0.323890
 S    5.396996   -0.294411    0.011436
 C    2.852779    0.717898    0.004827
 O    6.012433   -1.418664   -0.632298
 C    1.475522    0.623422   -0.070400
 C    0.879503   -0.620006   -0.286950
 C    1.682553   -1.756249   -0.432693
 C    3.056695   -1.651682   -0.355150
 N   -0.493559   -0.797442   -0.368686
 C   -1.512004    0.085599   -0.269111
 N   -2.725325   -0.453644   -0.388829
 C   -3.744302    0.398201   -0.300203
 N   -4.995096   -0.047194   -0.445096
 N   -3.606943    1.723789   -0.092579
 C   -2.366145    2.124816    0.014365
Cl   -2.119405    3.787434    0.286773
 N   -1.279043    1.385082   -0.060047
 C   -5.344253   -1.438811   -0.533202
 C   -5.670436   -2.042403    0.839388
 O   -6.061713   -3.378677    0.633291
 H    5.941849    0.336089    2.114518
 H    6.156351   -1.297456    1.890592
 H    3.339542    1.667250    0.159068
 H    0.851217    1.494290    0.033697
 H    1.221236   -2.717375   -0.608135
 H    3.698551   -2.509423   -0.474560
 H   -0.813862   -1.743985   -0.532605
 H   -5.720107    0.637904   -0.296033
 H   -4.497435   -1.975205   -0.962353
 H   -6.212265   -1.557274   -1.184923
 H   -6.480482   -1.466772    1.312489
 H   -4.780148   -1.983364    1.480674
 H   -6.249401   -3.790822    1.482789
