35 
3mmf_ligand_ani.xyz
 C    3.642588   -0.339270   -0.072140
 N    5.806716   -1.107963    1.330716
 O    5.745406    1.176558    0.216877
 S    5.408305   -0.217161   -0.028692
 C    2.877890    0.821210   -0.101811
 O    5.962015   -0.947702   -1.157639
 C    1.493098    0.752245   -0.171870
 C    0.871885   -0.500994   -0.211858
 C    1.655680   -1.665082   -0.185175
 C    3.036728   -1.590989   -0.114561
 N   -0.517790   -0.686235   -0.295638
 C   -1.578517    0.166965   -0.207090
 N   -2.763315   -0.446300   -0.345174
 C   -3.821047    0.362247   -0.275855
 N   -5.048740   -0.165345   -0.437919
 N   -3.773947    1.698651   -0.063116
 C   -2.549772    2.146425    0.063487
Cl   -2.396666    3.853647    0.344004
 N   -1.406918    1.479469    0.002818
 C   -5.297109   -1.587885   -0.570072
 C   -5.207381   -2.345704    0.749567
 O   -5.607877   -3.675741    0.481039
 H    6.089966   -0.496185    2.089490
 H    6.539153   -1.768505    1.088595
 H    3.380028    1.783102   -0.068959
 H    0.898910    1.656279   -0.195978
 H    1.168342   -2.635901   -0.215147
 H    3.640153   -2.494801   -0.096492
 H   -0.824773   -1.638514   -0.429221
 H   -5.815157    0.475181   -0.302851
 H   -4.571625   -2.004395   -1.274338
 H   -6.297846   -1.722024   -0.989975
 H   -5.867788   -1.872797    1.493264
 H   -4.173811   -2.294537    1.125463
 H   -5.567761   -4.170185    1.307398
