35 
3mmf_ligand_dft.xyz
 C    3.635273   -0.375621   -0.103924
 N    5.745360   -0.745139    1.546914
 O    5.764025    1.134224   -0.185916
 S    5.403916   -0.266970   -0.026904
 C    2.864642    0.775217   -0.003590
 O    5.968360   -1.306484   -0.873882
 C    1.477704    0.699137   -0.057326
 C    0.862735   -0.547244   -0.216308
 C    1.654676   -1.701676   -0.326600
 C    3.033556   -1.620391   -0.272220
 N   -0.522716   -0.742439   -0.284265
 C   -1.571262    0.123351   -0.204314
 N   -2.772885   -0.457491   -0.313622
 C   -3.802428    0.389860   -0.246930
 N   -5.050571   -0.094461   -0.366066
 N   -3.703052    1.732021   -0.069026
 C   -2.463726    2.144736    0.030876
Cl   -2.242285    3.855521    0.269931
 N   -1.348277    1.432371   -0.025197
 C   -5.371348   -1.496019   -0.539684
 C   -5.382898   -2.257444    0.781755
 O   -5.743624   -3.587044    0.476472
 H    5.920751    0.061144    2.139094
 H    6.540707   -1.376961    1.534979
 H    3.350091    1.739292    0.103250
 H    0.875481    1.592835    0.017992
 H    1.181047   -2.670659   -0.461814
 H    3.642230   -2.512654   -0.371217
 H   -0.831174   -1.695064   -0.421546
 H   -5.786943    0.589129   -0.279394
 H   -4.639626   -1.952138   -1.210451
 H   -6.354910   -1.568829   -1.010861
 H   -6.101391   -1.784968    1.469841
 H   -4.383950   -2.194498    1.236724
 H   -5.722772   -4.101988    1.290074
