37 
3mna_ligand_ani.xyz
 C    4.054865   -0.493255   -0.128035
 N    6.025487   -0.888721    1.686295
 O    6.331945    0.784329   -0.168894
 S    5.813914   -0.554992    0.061314
 C    3.392478    0.723032   -0.004629
 O    6.298160   -1.712703   -0.673769
 C    2.011371    0.789793   -0.136730
 C    1.292235   -0.380992   -0.400082
 C    1.973302   -1.600372   -0.531437
 C    3.350604   -1.662239   -0.399434
 N   -0.102381   -0.425452   -0.564122
 C   -1.088313    0.505834   -0.420732
 N   -2.304233    0.040633   -0.734065
 C   -3.290355    0.923127   -0.600710
 N   -4.543007    0.544384   -0.948067
 N   -3.151343    2.196522   -0.170033
 C   -1.907168    2.504769    0.098534
Cl   -1.634037    4.126748    0.654482
 N   -0.823891    1.750475    0.000225
 C   -4.908041   -0.842923   -1.091157
 C   -5.223084   -1.538813    0.227038
 C   -5.771259   -3.607034    1.181960
 O   -5.465799   -2.841496    0.012396
 O   -5.273904   -1.010103    1.309664
 H    6.512419   -0.122956    2.140027
 H    6.509515   -1.773266    1.799844
 H    3.966042    1.625052    0.188315
 H    1.494335    1.735623   -0.040310
 H    1.410467   -2.506794   -0.738769
 H    3.879709   -2.603186   -0.517404
 H   -0.480776   -1.314626   -0.856947
 H   -5.262471    1.183081   -0.642571
 H   -4.088045   -1.369291   -1.586289
 H   -5.788696   -0.917201   -1.738225
 H   -4.943506   -3.568864    1.894287
 H   -6.673715   -3.226457    1.666287
 H   -5.926723   -4.626639    0.830229
