14 
3moe_ligand_dft.xyz
 C    2.207488   -0.222942    0.058374
 O    3.288017    0.105333    0.458862
 O    1.933524   -1.410333   -0.476671
 C    0.997657    0.711473    0.171728
 C   -0.126755    0.276232    1.107785
 O    0.894638    1.711660   -0.502298
 S   -1.488685   -0.231563    0.039126
 O   -2.608598   -0.705716    0.803330
 O   -0.861221   -1.066715   -0.982158
 O   -1.920736    1.170920   -0.595396
 H    1.006938   -1.464380   -0.792434
 H   -0.465125    1.104890    1.733592
 H    0.133953   -0.586163    1.726075
 H   -1.132146    1.620874   -0.965917
