99 
3mp1_ligand_ani.xyz
 N    3.331883    0.655496    0.685321
 C    3.985265    0.172429   -0.559627
 C    2.969731   -0.731701   -1.260010
 O    2.049582   -0.218364   -1.885580
 C    5.369683   -0.402898   -0.304489
 N    3.086231   -2.075930   -1.123588
 C    2.019451   -2.931829   -1.593902
 C    0.684117   -2.558620   -0.918740
 O    0.602141   -2.146173    0.240252
 C    2.385625   -4.419804   -1.436535
 C    1.973705   -5.152672   -0.149352
 C    2.342774   -4.517469    1.193564
 N    3.703617   -3.978575    1.239048
 C    3.988339   -2.875165    2.044763
 N    5.294954   -2.838305    2.504306
 N    3.222775   -1.870097    2.277786
 N   -0.398758   -2.708465   -1.709686
 C   -1.789452   -2.566329   -1.289176
 C   -2.222624   -1.098956   -1.131172
 O   -3.219893   -0.685811   -1.712100
 C   -2.143135   -3.419593   -0.055098
 O   -1.601440   -4.711419   -0.309268
 C   -3.651345   -3.485571    0.151717
 N   -1.477667   -0.328646   -0.304583
 C   -1.676944    1.097610   -0.184924
 C   -2.638932    1.491660    0.953607
 C   -4.042997    0.932466    0.742122
 C   -5.088645    1.516260    1.681743
 C   -6.407271    0.748127    1.722482
 N   -7.158804    0.562506    0.408794
 C   -0.313644    1.740962    0.069695
 O    0.569736    1.145035    0.686727
 C   -6.638847   -0.581765   -0.400571
 C   -8.565433    0.225979    0.758070
 C   -7.186306    1.807845   -0.407745
 N   -0.165642    3.007187   -0.367816
 C    1.042397    3.778460   -0.162800
 C    0.631135    5.235805   -0.088415
 O   -0.421528    5.668030   -0.498176
 C    2.067841    3.524692   -1.288201
 C    3.330341    4.382636   -1.239729
 C    4.078639    4.301228    0.080709
 O    4.019881    3.331560    0.829433
 N    4.874275    5.362592    0.365375
 O    1.571559    6.011654    0.473020
 H    3.444692   -0.044776    1.454083
 H    2.314525    0.779862    0.521947
 H    3.733393    1.571025    0.946814
 H    4.072226    1.037208   -1.229124
 H    5.366227   -1.129870    0.513559
 H    5.755978   -0.887859   -1.205466
 H    6.064943    0.401238   -0.038996
 H    3.721065   -2.469021   -0.439119
 H    1.893239   -2.726864   -2.662667
 H    3.469556   -4.499015   -1.584990
 H    1.930869   -4.966370   -2.272477
 H    2.410060   -6.157649   -0.204326
 H    0.882115   -5.287754   -0.148206
 H    2.192873   -5.265139    1.987708
 H    1.650052   -3.704674    1.394603
 H    4.417511   -4.695488    1.263606
 H    5.425755   -2.153883    3.237515
 H    5.737911   -3.723227    2.711504
 H    2.298936   -1.992639    1.866048
 H   -0.256237   -3.223361   -2.564434
 H   -2.391872   -2.938653   -2.118903
 H   -1.660065   -2.990343    0.831115
 H   -1.783734   -5.253339    0.468361
 H   -3.898957   -4.042108    1.062067
 H   -4.074942   -2.480071    0.245979
 H   -4.122911   -3.980552   -0.703957
 H   -0.640385   -0.712963    0.127571
 H   -2.097109    1.462878   -1.130574
 H   -2.224372    1.151879    1.910621
 H   -2.677613    2.589990    0.994693
 H   -4.019794   -0.157508    0.863134
 H   -4.324602    1.120905   -0.298693
 H   -5.273935    2.568812    1.432497
 H   -4.698598    1.513222    2.707817
 H   -6.240865   -0.260628    2.113562
 H   -7.101600    1.262774    2.391581
 H   -7.313371   -0.738919   -1.247843
 H   -5.640856   -0.389811   -0.783660
 H   -6.629952   -1.477932    0.227189
 H   -9.137902    0.078895   -0.160852
 H   -8.579287   -0.690777    1.353805
 H   -8.997609    1.047957    1.333834
 H   -7.824548    1.643066   -1.280229
 H   -7.596007    2.622859    0.194486
 H   -6.183307    2.066537   -0.742974
 H   -0.948405    3.507469   -0.768978
 H    1.497534    3.496898    0.789362
 H    2.334739    2.465198   -1.230720
 H    1.572470    3.670909   -2.254201
 H    4.019018    4.052554   -2.028764
 H    3.093524    5.427442   -1.455293
 H    5.285732    5.398670    1.286222
 H    4.763741    6.231686   -0.130830
 H    1.218985    6.918101    0.467920
