99 
3mp1_ligand_dft.xyz
 N    3.326648    0.554283    0.957842
 C    3.936330    0.230673   -0.367702
 C    2.920089   -0.625108   -1.131637
 O    2.000758   -0.081478   -1.730750
 C    5.341451   -0.323712   -0.192593
 N    3.059668   -1.966934   -1.078993
 C    2.027375   -2.812948   -1.635951
 C    0.689578   -2.491719   -0.953283
 O    0.637186   -2.114300    0.220079
 C    2.410424   -4.308098   -1.535697
 C    1.942354   -5.129922   -0.324097
 C    2.277495   -4.625025    1.084288
 N    3.640967   -4.130864    1.249078
 C    3.934220   -2.969100    1.935504
 N    5.250468   -2.865383    2.340096
 N    3.147209   -1.957294    2.096512
 N   -0.404452   -2.662220   -1.712550
 C   -1.783556   -2.539145   -1.252081
 C   -2.228259   -1.076562   -1.071557
 O   -3.225828   -0.664448   -1.658053
 C   -2.085394   -3.407454   -0.016382
 O   -1.662858   -4.710513   -0.373973
 C   -3.573176   -3.373908    0.323246
 N   -1.489415   -0.321558   -0.226857
 C   -1.645423    1.116538   -0.158257
 C   -2.622065    1.580603    0.943719
 C   -4.002155    0.958976    0.738986
 C   -5.102318    1.568096    1.602710
 C   -6.408468    0.779214    1.674627
 N   -7.165281    0.525767    0.371506
 C   -0.267472    1.731448    0.092802
 O    0.574587    1.130485    0.758265
 C   -6.582110   -0.624723   -0.402377
 C   -8.576997    0.165436    0.735034
 C   -7.192981    1.750580   -0.487713
 N   -0.098140    2.964365   -0.407238
 C    1.072961    3.787040   -0.179322
 C    0.569438    5.217282   -0.055300
 O   -0.520207    5.578902   -0.430377
 C    2.080222    3.616594   -1.337847
 C    3.367905    4.436412   -1.238846
 C    4.167363    4.187228    0.030281
 O    4.060626    3.144624    0.677564
 N    5.028371    5.156555    0.384534
 O    1.477890    6.029560    0.492255
 H    3.366826   -0.291412    1.596610
 H    2.331531    0.834291    0.846509
 H    3.807530    1.374759    1.343554
 H    3.981024    1.176881   -0.907513
 H    5.377139   -1.214200    0.442622
 H    5.766565   -0.571878   -1.168547
 H    5.981505    0.437458    0.264097
 H    3.746783   -2.395320   -0.475624
 H    1.932819   -2.550378   -2.695705
 H    3.500039   -4.366897   -1.634926
 H    2.008641   -4.808929   -2.421830
 H    2.359325   -6.134843   -0.460377
 H    0.852054   -5.245121   -0.365917
 H    2.094870   -5.436745    1.799128
 H    1.594742   -3.820965    1.346756
 H    4.353257   -4.847947    1.279851
 H    5.401483   -2.106294    2.990348
 H    5.725355   -3.713742    2.617353
 H    2.239213   -2.099434    1.656791
 H   -0.276035   -2.951380   -2.670604
 H   -2.405060   -2.917446   -2.065973
 H   -1.502943   -3.036321    0.834949
 H   -1.858713   -5.306935    0.358942
 H   -3.782141   -4.046229    1.162069
 H   -3.887431   -2.367788    0.620802
 H   -4.172748   -3.694372   -0.534714
 H   -0.640510   -0.718276    0.180324
 H   -2.033021    1.453671   -1.127020
 H   -2.216417    1.311007    1.925917
 H   -2.689528    2.675842    0.907870
 H   -3.930638   -0.116536    0.938663
 H   -4.246519    1.055525   -0.321986
 H   -5.298920    2.604292    1.304421
 H   -4.766909    1.623277    2.646246
 H   -6.242137   -0.210697    2.108856
 H   -7.111667    1.315162    2.316934
 H   -7.187459   -0.776127   -1.297330
 H   -5.552602   -0.421262   -0.692658
 H   -6.624107   -1.517841    0.222987
 H   -9.117046   -0.114013   -0.170384
 H   -8.559672   -0.674359    1.431107
 H   -9.057468    1.025960    1.202164
 H   -7.858409    1.567831   -1.332505
 H   -7.565182    2.590291    0.101039
 H   -6.189095    1.960595   -0.853112
 H   -0.857431    3.423378   -0.895318
 H    1.544078    3.484761    0.759576
 H    2.299349    2.546555   -1.397026
 H    1.574844    3.877274   -2.274294
 H    4.012827    4.163799   -2.083931
 H    3.162065    5.505606   -1.343159
 H    5.604970    5.025885    1.203121
 H    5.106171    6.024761   -0.121346
 H    1.094265    6.922980    0.521313
