39 
3mpt_ligand_xtb.xyz
 C    4.898794   -1.540334   -1.556871
 C    4.918155   -0.669299   -0.339361
 C    6.097225   -0.076456    0.091437
 C    6.125515    0.735456    1.211818
 C    4.961941    0.973523    1.922432
 C    3.774398    0.406246    1.497753
 C    3.742835   -0.411482    0.373056
 C    2.443698   -1.030887   -0.027383
 O    2.297440   -2.230755   -0.153105
 C    1.352807   -0.080984   -0.250340
 C    1.430467    1.302613   -0.343284
 N    0.202014    1.773076   -0.594283
 C   -0.694847    0.741427   -0.672260
 C   -0.002215   -0.429058   -0.466538
 C   -2.098491    1.074316   -0.947056
 O   -2.454080    2.233962   -1.090420
 N   -2.936439    0.018618   -1.058080
 C   -4.362013    0.188441   -1.260976
 C   -5.141132   -0.161311   -0.035900
 C   -5.425541    0.554158    1.089944
 C   -6.166820   -0.310360    1.931848
 C   -6.273665   -1.485814    1.257021
 O   -5.653694   -1.408545    0.067899
 H    4.274236   -1.095975   -2.332031
 H    5.902627   -1.675394   -1.951627
 H    4.477275   -2.513526   -1.314921
 H    7.009798   -0.259609   -0.457844
 H    7.056655    1.179679    1.531578
 H    4.977923    1.599717    2.802025
 H    2.862838    0.578127    2.052251
 H    2.284348    1.945571   -0.258160
 H   -0.376833   -1.432835   -0.456208
 H   -2.594645   -0.907169   -0.858661
 H   -4.688100   -0.443581   -2.092302
 H   -4.509235    1.242154   -1.510752
 H   -5.144352    1.568082    1.286373
 H   -6.563564   -0.083834    2.899892
 H   -6.748333   -2.414771    1.503039
 H   -0.083657    2.733048   -0.723142
