45 
3ms2_ligand_ani.xyz
 C   -0.534541   -1.155082    0.216576
 N   -1.919767   -1.537843    0.278119
 S   -4.501810   -1.353706   -0.380909
 C    0.051558   -0.792737    1.593232
 N   -2.509521    0.518233   -0.502094
 O   -0.516534    0.356781    2.180938
 C    1.533005   -0.494741    1.439939
 N   -2.741235    1.261261    0.460727
 O    2.141703   -0.269831    2.695151
 C    2.264805   -1.654458    0.781748
 O    3.588541   -1.295045    0.451912
 C    1.547962   -2.046089   -0.505589
 O    0.166645   -2.307370   -0.240758
 C    2.093725   -3.313148   -1.154803
 O    1.352384   -3.628132   -2.309462
 C   -2.964422   -0.814312   -0.190606
 C   -2.308707    2.645831    0.157790
 C   -0.859768    2.705471   -0.253898
 C    0.132137    3.003380    0.680781
 C    1.470153    3.059741    0.306386
 C    1.862864    2.808618   -1.011313
 C    0.865572    2.484138   -1.934525
 C   -0.472884    2.421102   -1.563345
 C    3.312013    2.883803   -1.423947
 H   -0.406554   -0.332796   -0.498586
 H   -2.079420   -2.535528    0.331924
 H   -0.069832   -1.669932    2.247895
 H   -1.430541    0.165404    2.429990
 H    1.637048    0.390502    0.791072
 H    1.612119    0.414265    3.127969
 H    2.243401   -2.513211    1.475050
 H    3.997574   -0.982503    1.271010
 H    1.621482   -1.215012   -1.228508
 H    3.132834   -3.157418   -1.455081
 H    2.069992   -4.137090   -0.420904
 H    0.423579   -3.610503   -2.035915
 H   -2.485863    3.232408    1.068469
 H   -2.952458    3.053937   -0.634569
 H   -0.145072    3.170339    1.719434
 H    2.227805    3.277861    1.057814
 H    1.145453    2.266764   -2.963300
 H   -1.223234    2.138073   -2.298940
 H    3.554785    3.858545   -1.863870
 H    3.975471    2.734412   -0.565921
 H    3.551314    2.118889   -2.170559
