20 
3ms9_ligand_dft.xyz
Cl   -3.890804   -0.398396   -0.000495
 C   -2.148893   -0.252713   -0.000025
 C   -1.589455    1.006632    0.000189
 C   -0.186259    1.161053    0.000615
 C    0.618451   -0.009977    0.000472
 C   -0.000439   -1.268693    0.000377
 C   -1.373218   -1.415003    0.000176
 C    2.087578    0.099188   -0.000270
 O    2.720038    1.144045   -0.001820
 O    2.702629   -1.094191    0.000828
 C    4.127249   -1.050574   -0.000170
 N    0.348279    2.407017    0.002054
 H   -2.225879    1.885474    0.000266
 H    0.629501   -2.150415    0.000327
 H   -1.839604   -2.392361    0.000064
 H    4.496527   -0.535655   -0.890387
 H    4.497724   -0.533845    0.888508
 H    4.450180   -2.091283    0.000684
 H   -0.247843    3.216272   -0.003719
 H    1.353686    2.507125   -0.001959
