27 
3msj_ligand_ani.xyz
 C    2.992216   -0.434575    0.038171
 C    2.155473   -1.527703   -0.238327
 C    2.506728    0.854951    0.173799
 C    0.788167   -1.342504   -0.391104
 C    1.134571    1.047148    0.022506
 C    0.299294   -0.047558   -0.262432
 N    0.392434    2.215996    0.116637
 C   -0.832391    1.833420   -0.115406
 N   -0.977892    0.489022   -0.359914
 N   -1.946855    2.661301   -0.069378
 C   -2.231315   -0.209900   -0.559172
 C   -3.073651   -0.287913    0.713592
 C   -4.438035   -0.898174    0.458114
 O   -4.250463   -2.208391   -0.046443
Cl    4.702122   -0.713802    0.218616
 H    2.587797   -2.518426   -0.331962
 H    3.166514    1.688106    0.390537
 H    0.129590   -2.182159   -0.599949
 H   -1.663433    3.628121    0.030849
 H   -2.575968    2.545923   -0.853872
 H   -2.001002   -1.212951   -0.920846
 H   -2.793562    0.288182   -1.358627
 H   -3.201489    0.720325    1.123012
 H   -2.539813   -0.882149    1.463516
 H   -4.988360   -0.273079   -0.265728
 H   -5.018310   -0.911824    1.393668
 H   -5.114480   -2.575708   -0.265376
