27 
3msj_ligand_xtb.xyz
 C    2.882362   -0.462831    0.029533
 C    2.006951   -1.499479   -0.288063
 C    2.469071    0.844113    0.198788
 C    0.655834   -1.253413   -0.452345
 C    1.114304    1.098520    0.036585
 C    0.222262    0.048389   -0.289107
 N    0.420206    2.276683    0.139918
 C   -0.824172    1.966194   -0.101630
 N   -1.021106    0.638247   -0.390888
 N   -1.861748    2.852670   -0.012516
 C   -2.272386   -0.036777   -0.591787
 C   -2.952001   -0.371511    0.739542
 C   -4.236270   -1.162690    0.516330
 O   -3.907625   -2.380908   -0.116024
Cl    4.563208   -0.839839    0.222447
 H    2.392828   -2.499806   -0.402907
 H    3.158898    1.633172    0.446143
 H   -0.024377   -2.056089   -0.692954
 H   -1.547202    3.809820    0.026574
 H   -2.640761    2.696376   -0.633520
 H   -2.082447   -0.963884   -1.136242
 H   -2.932695    0.589442   -1.202136
 H   -3.178067    0.545888    1.284559
 H   -2.267811   -0.974519    1.338025
 H   -4.929142   -0.582029   -0.111725
 H   -4.721244   -1.347658    1.484437
 H   -4.698701   -2.922480   -0.196321
