49 
3msk_ligand_ani.xyz
 C   -0.221251   -1.704936   -1.418949
 C   -0.776030   -1.657230   -0.145158
 C   -0.014075   -1.880867    1.014228
 C    1.354856   -2.124864    0.907727
 C    1.901136   -2.186003   -0.364482
 C    1.133619   -1.985616   -1.520929
Cl    3.613131   -2.475916   -0.526028
 N   -2.070236   -1.423538    0.304928
 C   -2.009174   -1.528095    1.672082
 N   -0.817178   -1.800135    2.139382
 N   -3.157907   -1.423592    2.440889
 C   -3.214546   -1.007875   -0.484446
 C   -3.591555    0.475893   -0.333131
 C   -2.404291    1.440520   -0.259269
 C   -1.496936    1.335888   -1.480236
 O   -1.981581    1.008159   -2.557258
 N   -0.165425    1.644892   -1.372745
 C    0.592893    1.636716   -2.620689
 C    0.517030    1.789287   -0.082129
 C    2.008638    1.446434   -0.163725
 C    2.661287    1.497326    1.217430
 C    2.473494    2.876581    1.856195
 C    0.993062    3.268913    1.904888
 C    0.343840    3.190546    0.520450
 H   -0.812612   -1.496208   -2.304612
 H    1.969374   -2.256952    1.790104
 H    1.621090   -2.048432   -2.490339
 H   -3.726145   -0.615035    2.221366
 H   -2.919712   -1.439149    3.424947
 H   -4.067061   -1.642260   -0.221298
 H   -2.961633   -1.209922   -1.525734
 H   -4.208345    0.612666    0.563764
 H   -4.224149    0.742865   -1.185040
 H   -1.850971    1.285353    0.667610
 H   -2.785731    2.470308   -0.223234
 H    1.055239    0.658560   -2.817334
 H   -0.098528    1.849492   -3.434575
 H    1.370525    2.404283   -2.607928
 H    0.074484    1.058777    0.611683
 H    2.512379    2.172411   -0.814149
 H    2.141702    0.455699   -0.610752
 H    3.727577    1.252512    1.139504
 H    2.211124    0.723953    1.858778
 H    3.018804    3.620090    1.256775
 H    2.912402    2.900602    2.861100
 H    0.879827    4.278686    2.318283
 H    0.460820    2.591957    2.590530
 H   -0.718100    3.452665    0.578214
 H    0.810306    3.923276   -0.153439
