42 
3mss_ligand_ani.xyz
 N    2.298054    1.297026    0.755898
 C    3.233538    0.149111    0.533722
 C    2.689972   -0.811175   -0.545439
 C    1.231420   -1.134134   -0.337152
 C    0.824579   -1.920761    0.744826
 C   -0.511325   -2.216381    0.952742
 C   -1.486941   -1.717192    0.084142
 C   -1.105911   -0.915612   -0.990477
 C    0.246387   -0.638704   -1.188850
 O   -2.771973   -2.078518    0.378798
 C   -3.830648   -1.560985   -0.411495
 C   -4.122681   -0.094631   -0.161276
 C   -4.622585    0.709730   -1.184228
 C   -4.900131    2.055366   -0.957877
 C   -4.680984    2.607802    0.300233
 C   -4.186892    1.809711    1.328254
 C   -3.909493    0.465671    1.099846
 C    4.553773    0.811105    0.090926
 O    4.555956    2.010831   -0.158738
 N    5.643409    0.019978   -0.041884
 C    6.954197    0.547977   -0.364636
 H    2.131215    1.475906    1.759303
 H    1.404307    1.121688    0.275889
 H    2.821109    2.099064    0.330954
 H    3.371343   -0.390969    1.471589
 H    3.279953   -1.733673   -0.520273
 H    2.836322   -0.366507   -1.537403
 H    1.573058   -2.301620    1.438123
 H   -0.830923   -2.836698    1.785306
 H   -1.839264   -0.494295   -1.669198
 H    0.542091   -0.022864   -2.037167
 H   -4.689824   -2.180782   -0.134213
 H   -3.635704   -1.739614   -1.478279
 H   -4.797200    0.280239   -2.169518
 H   -5.285827    2.672501   -1.765762
 H   -4.896117    3.658450    0.479657
 H   -4.016104    2.236462    2.314305
 H   -3.519388   -0.160654    1.898378
 H    5.563080   -0.952744    0.208975
 H    7.569851    0.694290    0.531933
 H    6.824525    1.514623   -0.854304
 H    7.473730   -0.131721   -1.046448
