42 
3mt8_ligand_dft.xyz
 C   -1.894340    0.136456    0.223068
 N   -2.413113    1.432355    0.578902
 S   -3.159572    3.916464    0.184393
Cl    6.246738   -1.220009   -0.280729
 C   -1.379681   -0.637073    1.445172
 N   -0.701049    2.998032   -0.053304
 O   -0.329732    0.005099    2.127467
 C   -0.923609   -2.014730    0.979453
 N    0.268034    2.032147    0.193959
 O   -0.498393   -2.815326    2.058965
 C   -2.058937   -2.741744    0.275535
 O   -1.626700   -3.961782   -0.277664
 C   -2.586932   -1.864139   -0.858381
 O   -2.965497   -0.581710   -0.349416
 C   -3.827996   -2.421134   -1.533739
 O   -4.266361   -1.577446   -2.570547
 C   -1.909053    2.652676    0.237378
 C    1.346013    2.224033   -0.471998
 C    2.525056    1.359432   -0.380744
 C    2.569013    0.204845    0.412922
 C    3.708270   -0.585068    0.445058
 C    4.814878   -0.223556   -0.319917
 C    4.796711    0.915817   -1.115514
 C    3.649512    1.698553   -1.140718
 H   -1.090573    0.271853   -0.509253
 H   -3.329641    1.411116    1.004972
 H   -2.293415    4.933897    0.292902
 H   -2.224475   -0.760862    2.138462
 H   -0.065374    0.794603    1.608358
 H   -0.100259   -1.880966    0.255098
 H    0.116624   -2.274842    2.574292
 H   -2.868164   -2.903646    1.006995
 H   -1.145907   -4.423216    0.422820
 H   -1.796758   -1.735219   -1.614126
 H   -3.592618   -3.391830   -1.974159
 H   -4.609041   -2.568813   -0.770145
 H   -4.340985   -0.694636   -2.184690
 H    1.395393    3.070008   -1.162826
 H    1.709894   -0.079722    1.010915
 H    3.741836   -1.478987    1.058168
 H    5.665951    1.184023   -1.705473
 H    3.629047    2.589349   -1.762985
