42 
3mt8_ligand_ani.xyz
 C   -1.857721    0.171345    0.156800
 N   -2.363239    1.482154    0.491013
 S   -3.029393    4.004761    0.171091
Cl    6.172309   -1.411534   -0.366858
 C   -1.365617   -0.593546    1.396897
 N   -0.593681    3.050528    0.005826
 O   -0.234357   -0.028419    2.018071
 C   -1.011836   -2.022274    1.012005
 N    0.337415    2.027477    0.215310
 O   -0.682009   -2.790262    2.149485
 C   -2.177557   -2.706060    0.317956
 O   -1.789914   -3.957592   -0.203134
 C   -2.661866   -1.837877   -0.837499
 O   -2.983733   -0.527223   -0.363749
 C   -3.920889   -2.366652   -1.515573
 O   -4.313514   -1.514734   -2.565817
 C   -1.815209    2.706592    0.225205
 C    1.471627    2.288071   -0.322749
 C    2.606725    1.367677   -0.312298
 C    2.521791    0.097904    0.266803
 C    3.615806   -0.759282    0.249448
 C    4.800386   -0.339782   -0.345095
 C    4.910129    0.921143   -0.921783
 C    3.808666    1.766159   -0.901656
 H   -1.078656    0.238217   -0.609789
 H   -3.372793    1.473377    0.533739
 H   -2.158305    4.974444   -0.133159
 H   -2.200077   -0.614910    2.114546
 H   -0.042931    0.825006    1.579997
 H   -0.157433   -1.997429    0.305566
 H   -0.034950   -2.272322    2.649667
 H   -2.998190   -2.812254    1.048736
 H   -1.432482   -4.464704    0.538984
 H   -1.860816   -1.764164   -1.593086
 H   -3.720574   -3.351779   -1.943904
 H   -4.721195   -2.477627   -0.764010
 H   -4.373806   -0.629294   -2.180327
 H    1.625341    3.244134   -0.827838
 H    1.598429   -0.222502    0.740924
 H    3.554930   -1.747640    0.694968
 H    5.845899    1.229928   -1.378359
 H    3.886780    2.753637   -1.352172
