42 
3mtb_ligand_xtb.xyz
 C   -1.263522    0.935365   -0.239851
 N   -2.680290    0.708275   -0.255889
 S   -4.829926   -0.882751   -0.228530
Cl    3.937632   -1.919390   -0.675261
 C   -0.619979    0.755634   -1.633492
 N   -2.511952   -1.510539    0.458781
 O   -0.893176   -0.476863   -2.232967
 C    0.893777    0.966081   -1.462173
 N   -1.611737   -2.172581   -0.103614
 O   -0.168679    3.974206    2.307948
 C    1.171452    2.329864   -0.815689
 O    2.527386    2.460695   -0.490265
 C    0.352072    2.473351    0.472916
 O   -1.028807    2.230481    0.233487
 C    0.464702    3.881472    1.064167
 O    1.558152    0.918632   -2.698897
 C   -3.226612   -0.507611   -0.063403
 C   -0.924178   -3.123927    0.731632
 C    0.381573   -2.425349    1.048257
 C    1.456330   -2.527720    0.175759
 C    2.608558   -1.795333    0.420513
 C    2.697803   -0.951758    1.517932
 C    1.619539   -0.853118    2.380798
 C    0.463940   -1.579094    2.147781
 H   -0.801648    0.200481    0.446694
 H   -3.278074    1.470151   -0.540755
 H   -1.013464    1.524563   -2.310442
 H   -0.945965   -1.191998   -1.566544
 H    1.285192    0.174703   -0.798028
 H   -1.085346    3.695907    2.193129
 H    0.867297    3.113645   -1.528379
 H    3.033329    2.202365   -1.272055
 H    0.730012    1.742925    1.205693
 H    0.036576    4.596558    0.348601
 H    1.518878    4.111620    1.222227
 H    1.147709    0.217149   -3.222168
 H   -0.750845   -4.025331    0.142519
 H   -1.480240   -3.351330    1.645921
 H    1.398178   -3.167903   -0.690603
 H    3.592285   -0.374242    1.685746
 H    1.679734   -0.198323    3.236391
 H   -0.378437   -1.487727    2.817686
