109 
3muk_ligand_dft.xyz
 N   -8.974837   -1.287352    0.184781
 C   -8.062824   -2.162510   -0.616542
 C   -6.781035   -2.213064    0.238914
 O   -6.887923   -2.076918    1.452374
 C   -7.926026   -1.643516   -2.040642
 N   -5.623445   -2.427175   -0.412243
 C   -4.356315   -2.209148    0.256156
 C   -3.614403   -1.134566   -0.556075
 O   -4.100979   -0.699822   -1.597705
 C   -3.559675   -3.509342    0.458088
 O   -2.517235   -3.145044    1.351596
 C   -3.030388   -4.104043   -0.839005
 C   -0.261060    0.191342   -0.354904
 N   -2.473660   -0.678332   -0.007923
 O    0.135477   -0.504849    0.580972
 C   -1.752098    0.443200   -0.569463
 C   -2.147889    1.794663    0.072123
 C   -4.479718    1.553444    1.153808
 C   -5.920467    1.206268    0.791448
 C   -3.653306    2.106610   -0.023838
 N   -6.674933    2.382421    0.381793
 C  -10.002296    3.635785   -0.370655
 O   -8.401773    1.220055   -0.492125
 C   -8.503442    3.609113   -0.672088
 C   -7.859174    2.309931   -0.242364
 N    0.576533    0.816043   -1.207831
 C    2.019628    0.570533   -1.244764
 C    2.770956    1.381608   -0.175859
 O    3.653939    2.186358   -0.478908
 C    2.558666    0.845795   -2.638094
 N    2.403658    1.119920    1.094299
 C    3.198487    1.528508    2.240198
 C    4.488117    0.689502    2.264682
 O    5.606942    1.199459    2.161811
 C    2.387055    1.408704    3.527473
 N    4.316190   -0.641506    2.374726
 C    5.368370   -1.555199    1.961787
 C    5.549573   -1.407938    0.438005
 O    4.596312   -1.135461   -0.286561
 C    4.993849   -2.990639    2.322286
 N    6.802487   -1.609274   -0.003460
 C    7.217526   -1.419759   -1.379757
 C    8.718211   -1.674555   -1.402964
 O    9.391696   -1.823764   -0.410511
 C    6.881364   -0.015485   -1.925730
 C    7.276709    1.116375   -0.979274
 C    6.841944    2.477809   -1.525305
 C    6.911858    3.602141   -0.500301
 N    5.868109    3.424296    0.565143
 O    9.197454   -1.692254   -2.645697
 H   -9.959141   -1.425568   -0.048370
 H   -8.803278   -1.505530    1.177687
 H   -8.724694   -0.269377    0.023875
 H   -8.498000   -3.167221   -0.609793
 H   -7.421868   -0.674027   -2.065970
 H   -7.369178   -2.359934   -2.650121
 H   -8.909725   -1.532335   -2.505384
 H   -5.590370   -2.212372   -1.403592
 H   -4.568635   -1.810967    1.253857
 H   -4.241362   -4.220755    0.943788
 H   -1.920163   -3.894630    1.461305
 H   -2.329757   -3.417641   -1.325653
 H   -2.509313   -5.047274   -0.645107
 H   -3.849102   -4.323746   -1.531393
 H   -2.052315   -1.199137    0.757786
 H   -1.984496    0.479050   -1.638997
 H   -1.824433    1.798623    1.121097
 H   -1.575432    2.580082   -0.435123
 H   -4.466421    2.263378    1.991113
 H   -4.021659    0.638248    1.539295
 H   -5.924575    0.498313   -0.045084
 H   -6.417429    0.721803    1.640439
 H   -3.778150    3.193751   -0.076832
 H   -4.041574    1.707867   -0.967310
 H   -6.298104    3.294569    0.593925
 H  -10.445832    4.558240   -0.752184
 H  -10.502279    2.789735   -0.847465
 H  -10.190895    3.588332    0.706058
 H   -8.342342    3.696806   -1.753608
 H   -7.998719    4.462545   -0.206780
 H    0.183919    1.354291   -1.967738
 H    2.183361   -0.481731   -0.986737
 H    2.453681    1.901644   -2.905415
 H    2.029400    0.230141   -3.370411
 H    3.618494    0.591474   -2.678694
 H    1.672061    0.418553    1.218217
 H    3.506605    2.567272    2.099436
 H    2.998382    1.686844    4.389466
 H    1.520983    2.074113    3.484885
 H    2.027491    0.386608    3.685986
 H    3.374596   -0.993085    2.264317
 H    6.284751   -1.261000    2.479524
 H    4.081756   -3.293685    1.796462
 H    4.835629   -3.086475    3.399532
 H    5.793185   -3.675345    2.028460
 H    7.563548   -1.752613    0.651507
 H    6.737591   -2.164028   -2.025004
 H    7.366670    0.097879   -2.900572
 H    5.801017    0.018626   -2.084776
 H    8.360001    1.117944   -0.801172
 H    6.803155    0.934440   -0.008201
 H    7.475712    2.766265   -2.370937
 H    5.815573    2.416551   -1.908357
 H    6.717961    4.569561   -0.968099
 H    7.882195    3.645445    0.000268
 H    4.944508    3.170852    0.150724
 H    5.767442    4.269052    1.129601
 H    6.040154    2.630284    1.219315
 H   10.154239   -1.855474   -2.594076
