109 
3muk_ligand_xtb.xyz
 N    8.535947    1.440453    0.219872
 C    7.626354    2.338109   -0.528562
 C    6.344717    2.344873    0.338950
 O    6.434226    1.953298    1.491075
 C    7.403799    1.833160   -1.946296
 N    5.224779    2.789473   -0.231408
 C    3.937597    2.447448    0.333919
 C    3.455033    1.175893   -0.389715
 O    4.089582    0.721748   -1.325628
 C    2.923829    3.603970    0.250169
 O    1.836672    3.206010    1.060497
 C    2.488604    3.901778   -1.182967
 C    0.238497   -0.421479   -0.320598
 N    2.364907    0.608065    0.134083
 O   -0.263990    0.271809    0.552572
 C    1.753415   -0.566128   -0.446982
 C    2.196977   -1.866734    0.256892
 C    4.510273   -1.521341    1.290032
 C    5.921859   -1.110563    0.891096
 C    3.706573   -2.115994    0.126051
 N    6.741800   -2.247722    0.515872
 C    9.966380   -3.242101   -1.061685
 O    8.362316   -1.051137   -0.490768
 C    8.564314   -3.447636   -0.501563
 C    7.889756   -2.142196   -0.158120
 N   -0.479535   -1.133716   -1.198310
 C   -1.924656   -1.024632   -1.360649
 C   -2.695839   -1.806703   -0.285656
 O   -3.498553   -2.689361   -0.568121
 C   -2.314000   -1.481244   -2.757257
 N   -2.412115   -1.409710    0.954515
 C   -3.151760   -1.812026    2.139755
 C   -4.372354   -0.883700    2.188602
 O   -5.497138   -1.280991    1.885989
 C   -2.267428   -1.742313    3.376472
 N   -4.124217    0.386768    2.497333
 C   -5.081122    1.414413    2.125767
 C   -5.188891    1.362246    0.583602
 O   -4.250962    0.972646   -0.089622
 C   -4.606710    2.780950    2.593169
 N   -6.371000    1.752199    0.104225
 C   -6.779346    1.679454   -1.282657
 C   -8.264845    2.029069   -1.311286
 O   -8.900972    2.244927   -0.314533
 C   -6.521312    0.296282   -1.905079
 C   -7.083887   -0.843711   -1.057929
 C   -6.721920   -2.198004   -1.667730
 C   -6.971955   -3.361858   -0.717960
 N   -5.921312   -3.407582    0.327194
 O   -8.751558    2.064127   -2.538391
 H    9.522329    1.682038    0.136372
 H    8.202890    1.498691    1.208214
 H    8.400185    0.402955   -0.091938
 H    8.042750    3.351531   -0.540262
 H    6.742463    0.970151   -1.957049
 H    6.974942    2.608294   -2.574541
 H    8.353695    1.544883   -2.389110
 H    5.222173    2.942603   -1.230114
 H    4.093685    2.213161    1.392506
 H    3.401855    4.498651    0.679284
 H    1.164851    3.896671    1.050071
 H    2.048354    3.018750   -1.640855
 H    1.747973    4.698679   -1.187532
 H    3.334132    4.228004   -1.781384
 H    1.813938    1.117047    0.819447
 H    2.053705   -0.614024   -1.500784
 H    1.916558   -1.817672    1.310450
 H    1.648956   -2.693713   -0.197669
 H    4.555092   -2.232345    2.117386
 H    4.012871   -0.624558    1.658884
 H    5.871641   -0.434409    0.032017
 H    6.390928   -0.575648    1.725427
 H    3.882671   -3.190987    0.071684
 H    4.052989   -1.678824   -0.811034
 H    6.418443   -3.160539    0.795178
 H   10.404339   -4.198791   -1.328736
 H    9.931836   -2.614045   -1.947510
 H   10.604726   -2.761973   -0.324684
 H    7.942761   -3.962446   -1.239200
 H    8.601986   -4.072065    0.393673
 H   -0.004645   -1.704989   -1.881153
 H   -2.208062    0.026373   -1.207774
 H   -2.120205   -2.544815   -2.877659
 H   -1.758723   -0.924075   -3.506733
 H   -3.373899   -1.308797   -2.917205
 H   -1.765242   -0.623441    1.047845
 H   -3.506388   -2.837736    1.989259
 H   -2.860131   -1.920804    4.269363
 H   -1.493809   -2.503658    3.318407
 H   -1.782153   -0.773607    3.465535
 H   -3.171188    0.690448    2.630255
 H   -6.047807    1.159336    2.570813
 H   -3.658677    3.032320    2.121618
 H   -4.481919    2.788691    3.673199
 H   -5.336368    3.539846    2.325773
 H   -7.128822    2.010020    0.728943
 H   -6.243884    2.430532   -1.877920
 H   -6.959428    0.286844   -2.902956
 H   -5.441588    0.171589   -1.994901
 H   -8.168465   -0.751937   -0.979335
 H   -6.668375   -0.770250   -0.052373
 H   -7.303258   -2.353194   -2.576344
 H   -5.666275   -2.203046   -1.945960
 H   -6.943935   -4.301415   -1.272610
 H   -7.947938   -3.266081   -0.239439
 H   -4.965916   -3.313461   -0.109464
 H   -5.981766   -4.268377    0.871349
 H   -5.956828   -2.579155    0.986144
 H   -9.693500    2.304862   -2.543770
