33 
3muz_ligand_xtb.xyz
 C    0.234318   -0.214249   -1.034639
 C   -0.204406   -1.465782   -0.269068
 O    0.267823   -2.642194   -0.872256
 C   -1.736572   -1.511171   -0.248221
 O   -2.199876   -2.569832    0.552568
 C   -2.266406   -0.200229    0.353958
 O   -1.907581   -0.109851    1.707117
 C   -1.685378    0.994453   -0.413413
 O   -0.268129    0.952347   -0.460449
 C   -2.045333    2.327471    0.251562
 O   -1.607612    3.417143   -0.510023
 S    2.050602   -0.091411   -1.088799
 C    2.425144    0.366466    0.664768
 C    3.161903   -0.770036    1.353441
 C    3.227277    1.656181    0.670030
 H   -0.074411   -0.310925   -2.089020
 H    0.149536   -1.392360    0.772372
 H    1.195925   -2.504621   -1.112682
 H   -2.099541   -1.622638   -1.281834
 H   -1.730599   -3.365947    0.274366
 H   -3.363047   -0.184444    0.250893
 H   -2.125647   -0.964409    2.105487
 H   -2.078132    0.971202   -1.443417
 H   -1.603518    2.335486    1.255307
 H   -3.129600    2.414624    0.334758
 H   -0.664881    3.294479   -0.676272
 H    1.448943    0.536496    1.121169
 H    4.111790   -0.956691    0.857304
 H    3.356774   -0.505997    2.391219
 H    2.578900   -1.688240    1.335387
 H    4.181996    1.510950    0.169056
 H    3.413212    1.972231    1.694677
 H    2.682388    2.443854    0.155848
