56 
3mvl_ligand_ani.xyz
 N   -2.378671    0.882480    1.436854
 N   -1.940016    1.618186    2.465576
 C   -0.717985    2.062440    2.309266
 N    0.140113    1.858716    1.264981
 C   -0.306885    1.093164    0.294100
 C   -1.644948    0.597881    0.286225
 C   -2.476974   -0.123231   -0.580117
 C   -3.700365   -0.325044    0.118541
 C   -3.603164    0.319094    1.343725
 C   -4.849838   -1.086626   -0.434953
 O   -4.855358   -1.530554   -1.577999
 N   -5.912981   -1.256020    0.406156
 C   -7.082495   -2.030794    0.036992
 C   -8.387679   -1.307913    0.369919
 C   -8.549200    0.024661   -0.356162
 C   -2.190815   -0.550633   -1.986638
 N    0.508034    0.757994   -0.753825
 C    1.915195    0.996376   -0.764433
 C    2.417896    2.291529   -0.976406
 C    3.806159    2.450548   -1.007460
 C    4.674010    1.384961   -0.814663
 C    4.161486    0.108423   -0.591573
 C    2.782214   -0.076513   -0.597241
 C    5.005363   -1.113791   -0.375145
 O    4.553548   -2.238197   -0.516485
 N    6.298303   -0.897435    0.003550
 C    7.163753   -2.007156    0.264409
 C    7.589789   -2.333891    1.670347
 C    8.578030   -1.775813    0.679374
 C    1.515063    3.473606   -1.196798
 H   -0.358493    2.666483    3.134848
 H   -4.293313    0.474751    2.163524
 H   -5.798837   -1.012464    1.377371
 H   -7.059822   -3.013809    0.527469
 H   -7.003474   -2.205973   -1.038958
 H   -8.448255   -1.152849    1.456274
 H   -9.220044   -1.975851    0.112014
 H   -7.756341    0.726042   -0.077448
 H   -8.507805   -0.110615   -1.443947
 H   -9.511674    0.487294   -0.114697
 H   -1.346137    0.007902   -2.404326
 H   -1.980348   -1.624719   -2.042734
 H   -3.066661   -0.382452   -2.620042
 H    0.241531   -0.104244   -1.207664
 H    4.214650    3.443468   -1.188701
 H    5.745528    1.564279   -0.879368
 H    2.408010   -1.087932   -0.452641
 H    6.618478    0.040375    0.177057
 H    6.941562   -2.841088   -0.394990
 H    7.666631   -3.382464    1.942541
 H    7.243925   -1.687446    2.473318
 H    8.913930   -0.750162    0.816395
 H    9.339901   -2.437711    0.277913
 H    0.643000    3.192547   -1.794574
 H    1.141084    3.863392   -0.245873
 H    2.052305    4.278139   -1.707767
