65 
3mww_ligand_ani.xyz
 C    2.707511    3.399680   -0.140223
 C    1.505368    2.718142   -0.254645
 C    1.550224    1.324755   -0.245110
 C    2.731635    0.592654   -0.039652
 C    3.938301    1.314010    0.086473
 C    3.911362    2.687783    0.039538
 N    0.512900    0.441270   -0.430534
 C    1.007138   -0.842223   -0.319164
 C    2.365686   -0.793591   -0.035254
 C    3.288098   -1.952180    0.251316
 C    4.263111   -2.232321   -0.909931
 C    5.130018   -3.461176   -0.632308
 C    5.891358   -3.319766    0.688123
 C    4.930324   -3.042243    1.845694
 C    4.078100   -1.802918    1.569692
 C    0.165495   -2.003928   -0.474976
 C   -1.210296   -2.211670   -0.082739
 C   -1.514536   -3.485173   -0.418842
 O   -0.450045   -4.087654   -1.000359
 C    0.558037   -3.193040   -1.019087
 C    2.793251    4.896171   -0.177505
 O    3.732666    5.517091    0.246367
 O    1.743107    5.544000   -0.728520
 C   -0.776029    0.848221   -0.931247
 C   -1.693944    1.384900    0.177455
 O   -1.243547    2.046685    1.095422
 N   -3.029429    1.075860    0.075099
 C   -3.728814    0.886984   -1.195161
 C   -4.797279   -0.187411   -1.039422
 C   -5.771118    0.221609    0.067193
 C   -5.013562    0.471535    1.380300
 C   -3.902300    1.491951    1.172293
 C   -6.933831   -0.730074    0.342703
 O   -6.777355   -2.040090    0.046189
 O   -7.954529   -0.351762    0.854237
 H    0.539822    3.220030   -0.256319
 H    4.887095    0.798258    0.210579
 H    4.825261    3.262658    0.148668
 H    2.675455   -2.856501    0.390472
 H    4.901257   -1.348306   -1.053511
 H    3.700281   -2.359241   -1.843678
 H    5.828275   -3.630855   -1.461022
 H    4.485528   -4.351744   -0.579776
 H    6.602772   -2.484804    0.605345
 H    6.485980   -4.219515    0.887421
 H    5.482987   -2.917273    2.784534
 H    4.269122   -3.910325    1.984390
 H    3.381048   -1.624780    2.396721
 H    4.732624   -0.923917    1.517540
 H   -1.867710   -1.503515    0.399642
 H   -2.397923   -4.100892   -0.325997
 H    1.475000   -3.526347   -1.486442
 H    1.127275    4.908402   -1.119000
 H   -1.229010    0.008907   -1.459150
 H   -0.613396    1.654603   -1.658494
 H   -3.015361    0.619936   -1.974101
 H   -4.204437    1.830496   -1.510340
 H   -4.295784   -1.131597   -0.779682
 H   -5.318368   -0.336975   -1.992447
 H   -6.254639    1.161785   -0.228410
 H   -4.585708   -0.474154    1.736080
 H   -5.709504    0.822907    2.150297
 H   -4.338362    2.480730    0.953253
 H   -3.283849    1.603312    2.064325
 H   -5.912262   -2.201446   -0.352607
