65 
3mww_ligand_xtb.xyz
 C    3.007714    3.187183   -0.089874
 C    1.745451    2.679915   -0.363682
 C    1.590438    1.303601   -0.367457
 C    2.662866    0.417893   -0.078720
 C    3.928679    0.958128    0.167035
 C    4.088863    2.321475    0.147396
 N    0.474746    0.558054   -0.611281
 C    0.797243   -0.772276   -0.449844
 C    2.129909   -0.903744   -0.134758
 C    2.836601   -2.197331    0.120777
 C    3.907775   -2.465413   -0.943231
 C    4.578098   -3.813240   -0.697246
 C    5.194092   -3.857241    0.697804
 C    4.129984   -3.591743    1.758562
 C    3.461498   -2.241490    1.519816
 C   -0.216410   -1.805433   -0.554943
 C   -1.472786   -1.827773    0.123641
 C   -2.077709   -2.990977   -0.237009
 O   -1.300675   -3.682206   -1.084925
 C   -0.179322   -2.970348   -1.271704
 C    3.268378    4.648473   -0.054050
 O    4.327923    5.144685   -0.325720
 O    2.225069    5.423321    0.318173
 C   -0.794458    1.056993   -1.049385
 C   -1.620445    1.581403    0.136639
 O   -1.110330    1.767300    1.221799
 N   -2.925311    1.848123   -0.107364
 C   -3.664575    1.515456   -1.303242
 C   -4.457646    0.224790   -1.074770
 C   -5.392852    0.403898    0.131268
 C   -4.615718    0.890794    1.361832
 C   -3.799272    2.137663    1.014613
 C   -6.138519   -0.901109    0.402605
 O   -5.380250   -1.925398    0.822122
 O   -7.314414   -1.030018    0.235321
 H    0.907511    3.326333   -0.589036
 H    4.774853    0.320252    0.367016
 H    5.053879    2.767915    0.330900
 H    2.092535   -3.000548    0.062340
 H    4.657404   -1.673756   -0.914035
 H    3.448089   -2.449288   -1.934516
 H    5.349076   -3.985996   -1.451186
 H    3.836014   -4.610417   -0.789242
 H    5.976503   -3.098530    0.771777
 H    5.656233   -4.831602    0.869622
 H    4.582350   -3.609234    2.752273
 H    3.376491   -4.382479    1.720726
 H    2.684693   -2.069031    2.268007
 H    4.201344   -1.447725    1.621149
 H   -1.818250   -1.085264    0.814938
 H   -3.019032   -3.432121    0.029481
 H    0.559671   -3.371525   -1.935606
 H    1.468894    4.891288    0.600388
 H   -1.320126    0.243043   -1.553344
 H   -0.637948    1.876305   -1.760826
 H   -3.002946    1.419815   -2.161859
 H   -4.359745    2.337334   -1.505375
 H   -3.757648   -0.597887   -0.901523
 H   -5.044619   -0.011580   -1.963123
 H   -6.153485    1.148328   -0.123803
 H   -3.924168    0.123723    1.722057
 H   -5.310293    1.120621    2.170525
 H   -4.460320    2.965193    0.743347
 H   -3.176325    2.434828    1.859345
 H   -4.452541   -1.680002    0.943517
