79 
3mxd_ligand_ani.xyz
 C   -3.781896    1.762258   -0.578934
 C   -3.281792    3.033547   -0.840447
 C   -2.144990    3.507307   -0.232718
 C   -1.497951    2.631992    0.651035
 C   -2.004385    1.366841    0.939416
 C   -3.172647    0.912716    0.316423
 S    0.001707    3.171227    1.426128
 O   -0.002532    4.620646    1.461837
 O    0.145104    2.396738    2.659538
 N    1.252398    2.689743    0.434764
 C    1.573272    3.522253   -0.729189
 C    3.079194    3.661031   -0.968520
 C    3.323970    4.393936   -2.288815
 C    3.765783    4.379169    0.196168
 C    1.520236    1.255188    0.309511
 C    2.654211    0.771185    1.226464
 C   -5.040245    2.699640   -2.161066
 O    2.203414    0.532720    2.539546
 C    3.277293   -0.562199    0.767582
 O   -4.931004    1.571098   -1.300875
 N    2.250662   -1.601489    0.728169
 C    1.447601   -1.896875   -0.324769
 O    1.595278   -1.503909   -1.473902
 N   -2.026784   -2.692757    0.214039
 C   -0.977265   -2.551375   -0.788630
 C   -1.496508   -2.573931    1.476687
 O   -2.094083   -2.482315    2.529922
 O   -0.148954   -2.548634    1.396943
 C    0.272883   -2.809616    0.047030
 O   -4.103736    3.678627   -1.722090
 C    4.138662   -0.473463   -0.496971
 C    6.104247   -1.960198    0.046746
 C    6.880349   -3.095106   -0.161667
 C    6.525646   -4.008036   -1.150951
 C    5.392319   -3.780040   -1.925488
 C    4.618849   -2.641675   -1.716071
 C    4.970826   -1.715986   -0.731646
 C   -6.034092   -3.008666   -1.103002
 C   -5.676921   -3.543624    0.124087
 C   -4.381940   -3.412151    0.643561
 C   -3.397066   -2.766835   -0.144539
 C   -3.782683   -2.236286   -1.382620
 C   -5.080305   -2.337901   -1.861741
 O   -4.169775   -3.967898    1.854376
 H   -1.768494    4.509544   -0.406241
 H   -1.499420    0.738306    1.669482
 H   -3.581026   -0.072958    0.518729
 H    1.095033    3.085704   -1.618721
 H    1.134346    4.510982   -0.566800
 H    3.508586    2.651113   -1.058992
 H    4.395894    4.493288   -2.492236
 H    2.867009    3.864173   -3.132872
 H    2.895740    5.403684   -2.252643
 H    3.559732    3.889065    1.154597
 H    3.412025    5.415692    0.272748
 H    4.850984    4.406612    0.049950
 H    1.786375    1.061713   -0.734290
 H    0.617880    0.673253    0.527532
 H    3.446185    1.543602    1.237414
 H   -6.051837    3.110340   -2.097902
 H   -4.802764    2.401727   -3.192308
 H    1.545030    1.210592    2.773049
 H    3.931952   -0.846183    1.599731
 H    1.850702   -1.815757    1.633776
 H   -1.087766   -3.267349   -1.603811
 H   -0.948709   -1.537957   -1.203601
 H    0.584938   -3.856782   -0.019375
 H    4.814914    0.384226   -0.373544
 H    3.506157   -0.289868   -1.366457
 H    6.382059   -1.249782    0.824595
 H    7.762663   -3.268335    0.450087
 H    7.131636   -4.895730   -1.315531
 H    5.111495   -4.490709   -2.699385
 H    3.726375   -2.463139   -2.310923
 H   -7.052911   -3.114836   -1.464581
 H   -6.399295   -4.075630    0.737498
 H   -3.039274   -1.726620   -1.985792
 H   -5.336724   -1.896788   -2.821026
 H   -3.428364   -3.508501    2.307069
