80 
3mxe_ligand_dft.xyz
 C    4.545240    2.687277    0.977714
 F    1.200559   -2.125754    1.702248
 N    3.591560    3.177106    1.698163
 S    4.127635    2.038797   -0.583546
 C    2.396512    3.087816    1.004275
 F    1.077080   -0.223791    0.683334
 C    2.478252    2.488854   -0.267491
 F    1.447892   -0.285430    2.806637
 C    1.352903    2.338329   -1.079689
 C    0.156298    2.826710   -0.586318
 C    0.049304    3.440946    0.675344
 C    1.164279    3.562615    1.477209
 S   -1.327291    2.645913   -1.558690
 O   -2.001290    3.929639   -1.629905
 O   -0.953347    1.922497   -2.772241
 N   -2.306157    1.615852   -0.705423
 C   -3.247265    2.157678    0.277794
 C   -4.640219    1.524465    0.180098
 C   -5.235926    1.698947   -1.215746
 C   -5.540509    2.134927    1.254815
 C   -1.788487    0.265191   -0.473060
 C   -2.500471   -0.791598   -1.322338
 O   -2.216690   -0.637595   -2.696028
 C   -2.083907   -2.228448   -0.948844
 N   -0.719810   -2.401659   -1.430056
 C    0.037220   -3.494621   -1.235549
 O   -0.252727   -4.476712   -0.566617
 N    2.815677   -2.073295   -0.741628
 C    2.527772   -3.495125   -0.837866
 C    2.397513   -1.395598   -1.858433
 O    2.619108   -0.253997   -2.168698
 O    1.653565   -2.244739   -2.620293
 C    1.420822   -3.458250   -1.900763
 C   -2.193177   -2.548211    0.555351
 C   -4.728184   -2.444639    0.670656
 C   -5.907000   -2.015021    1.271859
 C   -5.863111   -1.242948    2.430406
 C   -4.630853   -0.903783    2.979868
 C   -3.453790   -1.324438    2.366329
 C   -3.482276   -2.098459    1.203465
 C    5.476217   -0.454775    2.082318
 C    4.104793   -0.402782    2.314927
 C    3.219276   -0.936321    1.385457
 C    3.710763   -1.514201    0.208255
 C    5.080561   -1.558811   -0.020528
 C    5.964810   -1.030858    0.915685
 C    1.735378   -0.889535    1.645291
 H    5.575631    2.648875    1.314126
 H    1.402234    1.845957   -2.043569
 H   -0.907625    3.830935    1.006741
 H    1.113475    4.032063    2.453268
 H   -2.841697    2.008005    1.290882
 H   -3.332949    3.232155    0.096276
 H   -4.549909    0.453845    0.398722
 H   -6.219585    1.221351   -1.276093
 H   -5.356948    2.762445   -1.454985
 H   -4.594515    1.257662   -1.984770
 H   -6.522337    1.651305    1.251215
 H   -5.111285    2.005903    2.254835
 H   -5.689829    3.207784    1.080063
 H   -0.716886    0.231125   -0.684856
 H   -1.909233    0.047814    0.591024
 H   -3.579677   -0.708189   -1.151899
 H   -1.983351    0.289570   -2.878567
 H   -2.742903   -2.903420   -1.511785
 H   -0.470087   -1.775504   -2.189333
 H    2.162686   -3.906503    0.103561
 H    3.408969   -4.059158   -1.168680
 H    1.484985   -4.287437   -2.606000
 H   -1.340834   -2.093272    1.070050
 H   -2.066739   -3.627324    0.673317
 H   -4.778309   -3.052957   -0.229073
 H   -6.863372   -2.287275    0.835246
 H   -6.782693   -0.907881    2.900383
 H   -4.583613   -0.306453    3.885920
 H   -2.493807   -1.053025    2.800504
 H    6.160370   -0.040714    2.816087
 H    3.721945    0.061554    3.215604
 H    5.444825   -2.000127   -0.942741
 H    7.033510   -1.070439    0.730254
