24 
3n1v_ligand_ani.xyz
Cl    4.660385   -0.679770    0.369442
 C    3.069103   -0.006609    0.141843
 C    2.001372   -0.851945   -0.074597
 C    0.725824   -0.289817   -0.257147
 C    0.576682    1.104781   -0.214661
 S   -1.082096    1.566572   -0.464163
 C   -1.573395   -0.104703   -0.611429
 C   -0.533901   -0.969909   -0.491131
 C   -0.622315   -2.462674   -0.556685
 C   -3.037396   -0.392177   -0.777968
 C   -3.878516   -0.144128    0.480832
 O   -5.033009    0.176343    0.431201
 O   -3.261840   -0.366989    1.656203
 C    1.666606    1.947562    0.008013
 C    2.917645    1.386288    0.186012
 H    2.151691   -1.928474   -0.100263
 H    0.059715   -2.863910   -1.313832
 H   -0.347221   -2.910896    0.404990
 H   -1.627826   -2.812271   -0.806050
 H   -3.185806   -1.444142   -1.059194
 H   -3.472819    0.211163   -1.575142
 H   -2.327051   -0.575604    1.495173
 H    1.539847    3.025746    0.042329
 H    3.785017    2.014471    0.360346
