21 
3n1w_ligand_xtb.xyz
Cl    3.159696   -2.045232   -0.142026
 C    2.163702   -0.634085   -0.061459
 C    0.817428   -0.743195   -0.332017
 C    0.026305    0.404280   -0.266727
 C    0.627213    1.630654    0.075123
 S   -0.536711    2.921415    0.101392
 C   -1.795525    1.822657   -0.337583
 C   -1.379774    0.546392   -0.506345
 C   -2.274629   -0.599280   -0.855520
 C   -2.509798   -1.505252    0.352230
 O   -2.080789   -1.305834    1.446576
 O   -3.269870   -2.585009    0.088308
 C    1.984340    1.726130    0.346057
 C    2.754101    0.585533    0.275149
 H    0.385404   -1.700420   -0.575793
 H   -2.792473    2.204434   -0.446583
 H   -1.826549   -1.196116   -1.656281
 H   -3.243590   -0.226652   -1.199000
 H   -3.561097   -2.631873   -0.831686
 H    2.424232    2.675182    0.608319
 H    3.811721    0.625484    0.480668
