21 
3n1w_ligand_ani.xyz
Cl    3.115234   -2.137083   -0.159843
 C    2.158859   -0.684441   -0.074023
 C    0.801094   -0.753811   -0.307945
 C    0.046173    0.427497   -0.235541
 C    0.687463    1.636053    0.083485
 S   -0.444597    2.957373    0.133069
 C   -1.749592    1.896706   -0.288686
 C   -1.377802    0.609616   -0.456750
 C   -2.317367   -0.503433   -0.815869
 C   -2.563403   -1.496944    0.319159
 O   -1.965122   -1.518795    1.358796
 O   -3.536377   -2.405518    0.076019
 C    2.065876    1.690728    0.317092
 C    2.799442    0.522496    0.234112
 H    0.333424   -1.710945   -0.518992
 H   -2.748731    2.304350   -0.387936
 H   -1.931783   -1.070389   -1.677672
 H   -3.285547   -0.088086   -1.130932
 H   -3.932463   -2.255214   -0.792852
 H    2.556693    2.629159    0.559021
 H    3.870512    0.531293    0.408864
