85 
3n23_ligand_xtb.xyz
 C    1.221325    1.494350    0.543242
 C    2.681676    1.444980    0.086012
 C    3.099675    0.042284   -0.311158
 C    2.172324   -0.434458   -1.422173
 C    0.682414   -0.421397   -1.037318
 C    0.411838   -1.493306    0.023664
 C   -1.089244   -1.737202    0.171006
 C   -1.933334   -0.495107   -0.172213
 C   -1.211086    0.804659    0.226426
 C    0.184345    0.960510   -0.504525
 C   -2.164970    1.991189   -0.010909
 C   -3.528780    1.779867    0.647126
 C   -4.277001    0.527263    0.192887
 C   -3.356724   -0.692116    0.409511
 C   -3.421389   -0.920068    1.931231
 C   -4.823367   -0.471476    2.372543
 C   -5.447863    0.319551    1.204160
 C   -4.749719    0.677703   -1.249041
 C    0.137679    1.972936   -1.675740
 C   -6.660973   -0.315752    0.614225
 C   -6.853120   -1.782526    0.369413
 C   -7.764028    0.310720    0.191512
 C   -8.709915   -0.682758   -0.338600
 C    5.183800   -1.084782   -0.483505
 C    6.515855   -0.971366   -1.237979
 C    7.426671    0.048374   -0.546954
 C    7.527354   -0.281525    0.946465
 C    6.110591   -0.279911    1.543178
 C    6.095732   -0.599184    3.032694
 O    1.011148    2.824975    0.919215
 O    4.450963    0.071704   -0.771073
 O   -0.039880   -0.742942   -2.228564
 O   -1.609133    3.168454    0.572196
 O   -3.950565   -1.794026   -0.264236
 O   -0.882623    1.762700   -2.617279
 O   -8.132055   -1.905651   -0.214042
 O   -9.803012   -0.521113   -0.805665
 O    7.119400   -2.234989   -1.280608
 O    8.690310   -0.019395   -1.166004
 O    8.382000    0.682782    1.522114
 O    5.338272   -1.280038    0.891136
 H    1.135078    0.851392    1.440276
 H    3.293082    1.811177    0.910871
 H    2.828642    2.123247   -0.752955
 H    3.044290   -0.628620    0.555365
 H    2.442368   -1.453735   -1.715729
 H    2.331643    0.206436   -2.291250
 H    0.837039   -1.168188    0.970441
 H    0.910121   -2.425148   -0.254721
 H   -1.283046   -2.055700    1.195404
 H   -1.381536   -2.549902   -0.497283
 H   -2.070882   -0.464826   -1.256126
 H   -1.009408    0.771413    1.303558
 H   -2.291648    2.134947   -1.086466
 H   -3.371929    1.753863    1.726671
 H   -4.146196    2.655244    0.426701
 H   -3.262715   -1.970204    2.177226
 H   -2.649710   -0.336312    2.429673
 H   -4.763964    0.153470    3.262836
 H   -5.438136   -1.332662    2.624904
 H   -5.768434    1.307281    1.547102
 H   -5.495848    1.465530   -1.316642
 H   -5.187090   -0.249053   -1.605263
 H   -3.916423    0.930612   -1.897974
 H    1.111796    1.957516   -2.179167
 H   -0.008244    2.979576   -1.280822
 H   -6.834623   -2.375449    1.290041
 H   -6.092932   -2.178873   -0.310427
 H   -7.988106    1.359314    0.209030
 H    4.666460   -1.993920   -0.826146
 H    6.294920   -0.615481   -2.255788
 H    6.994030    1.052877   -0.657027
 H    7.952372   -1.292052    1.055946
 H    5.658380    0.707608    1.363932
 H    6.618468   -1.534071    3.219299
 H    5.066702   -0.710547    3.361566
 H    6.556875    0.204624    3.600969
 H    0.055562    2.995562    0.987409
 H    0.296541   -1.580922   -2.564665
 H   -2.066160    3.938087    0.220000
 H   -3.438057   -2.583546   -0.063002
 H   -0.790188    0.850467   -2.926486
 H    8.042511   -2.082100   -1.530259
 H    9.294370    0.502020   -0.623246
 H    8.466826    0.500650    2.463634
