42 
3n2v_ligand_xtb.xyz
 C   -1.614361   -0.739529   -1.690143
 C   -3.014791   -0.579601   -1.121293
 C   -3.288690   -0.929167    1.336842
 N   -1.222731    0.300746   -2.449636
 O    0.107585    0.299454   -2.885076
 O   -0.892053   -1.709168   -1.520496
 N   -2.944664   -0.070282    0.233105
 S   -2.062842    1.306881    0.485757
 C   -4.798960   -1.171122    1.418844
 O   -5.172555   -2.105687    0.428164
 O   -2.397482    1.790898    1.791707
 C   -0.324191    0.861805    0.469845
 O   -2.302915    2.157868   -0.652269
 C    0.120503   -0.266627    1.131933
 C    1.463406   -0.592098    1.091275
 C    2.370769    0.214547    0.405026
 C    1.903765    1.359793   -0.237865
 C    0.559363    1.680165   -0.208958
 C    3.797753   -0.138755    0.362292
 C    4.775325    0.837648    0.538488
 C    6.116041    0.501672    0.505963
 C    6.499946   -0.810867    0.286910
 C    5.535338   -1.787787    0.104411
 C    4.193662   -1.456626    0.146312
 H   -3.517958   -1.546805   -1.093792
 H   -3.587535    0.120881   -1.735028
 H   -2.971066   -0.406056    2.239256
 H   -2.782271   -1.898025    1.254323
 H   -1.595033    1.235280   -2.307067
 H    0.428755   -0.588930   -2.625157
 H   -5.318008   -0.215851    1.273796
 H   -5.039794   -1.560755    2.417567
 H   -6.126058   -2.234227    0.457843
 H   -0.577531   -0.887921    1.668099
 H    1.816451   -1.471460    1.608037
 H    2.591631    1.984747   -0.786145
 H    0.179763    2.553425   -0.715194
 H    4.479498    1.859490    0.725355
 H    6.864758    1.266179    0.652836
 H    7.547463   -1.071396    0.258194
 H    5.830154   -2.811799   -0.071961
 H    3.444119   -2.217757   -0.012877
