42 
3n2v_ligand_ani.xyz
 C   -2.611824    1.991619   -0.844038
 C   -3.427161    0.746113   -0.548349
 C   -2.711944   -1.579128   -1.197842
 N   -2.516274    2.878587    0.188183
 O   -1.581755    3.893511   -0.000316
 O   -2.095139    2.225353   -1.927252
 N   -2.563865   -0.409792   -0.336811
 S   -1.838133   -0.595692    1.151735
 C   -3.919295   -2.444642   -0.877180
 O   -5.085331   -1.687571   -1.160977
 O   -2.081230   -1.947570    1.632513
 C   -0.104287   -0.467733    0.804666
 O   -2.226374    0.564116    1.947266
 C    0.637192   -1.636139    0.649526
 C    1.989573   -1.548700    0.353721
 C    2.620010   -0.305167    0.233327
 C    1.855001    0.852818    0.410230
 C    0.498043    0.780083    0.688172
 C    4.071145   -0.215980   -0.070576
 C    4.893050    0.669561    0.632623
 C    6.252623    0.752210    0.354295
 C    6.810332   -0.039680   -0.645931
 C    6.000291   -0.920191   -1.358133
 C    4.644199   -1.013016   -1.065715
 H   -4.039988    0.535006   -1.425508
 H   -4.078577    0.897139    0.319186
 H   -1.792699   -2.169695   -1.132207
 H   -2.791804   -1.202523   -2.223952
 H   -2.462794    2.510701    1.135620
 H   -1.338696    3.764818   -0.940854
 H   -3.870049   -2.732065    0.179205
 H   -3.882577   -3.355465   -1.493872
 H   -5.826957   -2.089040   -0.694030
 H    0.153923   -2.600654    0.771250
 H    2.575003   -2.456988    0.236877
 H    2.330329    1.825110    0.311914
 H   -0.074129    1.691833    0.829118
 H    4.460621    1.284118    1.419583
 H    6.876106    1.443721    0.915025
 H    7.871641    0.029134   -0.869335
 H    6.426587   -1.543354   -2.139932
 H    4.012102   -1.697170   -1.628112
