37 
3n45_ligand_ani.xyz
 N   -1.292464   -0.303305   -0.342169
 C   -0.913664    1.064308   -0.707534
 C   -2.263989    1.777838   -0.977709
 C   -3.302522    0.772371   -0.537347
 C   -2.683384   -0.429630   -0.190953
 C   -3.410924   -1.541046    0.223911
 C   -4.794248   -1.407105    0.294163
 C   -5.427999   -0.209388   -0.040713
 C   -4.680423    0.889841   -0.461144
 C   -0.139160    1.786553    0.388184
 O    0.621111    2.697334    0.180680
 O   -0.459968    1.353804    1.619184
 C   -0.371088   -1.228052    0.079488
 O   -0.604812   -2.332610    0.518996
 O    0.869045   -0.724924   -0.078266
 C    1.934679   -1.599975    0.336195
 C    3.232755   -0.873979    0.103906
 C    3.980410   -1.103232   -1.050260
 C    5.157295   -0.397893   -1.283876
 C    5.597583    0.544632   -0.359046
 C    4.855542    0.781699    0.795117
 C    3.676835    0.077044    1.022439
 H   -0.273508    1.072588   -1.589031
 H   -2.337519    2.721069   -0.426934
 H   -2.358752    2.018624   -2.041882
 H   -2.914029   -2.469445    0.483009
 H   -5.390433   -2.256318    0.619008
 H   -6.510315   -0.134232    0.024450
 H   -5.174281    1.821517   -0.728593
 H    0.072221    1.886593    2.232180
 H    1.880514   -2.527510   -0.241972
 H    1.792924   -1.843782    1.394545
 H    3.637594   -1.839223   -1.776137
 H    5.731282   -0.584964   -2.188533
 H    6.517681    1.095581   -0.538105
 H    5.194208    1.518411    1.520236
 H    3.090464    0.271486    1.919265
