68 
3n4l_ligand_xtb.xyz
 C    3.491564    2.693058    1.430020
 C    2.473156    1.919522    0.648372
 N    2.826438    1.634112   -0.616535
 C    2.181679    0.706190   -1.540242
 C    0.902641    1.301498   -2.227995
 C   -0.460587    0.957288   -1.603713
 N   -0.693939    1.787156   -0.416383
 C   -2.007511    1.625740    0.295768
 C   -3.127050    2.201905   -0.577127
 C   -2.944114    3.695442   -0.850388
 C   -2.873995    4.472695    0.459963
 C   -1.752989    3.940861    1.346523
 C   -1.913311    2.441156    1.595822
 C   -2.173600    0.148759    0.619908
 C   -3.276373   -0.574755    0.202477
 C   -3.408394   -1.928487    0.515205
 C   -2.414186   -2.569828    1.246258
 C   -1.312731   -1.846376    1.664510
 C   -1.187083   -0.502117    1.362945
 N   -4.544878   -2.586960    0.063448
 N   -5.400557   -1.955472   -0.755037
 C   -6.366257   -2.806238   -1.005445
 C   -6.150307   -4.027449   -0.337883
 C   -4.973047   -3.849968    0.336138
 O    1.393714    1.586005    1.132397
 C    1.951659   -0.670534   -0.889128
 C    3.269331   -1.234930   -0.427192
 C    3.650352   -1.119346    0.902471
 C    4.889033   -1.594428    1.299501
 C    5.770888   -2.188270    0.415776
 C    5.362661   -2.297280   -0.902135
 C    4.135422   -1.827618   -1.336886
 F    5.245313   -1.455713    2.583960
 F    6.185301   -2.864213   -1.792302
 O    0.957371    2.711549   -2.264966
 H    3.056328    3.021752    2.369641
 H    3.841369    3.556581    0.869448
 H    4.346674    2.054753    1.648175
 H    3.740170    1.954755   -0.896909
 H    2.913731    0.565849   -2.342481
 H    0.884743    0.886858   -3.245705
 H   -0.529188   -0.096847   -1.340361
 H   -1.226268    1.181325   -2.349128
 H    0.107513    1.618957    0.271307
 H   -0.612047    2.766769   -0.713779
 H   -4.066948    2.070846   -0.041020
 H   -3.206496    1.655518   -1.517568
 H   -2.048422    3.886395   -1.450143
 H   -3.792795    4.046912   -1.437867
 H   -2.717342    5.532336    0.257332
 H   -3.824816    4.372465    0.985388
 H   -1.772714    4.455993    2.307085
 H   -0.781251    4.156012    0.893351
 H   -1.082364    2.081508    2.202966
 H   -2.830030    2.268340    2.160907
 H   -4.076537   -0.137068   -0.368397
 H   -2.490576   -3.616035    1.491041
 H   -0.542310   -2.338357    2.237890
 H   -0.323902    0.032516    1.726738
 H   -7.179543   -2.530452   -1.646076
 H   -6.771310   -4.898155   -0.355049
 H   -4.437666   -4.515422    0.980296
 H    1.504852   -1.332188   -1.631740
 H    1.281879   -0.585160   -0.035554
 H    2.996428   -0.677808    1.637939
 H    6.729985   -2.556641    0.739196
 H    3.865142   -1.943515   -2.374674
 H    1.628957    3.009326   -2.886209
