68 
3n4l_ligand_ani.xyz
 C    3.372248    2.385349    1.955544
 C    2.434813    1.671873    1.005878
 N    2.846505    1.653343   -0.301022
 C    2.329554    0.743057   -1.339100
 C    0.987589    1.227081   -1.972204
 C   -0.323412    0.735917   -1.334818
 N   -0.702529    1.661729   -0.250891
 C   -2.125309    1.620351    0.238879
 C   -3.100446    2.138927   -0.842466
 C   -2.915237    3.615882   -1.198437
 C   -3.042682    4.493022    0.048467
 C   -2.072621    4.041436    1.141594
 C   -2.240591    2.551891    1.465892
 C   -2.461192    0.181258    0.672530
 C   -3.508447   -0.551335    0.116776
 C   -3.790164   -1.842729    0.555867
 C   -3.022604   -2.443419    1.549885
 C   -1.963674   -1.728617    2.094402
 C   -1.678881   -0.436278    1.661147
 N   -4.875442   -2.533681   -0.040239
 N   -5.281010   -2.190146   -1.277494
 C   -6.292279   -3.003262   -1.540020
 C   -6.561812   -3.874650   -0.461127
 C   -5.628833   -3.537925    0.487797
 O    1.373237    1.169553    1.366592
 C    2.324744   -0.724345   -0.879513
 C    3.710645   -1.202380   -0.503860
 C    4.068247   -1.348996    0.837593
 C    5.357344   -1.748322    1.152966
 C    6.315355   -2.010642    0.187684
 C    5.931283   -1.853061   -1.133981
 C    4.657239   -1.450882   -1.499300
 F    5.694914   -1.890835    2.446665
 F    6.835793   -2.095518   -2.098167
 O    0.935319    2.647243   -2.029857
 H    2.899404    2.467170    2.934942
 H    3.617877    3.386813    1.586884
 H    4.307730    1.822287    2.058899
 H    3.808644    1.929834   -0.446070
 H    3.063405    0.838253   -2.148068
 H    0.995765    0.869247   -3.012348
 H   -0.256059   -0.287711   -0.964411
 H   -1.099621    0.741650   -2.103141
 H   -0.072518    1.467706    0.555273
 H   -0.460570    2.596425   -0.620056
 H   -4.115046    2.009143   -0.443199
 H   -3.030455    1.514193   -1.740922
 H   -1.935468    3.767954   -1.674516
 H   -3.662860    3.907914   -1.945213
 H   -2.881809    5.549068   -0.199708
 H   -4.069987    4.411834    0.431261
 H   -2.225105    4.631130    2.053143
 H   -1.037610    4.238844    0.826654
 H   -1.517417    2.244512    2.231165
 H   -3.235435    2.388486    1.899022
 H   -4.129011   -0.143319   -0.669614
 H   -3.230566   -3.458427    1.874300
 H   -1.353046   -2.186780    2.868814
 H   -0.829942    0.084074    2.102034
 H   -6.797112   -2.932968   -2.495436
 H   -7.330480   -4.630679   -0.391165
 H   -5.464044   -3.901746    1.492793
 H    1.928396   -1.342395   -1.694455
 H    1.663499   -0.830456   -0.017771
 H    3.357662   -1.155617    1.636441
 H    7.318389   -2.324610    0.453268
 H    4.418000   -1.335511   -2.553812
 H    1.632640    2.972560   -1.436281
