25 
3n5h_ligand_dft.xyz
Cl    0.657509   77.393799   29.464858
 C    2.377101   77.548232   29.221916
 C    3.172150   76.397106   29.186271
 N    2.816892   75.092369   29.315388
 C    3.947646   74.309892   29.209256
 C    5.055290   75.102338   29.013522
 C    4.574791   76.455675   28.994425
 C    5.156825   77.727685   28.835418
 C    4.373555   78.861608   28.868388
 C    2.981781   78.773371   29.061700
Cl    6.877322   77.900845   28.599115
 C    6.459863   74.622598   28.834201
 C    6.933055   74.747145   27.400919
 O    6.241216   74.967293   26.438734
 O    8.262283   74.549330   27.317083
 C    3.855242   72.849544   29.300661
 O    4.779239   72.071154   29.236891
 O    2.576662   72.448667   29.474433
 H    4.833821   79.834729   28.742700
 H    2.383348   79.677172   29.084065
 H    7.156998   75.165850   29.477746
 H    6.525957   73.564614   29.105079
 H    8.486996   74.619660   26.375670
 H    2.595923   71.479826   29.522015
 H    1.882538   74.740499   29.453547
