25 
3n5h_ligand_ani.xyz
Cl    0.670479   77.441942   29.420038
 C    2.387785   77.546685   29.187553
 C    3.163081   76.383980   29.168810
 N    2.788451   75.080614   29.319714
 C    3.901630   74.278095   29.230756
 C    5.018355   75.050293   28.997762
 C    4.560273   76.410297   28.974752
 C    5.175838   77.667445   28.822717
 C    4.413272   78.820537   28.840266
 C    3.021418   78.761167   29.020130
Cl    6.896337   77.802917   28.626069
 C    6.419234   74.580374   28.775587
 C    6.945512   74.864132   27.378217
 O    6.302342   75.208778   26.418702
 O    8.277653   74.673244   27.329130
 C    3.817153   72.819719   29.376540
 O    4.751819   72.049930   29.321827
 O    2.547304   72.402190   29.587531
 H    4.897655   79.782890   28.716320
 H    2.438300   79.675997   29.031191
 H    7.114426   75.043302   29.486158
 H    6.473079   73.493532   28.931429
 H    8.543796   74.878819   26.417947
 H    2.589520   71.434826   29.671636
 H    1.849287   74.749296   29.483218
