25 
3n5j_ligand_xtb.xyz
Cl    2.545568   -2.893535    0.407362
 C    2.029318   -1.269414    0.111008
 C    0.675156   -0.993574   -0.058967
 N   -0.405757   -1.815629   -0.013524
 C   -1.540086   -1.071476   -0.270768
 C   -1.185493    0.249938   -0.461636
 C    0.227468    0.325805   -0.312453
 C    1.146228    1.376684   -0.378404
 C    2.476157    1.074012   -0.200856
 C    2.929887   -0.231996    0.037915
Cl    3.654528    2.332418   -0.274227
 C   -2.113622    1.389688   -0.692071
 C   -2.243751    2.260706    0.557166
 O   -1.524875    2.194092    1.508101
 O   -3.246632    3.150427    0.502048
 C   -2.893271   -1.641067   -0.297619
 O   -3.831061   -1.094489   -0.817087
 O   -3.046785   -2.839454    0.300158
 H    0.823971    2.390371   -0.546774
 H    3.984536   -0.413310    0.166877
 H   -3.094750    1.001708   -0.974346
 H   -1.734034    2.025058   -1.497871
 H   -3.779450    3.072275   -0.300612
 H   -2.279250   -3.107594    0.820837
 H   -0.335474   -2.820553    0.017625
