102 
3n5k_ligand_xtb.xyz
 C   -6.180084   -0.818343   -1.936202
 C   -5.063669   -1.204450   -0.970311
 C   -3.728040   -0.420551   -1.146234
 C   -3.767812    1.023537   -0.610182
 C   -2.474986    1.810997   -0.839598
 C   -1.176468    1.296207   -0.195175
 C   -0.618356    0.061423   -0.945746
 C    0.840467   -0.231588   -0.554124
 O    1.728137    0.362576   -1.490326
 C    2.802079    1.006521   -1.024844
 O    3.012346    1.210532    0.143755
 C    3.683148    1.427412   -2.174136
 C    4.941973    2.171295   -1.736290
 C    5.912371    1.260379   -0.987485
 C    7.227487    1.966653   -0.667867
 C    8.217756    1.077158    0.085383
 C    7.818308    0.820059    1.536982
 C    8.857960   -0.025792    2.262089
 C    0.990136   -1.761382   -0.576231
 O    2.013011   -2.196424    0.309050
 C    3.277511   -2.148793   -0.133721
 O    3.583678   -1.869540   -1.262987
 C    4.247348   -2.486697    0.981894
 C    4.103967   -1.413790    2.066603
 C    5.669924   -2.588253    0.426154
 C    6.635663   -3.258434    1.394406
 C   -0.388898   -2.291663   -0.171717
 C   -0.546508   -2.354984    1.343024
 C   -1.330131   -1.310529   -0.902137
 C   -2.764938   -1.354974   -0.394955
 O   -3.257329   -2.678512   -0.621705
 C   -4.544742   -2.643925   -1.182084
 O   -5.383382   -3.541575   -0.524110
 C   -1.288708    1.177630    1.320555
 O   -0.137170    2.271708   -0.504939
 C   -0.142926    3.519305   -0.038952
 O   -1.028346    4.032094    0.595152
 C    1.140418    4.208548   -0.428059
 O   -4.136782    1.072404    0.757269
 C   -5.376970    1.509035    1.040210
 O   -6.156078    1.891716    0.209444
 C   -5.601876    1.507819    2.530899
 C   -7.085547    1.559587    2.887551
 C   -7.777549    0.238526    2.577853
 O   -3.359311   -0.393921   -2.506283
 O   -5.503986   -1.092726    0.360017
 H   -7.013484   -1.501817   -1.789674
 H   -6.517214    0.190784   -1.708473
 H   -5.853924   -0.886732   -2.970378
 H   -4.560071    1.544052   -1.174559
 H   -2.308652    1.886932   -1.916269
 H   -2.651302    2.816124   -0.449510
 H   -0.583257    0.380754   -1.992065
 H    1.097087    0.143977    0.441701
 H    3.078294    2.039131   -2.846455
 H    3.947269    0.512409   -2.709373
 H    4.663924    3.008010   -1.092148
 H    5.434743    2.577152   -2.622982
 H    5.433783    0.935057   -0.065446
 H    6.114836    0.375003   -1.594658
 H    7.024396    2.861262   -0.074527
 H    7.687448    2.290869   -1.605346
 H    9.199679    1.557358    0.076246
 H    8.314236    0.122648   -0.437931
 H    6.855407    0.309658    1.572022
 H    7.705190    1.776474    2.052573
 H    8.977948   -0.987474    1.768188
 H    8.558308   -0.203319    3.292624
 H    9.823073    0.476750    2.268743
 H    1.253301   -2.065234   -1.597363
 H    3.945048   -3.453885    1.398378
 H    4.221767   -0.421066    1.637194
 H    3.118780   -1.471110    2.522105
 H    4.853400   -1.554663    2.840522
 H    5.636137   -3.160362   -0.503320
 H    6.026140   -1.587885    0.178461
 H    7.617098   -3.353797    0.936220
 H    6.744630   -2.678661    2.307171
 H    6.285130   -4.254178    1.658423
 H   -0.542862   -3.298904   -0.564304
 H   -0.439439   -1.375855    1.795465
 H   -1.518938   -2.766431    1.596298
 H    0.220331   -3.007342    1.752612
 H   -1.396938   -1.657919   -1.937448
 H   -2.847159   -1.136780    0.673176
 H   -4.487541   -2.892342   -2.257281
 H   -4.873956   -4.339624   -0.345453
 H   -1.652677    2.120295    1.721600
 H   -1.985688    0.399845    1.601494
 H   -0.313226    0.978981    1.758588
 H    1.260100    4.177318   -1.507806
 H    1.974126    3.673077    0.021448
 H    1.124419    5.236502   -0.080301
 H   -5.083467    2.385381    2.926306
 H   -5.125291    0.620135    2.946301
 H   -7.192118    1.794024    3.948530
 H   -7.555191    2.358120    2.311270
 H   -7.653931   -0.003639    1.526449
 H   -7.347157   -0.566283    3.170091
 H   -8.839866    0.302256    2.800505
 H   -3.964206    0.193845   -2.975623
 H   -5.936612   -1.933177    0.577970
