40 
3n76_ligand_xtb.xyz
 O    4.962183   -2.644670   -0.029012
 C    3.843398   -2.092977   -0.520270
 O    3.308690   -2.486789   -1.518680
 C    3.396712   -0.882589    0.300090
 O    3.790435   -0.996601    1.651178
 C    1.896432   -0.772434    0.268191
 C    1.216875    0.359338    0.061608
 C    1.927687    1.677401   -0.161989
 O    1.331692    2.767065    0.519397
 C    3.411554    1.593860    0.231890
 O    4.103882    2.735733   -0.210838
 C    4.040863    0.346426   -0.370894
 C   -0.236733    0.330080    0.016918
 C   -1.019343    1.328685   -0.385731
 C   -2.511978    1.263653   -0.450329
 O   -2.983183    0.019418    0.009620
 C   -4.326645   -0.206236    0.016862
 C   -5.293832    0.700356   -0.402685
 C   -6.634392    0.353408   -0.344857
 C   -7.026470   -0.884824    0.125696
 C   -6.062805   -1.789961    0.543966
 C   -4.725892   -1.457049    0.491175
 H    5.241897   -3.389157   -0.584657
 H    4.703383   -1.309744    1.680220
 H    1.366582   -1.697702    0.437827
 H    1.866578    1.943080   -1.226385
 H    1.212389    2.518757    1.443220
 H    3.475858    1.520553    1.332150
 H    3.528188    3.496751   -0.059133
 H    3.860802    0.324607   -1.446174
 H    5.116871    0.361032   -0.191443
 H   -0.693121   -0.603954    0.311306
 H   -0.614100    2.278855   -0.699331
 H   -2.928747    2.080917    0.160957
 H   -2.827278    1.432556   -1.493090
 H   -5.022408    1.675712   -0.775585
 H   -7.375867    1.066957   -0.674005
 H   -8.073079   -1.145048    0.167009
 H   -6.356700   -2.761097    0.913629
 H   -3.963420   -2.149145    0.812321
