22 
3n7a_ligand_ani.xyz
 C   -0.038087   -0.983502   -0.356716
 C    1.405612   -0.834329    0.077960
 O    2.179743   -1.872314   -0.479683
 C    1.958046    0.514297   -0.391978
 O    3.289744    0.689354    0.069614
 C    1.037102    1.640206   -0.015783
 C   -0.264757    1.458863    0.210490
 C   -2.280509    0.109282   -0.316788
 O   -2.993827   -0.992540    0.004830
 O   -1.020795   -0.169116    1.721816
 O   -2.699677    0.963202   -1.052873
 C   -0.896297    0.095080    0.331366
 H   -0.407356   -1.978100   -0.086867
 H   -0.117350   -0.882804   -1.446007
 H    1.445977   -0.866549    1.181039
 H    3.100262   -1.619882   -0.314233
 H    2.054357    0.479009   -1.486034
 H    3.248502    0.827243    1.025342
 H    1.474507    2.635718    0.022565
 H   -0.923089    2.301878    0.396810
 H   -3.847935   -0.902644   -0.449974
 H   -1.596052   -0.941946    1.816432
