44 
3n87_ligand_dft.xyz
 O    4.080732    0.773766    2.421716
 C    4.548868    0.321253    1.409653
 O    5.854547    0.001752    1.280859
 C    3.776328   -0.025772    0.133714
 O    4.562211    0.276689   -1.009596
 C    2.542312    0.837150    0.041513
 C    1.330406    0.387127   -0.299913
 C    1.082467   -1.091361   -0.547766
 O    0.126552   -1.343839   -1.572315
 C    2.378031   -1.831445   -0.866238
 O    2.154916   -3.220505   -0.906119
 C    3.419499   -1.523483    0.192245
 C    0.173074    1.306199   -0.439037
 C   -1.095481    0.910388   -0.004617
 C   -2.198164    1.749698   -0.145713
 C   -3.568712    1.361171    0.324071
 C   -3.968060   -0.083607    0.365901
 C   -3.424996   -1.052002   -0.485665
 C   -3.878623   -2.366265   -0.427050
 C   -4.868733   -2.724603    0.482535
 C   -5.419200   -1.762565    1.328212
 C   -4.979135   -0.447867    1.261470
 C   -2.028759    3.020729   -0.703990
 C   -0.777143    3.421118   -1.148717
 C    0.315173    2.565188   -1.028272
 O   -4.358477    2.224390    0.666353
 H    6.283273    0.213842    2.125339
 H    5.449070   -0.076720   -0.852351
 H    2.689077    1.891799    0.255918
 H    0.648585   -1.551094    0.349652
 H    0.357175   -0.791496   -2.331286
 H    2.749628   -1.465368   -1.838157
 H    1.361592   -3.344153   -1.446314
 H    3.020531   -1.781925    1.181060
 H    4.318960   -2.124755    0.026324
 H   -1.218980   -0.061657    0.459238
 H   -2.651677   -0.789269   -1.200045
 H   -3.455132   -3.109618   -1.095419
 H   -5.215249   -3.752818    0.532158
 H   -6.194179   -2.039298    2.036502
 H   -5.407528    0.318003    1.899789
 H   -2.891304    3.673542   -0.788232
 H   -0.648404    4.397928   -1.604619
 H    1.285800    2.868711   -1.410750
