44 
3n87_ligand_ani.xyz
 O    4.502640    1.131426    2.170568
 C    4.702927    0.323638    1.301529
 O    5.859956   -0.365073    1.203254
 C    3.742138   -0.027446    0.158577
 O    4.356372    0.404262   -1.054878
 C    2.482054    0.770986    0.297750
 C    1.285114    0.353089   -0.148386
 C    1.055630   -1.108137   -0.453252
 O    0.059301   -1.348649   -1.440246
 C    2.351509   -1.783292   -0.909367
 O    2.134185   -3.170348   -1.045339
 C    3.449180   -1.537000    0.099735
 C    0.151810    1.295335   -0.305208
 C   -1.133306    0.918804    0.086961
 C   -2.229471    1.746140   -0.154883
 C   -3.634390    1.362762    0.204689
 C   -4.004731   -0.087677    0.306899
 C   -3.424211   -1.088385   -0.477834
 C   -3.820565   -2.413411   -0.327039
 C   -4.802617   -2.748090    0.601165
 C   -5.405157   -1.750083    1.364124
 C   -5.018810   -0.426135    1.205699
 C   -2.021124    3.007708   -0.718522
 C   -0.739720    3.406891   -1.079197
 C    0.344647    2.558373   -0.874770
 O   -4.467063    2.225254    0.421505
 H    6.425591   -0.046997    1.927113
 H    5.248217    0.028972   -1.062370
 H    2.606843    1.757435    0.733868
 H    0.711786   -1.627164    0.453863
 H    0.148793   -0.641832   -2.096709
 H    2.646952   -1.337538   -1.874293
 H    1.326841   -3.247502   -1.575151
 H    3.147090   -1.902619    1.088501
 H    4.353873   -2.077267   -0.193910
 H   -1.265935   -0.031130    0.600821
 H   -2.661284   -0.842425   -1.212700
 H   -3.347511   -3.184032   -0.929392
 H   -5.105336   -3.784453    0.724177
 H   -6.181854   -2.005819    2.080817
 H   -5.491485    0.369192    1.775924
 H   -2.876901    3.660645   -0.863578
 H   -0.581315    4.387981   -1.519553
 H    1.347064    2.865161   -1.168365
