40 
3n8n_ligand_dft.xyz
 C   -3.577172   -1.221187    0.366128
 C   -2.522752   -0.290194   -0.234712
 O   -4.040094   -1.143075    1.476063
 C   -2.630359    1.099488    0.389210
 O   -3.900866   -2.208615   -0.494076
 C   -1.504431    1.983677   -0.128361
 O   -1.488409    3.263456    0.496678
 C   -0.127679    1.392554    0.157150
 O    0.845353    2.255134   -0.411866
 C    0.009776   -0.018568   -0.425246
 C   -1.142308   -0.904601    0.061951
 C    1.342768   -0.722748   -0.089395
 N    2.451180    0.037165   -0.235314
 C    3.823709   -0.392870    0.070831
 C    3.949357   -0.740668    1.560684
 C    4.209180   -1.598728   -0.795677
 C    4.727089    0.797402   -0.266603
 O    1.355402   -1.901176    0.250591
 O   -2.733306   -0.133708   -1.626927
 H   -3.603488    1.537162    0.140938
 H   -2.570481    1.015608    1.478078
 H   -4.531471   -2.785746   -0.034708
 H   -1.594968    2.096737   -1.216867
 H   -2.231641    3.775565    0.158403
 H    0.004657    1.345483    1.251320
 H    0.597864    3.145955   -0.123886
 H   -0.048331    0.076841   -1.517618
 H   -1.048069   -1.070003    1.141355
 H   -1.059646   -1.889792   -0.404726
 H    2.297100    1.020167   -0.429626
 H    3.685441    0.124986    2.178346
 H    4.979017   -1.031724    1.796470
 H    3.283388   -1.568437    1.814168
 H    4.110103   -1.352058   -1.858167
 H    3.562570   -2.449347   -0.572409
 H    5.249863   -1.880630   -0.601116
 H    4.641701    1.063284   -1.326253
 H    5.772427    0.548525   -0.060367
 H    4.463324    1.675625    0.334816
 H   -2.765338   -1.015815   -2.020403
