96 
3nal_ligand_ani.xyz
 C   -2.354806    0.243775    1.342662
 C   -2.846112    1.716152    1.433421
 C   -4.109069    1.805774    0.547756
 O   -4.062713    2.900163   -0.390689
 C   -4.149024    0.497669   -0.202821
 O   -4.492287    4.318129    1.306952
 C   -3.252348   -0.377591    0.297709
 O   -4.425536   -2.463704   -0.143803
 C   -3.132521   -1.799501   -0.157057
 O   -2.633836   -2.568454    2.093164
 C   -2.284367   -2.715407    0.733398
 O   -0.451249   -2.329741   -0.768186
 C   -0.792876   -2.474383    0.626088
 O    1.476319   -3.438903   -0.382070
 C   -0.293386   -1.271587    1.425057
 O   -0.265621    1.056019    2.073152
 C   -0.825956    0.137592    1.076280
 O    1.882160    0.750614    1.402843
 C   -2.759098   -4.103905    0.239947
 O   -2.132591   -4.401537   -1.002737
 C   -4.237090   -3.806111   -0.050039
 O   -5.107588   -4.613012   -0.219930
 C   -4.263632    4.127308    0.133153
 C   -4.210093    5.239556   -0.865474
 C   -4.794375    6.531560   -0.352135
 C   -3.688439    5.127195   -2.091752
 C   -2.968563    3.980687   -2.742321
 C   -5.144492    0.300077   -1.305190
 C    0.769194   -2.783913   -1.114511
 C    1.183538   -2.367885   -2.507502
 C   -0.468798    0.621800   -0.327128
 C    1.056927    1.284982    2.111472
 C    1.388343    2.303818    3.174241
 C   -2.564417   -5.244359    1.223434
 C    2.656691   -1.943904   -2.522317
 C    2.927083   -0.695098   -1.682159
 C    4.398045   -0.282689   -1.647894
 C    4.637275    0.941625   -0.764279
 C    6.082808    1.447495   -0.773801
 C    7.105482    0.442375   -0.243319
 C    8.527678    1.000627   -0.214540
 C    9.553146   -0.005330    0.307364
 C   11.003636    0.482060    0.233132
 C   11.280408    1.721351    1.082717
 H   -2.522488   -0.254382    2.304429
 H   -3.062431    2.003907    2.462877
 H   -2.090487    2.404964    1.053571
 H   -5.014849    1.927684    1.153032
 H   -2.757529   -1.846551   -1.186754
 H   -3.583456   -2.391550    2.156193
 H   -0.267757   -3.362357    0.991253
 H    0.794231   -1.238836    1.314076
 H   -0.498980   -1.452759    2.482829
 H   -2.613419   -5.155265   -1.373990
 H   -4.250939    6.872443    0.534960
 H   -4.759669    7.317494   -1.114421
 H   -5.834363    6.388405   -0.040763
 H   -3.808056    6.005200   -2.732573
 H   -2.466350    3.339349   -2.015845
 H   -3.665898    3.361697   -3.318069
 H   -2.230260    4.361110   -3.455700
 H   -5.243501   -0.752435   -1.584500
 H   -4.848344    0.876586   -2.188464
 H   -6.131477    0.671214   -1.002589
 H    1.039492   -3.238531   -3.162925
 H    0.528915   -1.569209   -2.872838
 H   -1.028699    0.051892   -1.069746
 H    0.599742    0.500362   -0.510752
 H   -0.723156    1.680436   -0.436729
 H    0.863310    3.242478    2.969148
 H    2.465026    2.478065    3.190748
 H    1.057474    1.940243    4.152434
 H   -3.081647   -6.135738    0.855699
 H   -2.955493   -4.990747    2.210333
 H   -1.498513   -5.480672    1.309989
 H    3.249155   -2.780359   -2.135350
 H    2.973655   -1.766352   -3.557607
 H    2.329985    0.141233   -2.079878
 H    2.577265   -0.850221   -0.649668
 H    4.750245   -0.075476   -2.669850
 H    4.996412   -1.128573   -1.282347
 H    3.975797    1.753855   -1.097963
 H    4.330410    0.707224    0.264496
 H    6.361786    1.732010   -1.799968
 H    6.139620    2.365844   -0.173485
 H    6.815920    0.126763    0.770379
 H    7.092755   -0.465818   -0.862031
 H    8.813501    1.315643   -1.229465
 H    8.545797    1.908953    0.403820
 H    9.307029   -0.260303    1.349086
 H    9.461567   -0.937460   -0.267142
 H   11.668546   -0.331009    0.551071
 H   11.259328    0.693581   -0.814676
 H   11.011203    1.547004    2.131336
 H   12.340329    1.994489    1.050779
 H   10.708054    2.586978    0.732417
