74 
3nam_ligand_xtb.xyz
 C    0.908358    0.463921   -1.207550
 C    2.445962    0.380133   -1.095498
 C    2.802562   -1.021621   -0.577135
 O    3.714726   -0.978621    0.520323
 C    1.491206   -1.661768   -0.115951
 O    5.399409   -0.640169   -0.916899
 C    0.443891   -0.996931   -1.018074
 O   -1.368674   -2.565029   -0.875060
 C   -0.984496   -1.228041   -0.539128
 O   -1.658606   -0.068267   -2.515301
 C   -2.048848   -0.321561   -1.190725
 O   -2.438755    0.741834    0.965962
 C   -2.238509    0.997832   -0.418164
 O   -4.426951    1.789089    0.917079
 C   -1.091196    1.988087   -0.625699
 O    1.170347    2.744798   -0.428814
 C    0.341742    1.553325   -0.264859
 O    0.765311    3.075173   -2.625976
 C   -3.295325   -1.250689   -1.179630
 O   -3.919444   -1.200394    0.092190
 C   -2.631959   -2.640138   -1.275618
 O   -3.185888   -3.657312   -1.578874
 C    5.007492   -0.793222    0.215367
 C    5.908031   -0.836770    1.397003
 C    7.281497   -1.340966    1.060568
 C    5.580231   -0.435826    2.625688
 C    4.287799    0.131025    3.100269
 C    1.523617   -3.180174   -0.212440
 C   -3.597853    1.157170    1.511046
 C   -3.658776    0.756844    2.964508
 C   -5.084899    0.790006    3.509498
 C   -5.936525   -0.322416    2.911645
 C    0.492613    1.250712    1.223861
 C    1.319214    3.365867   -1.597521
 C    2.303535    4.499740   -1.457776
 C   -4.300035   -1.010470   -2.298690
 H    0.634947    0.778408   -2.216430
 H    2.831323    1.127362   -0.400990
 H    2.918956    0.560766   -2.059249
 H    3.266666   -1.612576   -1.375025
 H    1.323827   -1.375371    0.925134
 H    0.505123   -1.468640   -2.004013
 H   -1.068906   -1.135313    0.548897
 H   -2.242319    0.594287   -2.903354
 H   -3.156676    1.478417   -0.791997
 H   -1.089703    2.289207   -1.674027
 H   -1.320961    2.872523   -0.024510
 H   -4.638310   -1.845325    0.095566
 H    7.245306   -2.406978    0.837421
 H    7.972996   -1.175955    1.881716
 H    7.643230   -0.832823    0.168987
 H    6.342243   -0.513465    3.392969
 H    3.680060    0.492882    2.278106
 H    3.722448   -0.637782    3.627818
 H    4.474084    0.944806    3.799453
 H    2.329717   -3.571523    0.404267
 H    1.687933   -3.492871   -1.240888
 H    0.583849   -3.605524    0.125652
 H   -3.223656   -0.238137    3.061652
 H   -3.024847    1.456676    3.515555
 H   -5.053646    0.688434    4.595950
 H   -5.530753    1.755810    3.267609
 H   -6.946939   -0.284677    3.310974
 H   -5.509717   -1.296674    3.140663
 H   -5.985478   -0.209685    1.832400
 H    1.503433    0.920517    1.440843
 H    0.305317    2.163556    1.785096
 H   -0.215702    0.498346    1.544286
 H    2.053398    5.289385   -2.159699
 H    3.294771    4.121636   -1.701587
 H    2.310684    4.873152   -0.438894
 H   -3.807031   -1.019059   -3.266706
 H   -5.032768   -1.815417   -2.286910
 H   -4.810692   -0.061590   -2.143743
