142 
3nan_ligand_ani.xyz
 C   -1.682411   -0.298850    0.540568
 O   -3.856478    0.666187   -0.187689
 C   -3.175383   -0.555234    0.145509
 O   -4.545902   -0.194130   -2.169709
 C   -3.836443   -1.200484    1.386945
 O   -4.579880   -2.384954    1.065739
 C   -2.692853   -1.551184    2.300562
 O   -6.351945   -1.096338    0.572535
 C   -1.550435   -0.955917    1.894273
 O   -0.516890   -0.549587    4.048933
 C   -0.290341   -1.006819    2.689628
 O    0.343390    1.194751    2.100282
 C    0.855072   -0.111362    2.224011
 O    1.882788   -1.913899    0.939508
 C    1.532594   -0.518098    0.919980
 O    4.091319   -1.438758    1.100725
 C    0.733974   -0.189278   -0.339065
 O   -1.219862   -0.112084   -1.751202
 C   -0.680029   -0.771671   -0.556301
 O    0.243104   -1.041393   -3.208539
 C    1.730914   -0.166062    3.494348
 O    2.254819   -1.484903    3.648144
 C    0.624473   -0.013859    4.546859
 O    0.730935    0.428991    5.655307
 C   -4.543879    0.697508   -1.353013
 C   -5.251894    2.009335   -1.576975
 C   -4.478583    2.884467   -2.583431
 C   -3.047052    3.235036   -2.154152
 C   -2.917611    3.892975   -0.774383
 C   -3.745097    5.167463   -0.554264
 C   -3.549647    6.291704   -1.579290
 C   -2.134913    6.867427   -1.625331
 C   -5.861663   -2.198501    0.673161
 C   -6.550237   -3.493098    0.393140
 C   -5.723616   -4.750982    0.427746
 C   -7.861002   -3.501297    0.123247
 C   -8.790271   -2.323054    0.076153
 C   -2.934210   -2.412798    3.504880
 C    3.172070   -2.228313    1.180779
 C    3.320662   -3.685475    1.560982
 C    4.693410   -4.276850    1.197561
 C    4.653398   -5.227735   -0.010672
 C   -0.690420   -2.293408   -0.693609
 C   -0.780873   -0.429313   -2.974345
 C   -1.701165    0.099959   -4.035733
 C    2.839417    0.858715    3.591137
 C    0.741082    4.972324   -0.130658
 C    1.910607    5.471821    0.707584
 C    2.188550    6.939702    0.406853
 C    1.666655    5.271482    2.200769
 O    3.136697    4.799173    0.300826
 C    3.274954    3.472889    0.430461
 O    2.407229    2.690913    0.792513
 N    4.535170    3.093187    0.084593
 C    4.993810    1.755155    0.397897
 C    6.235098    1.364676   -0.400324
 C    6.112348    1.557925   -1.916395
 C    4.875647    0.907870   -2.548081
 C    4.748174   -0.579413   -2.233276
 C    3.658264   -1.280758   -3.039411
 C    3.465768   -2.739241   -2.668479
 C    4.168518   -3.339595   -1.621981
 C    3.954894   -4.660339   -1.229172
 C    3.053350   -5.423526   -1.971830
 C    2.370519   -4.870301   -3.047600
 C    2.548334   -3.527741   -3.379812
 O    1.848221   -3.037776   -4.446155
 H   -1.537400    0.782917    0.632925
 H   -3.262183   -1.226867   -0.709720
 H   -4.523127   -0.482277    1.845156
 H    0.074717   -2.040753    2.751278
 H    1.047436    1.743586    1.709689
 H    2.470189    0.045452    0.852658
 H    0.649645    0.899614   -0.416895
 H    1.347015   -0.512348   -1.183847
 H    2.753288   -1.487568    4.478437
 H   -6.238620    1.776491   -1.990968
 H   -5.393252    2.531723   -0.626595
 H   -5.054468    3.802441   -2.758243
 H   -4.442294    2.357536   -3.545503
 H   -2.432326    2.323592   -2.153249
 H   -2.604239    3.890214   -2.916818
 H   -1.854767    4.102017   -0.599047
 H   -3.197983    3.159096   -0.008787
 H   -4.810135    4.899346   -0.524723
 H   -3.511467    5.561192    0.445088
 H   -4.251031    7.100253   -1.337360
 H   -3.835647    5.938551   -2.578890
 H   -1.830040    7.230368   -0.635974
 H   -1.398835    6.120633   -1.945454
 H   -2.073837    7.708745   -2.323640
 H   -4.918729   -4.713583   -0.312993
 H   -6.344398   -5.628515    0.219714
 H   -5.251084   -4.882440    1.405882
 H   -8.306611   -4.479709   -0.076613
 H   -8.831844   -1.815858    1.044768
 H   -8.447962   -1.575405   -0.644442
 H   -9.801088   -2.642056   -0.193410
 H   -2.014105   -2.866715    3.888507
 H   -3.635416   -3.209012    3.237573
 H   -3.394399   -1.833487    4.315928
 H    3.153440   -3.719336    2.643433
 H    2.514485   -4.259808    1.091641
 H    5.088797   -4.837245    2.051186
 H    5.393868   -3.453811    1.020533
 H    5.681857   -5.524484   -0.263707
 H    4.136494   -6.151029    0.282768
 H   -1.695306   -2.651460   -0.938167
 H   -0.387144   -2.736327    0.256188
 H   -0.001869   -2.617395   -1.474338
 H   -2.735974   -0.154750   -3.787726
 H   -1.415028   -0.303907   -5.008256
 H   -1.622094    1.191826   -4.064417
 H    3.253356    0.855249    4.604138
 H    2.482991    1.867423    3.367964
 H    3.636203    0.587667    2.889222
 H    0.964332    5.083325   -1.197748
 H   -0.151994    5.560821    0.107269
 H    0.537860    3.919363    0.080971
 H    2.397138    7.080567   -0.658430
 H    3.050295    7.293595    0.981580
 H    1.320592    7.552283    0.671928
 H    1.418585    4.231850    2.424949
 H    2.555299    5.553149    2.773991
 H    0.828243    5.899485    2.518882
 H    5.211636    3.842106    0.068048
 H    4.165717    1.079410    0.169050
 H    5.194349    1.636623    1.474547
 H    6.460535    0.314290   -0.167254
 H    7.092407    1.944768   -0.034755
 H    7.013703    1.145681   -2.389638
 H    6.107438    2.629775   -2.148751
 H    4.922956    1.049421   -3.637024
 H    3.967796    1.430521   -2.208408
 H    4.531358   -0.711455   -1.167098
 H    5.707561   -1.080762   -2.428706
 H    3.880817   -1.208776   -4.114748
 H    2.705630   -0.742012   -2.916628
 H    4.890524   -2.753379   -1.060376
 H    2.878438   -6.463916   -1.703241
 H    1.671994   -5.458058   -3.638866
 H    1.446006   -2.187554   -4.201042
