142 
3nan_ligand_xtb.xyz
 C   -1.602676   -0.334231    0.575380
 O   -3.759242    0.588305   -0.154785
 C   -3.069067   -0.605357    0.180023
 O   -4.414719   -0.272799   -2.124113
 C   -3.734347   -1.274822    1.397710
 O   -4.407765   -2.469166    1.022953
 C   -2.604507   -1.550625    2.348170
 O   -6.305861   -1.303233    0.766559
 C   -1.465660   -1.018198    1.908992
 O   -0.345374   -0.768411    4.037649
 C   -0.165455   -1.053901    2.644012
 O    0.359994    1.218798    2.010617
 C    0.913720   -0.056500    2.177776
 O    1.974239   -1.886795    0.975209
 C    1.608951   -0.513192    0.882248
 O    4.156398   -1.361082    0.900705
 C    0.798153   -0.217178   -0.383480
 O   -1.229359   -0.239354   -1.716463
 C   -0.614886   -0.806985   -0.523139
 O    0.354811   -0.796458   -3.219646
 C    1.812963   -0.048829    3.446437
 O    2.568742   -1.251165    3.505441
 C    0.731960   -0.175604    4.543132
 O    0.859716    0.126286    5.694838
 C   -4.443408    0.608982   -1.303770
 C   -5.227787    1.887059   -1.450508
 C   -4.542935    2.820809   -2.455307
 C   -3.153451    3.276013   -2.007622
 C   -3.124209    4.046980   -0.685866
 C   -4.049229    5.264675   -0.620355
 C   -3.832517    6.308413   -1.717845
 C   -2.441224    6.930151   -1.695057
 C   -5.710107   -2.351838    0.689656
 C   -6.260280   -3.649030    0.241885
 C   -5.246235   -4.688334   -0.138452
 C   -7.573585   -3.893801    0.181360
 C   -8.694383   -2.984980    0.534385
 C   -2.876983   -2.295447    3.605391
 C    3.282749   -2.170997    1.070198
 C    3.491161   -3.614414    1.455994
 C    4.898093   -4.116136    1.113722
 C    4.910303   -5.059937   -0.097367
 C   -0.566416   -2.327635   -0.643361
 C   -0.728111   -0.339360   -2.936369
 C   -1.688603    0.219462   -3.951191
 C    2.695338    1.174150    3.628402
 C    0.850161    5.080919   -0.334311
 C    1.766392    5.397633    0.845499
 C    2.081822    6.893872    0.886880
 C    1.138378    4.952817    2.166631
 O    3.063970    4.779947    0.660986
 C    3.203975    3.451953    0.546883
 O    2.307788    2.627251    0.588979
 N    4.501759    3.150088    0.375611
 C    5.023758    1.806194    0.279033
 C    6.043234    1.658987   -0.845794
 C    5.487571    1.929456   -2.245415
 C    4.314442    1.037358   -2.661787
 C    4.569907   -0.453682   -2.435429
 C    3.555193   -1.311654   -3.193431
 C    3.407959   -2.730300   -2.696614
 C    4.237671   -3.272115   -1.729252
 C    4.056575   -4.555037   -1.227998
 C    3.044844   -5.338620   -1.759388
 C    2.229828   -4.841103   -2.756486
 C    2.386609   -3.539819   -3.217502
 O    1.533917   -3.126786   -4.194445
 H   -1.476388    0.745549    0.700008
 H   -3.134739   -1.278078   -0.682167
 H   -4.471883   -0.587040    1.836968
 H    0.275492   -2.060531    2.574555
 H    1.012208    1.768191    1.534430
 H    2.536293    0.069493    0.795495
 H    0.730069    0.868409   -0.480494
 H    1.390707   -0.593103   -1.218752
 H    3.124628   -1.207034    4.293408
 H   -6.218539    1.624126   -1.823827
 H   -5.322673    2.362821   -0.477205
 H   -5.183901    3.688194   -2.617895
 H   -4.450247    2.293737   -3.407765
 H   -2.512627    2.398203   -1.896041
 H   -2.726234    3.897071   -2.798513
 H   -2.096600    4.366075   -0.505944
 H   -3.390378    3.368754    0.126735
 H   -5.088388    4.932618   -0.660473
 H   -3.903669    5.745880    0.350561
 H   -4.573955    7.099937   -1.582153
 H   -4.010976    5.861611   -2.697127
 H   -2.218150    7.326938   -0.706375
 H   -1.682876    6.196791   -1.956146
 H   -2.381041    7.746894   -2.411051
 H   -4.603752   -4.311496   -0.932314
 H   -5.738473   -5.593847   -0.483000
 H   -4.611686   -4.929054    0.712339
 H   -7.881374   -4.877694   -0.156569
 H   -8.338380   -2.058714    0.970467
 H   -9.263289   -2.749874   -0.365387
 H   -9.370825   -3.486680    1.226193
 H   -1.954878   -2.580611    4.099494
 H   -3.467383   -3.182395    3.380132
 H   -3.453727   -1.671501    4.287369
 H    3.318834   -3.640929    2.534657
 H    2.717897   -4.218007    0.981630
 H    5.328260   -4.641693    1.967483
 H    5.525484   -3.245613    0.915849
 H    5.943502   -5.183482   -0.433676
 H    4.543778   -6.042346    0.208655
 H   -1.567249   -2.744433   -0.717257
 H   -0.073476   -2.743936    0.227980
 H   -0.001229   -2.612572   -1.527820
 H   -2.708421   -0.017824   -3.659464
 H   -1.460944   -0.192228   -4.929978
 H   -1.578669    1.301613   -3.987824
 H    3.115811    1.159668    4.632772
 H    2.110574    2.081916    3.516456
 H    3.498524    1.161031    2.894888
 H    1.323304    5.379296   -1.267681
 H   -0.079765    5.629217   -0.218788
 H    0.633520    4.016867   -0.373986
 H    2.577068    7.195462   -0.032214
 H    2.741030    7.112594    1.722465
 H    1.165008    7.464244    0.998846
 H    0.813073    3.917644    2.116909
 H    1.857850    5.061436    2.975621
 H    0.274374    5.574777    2.382930
 H    5.156929    3.916320    0.374789
 H    4.178680    1.140120    0.114563
 H    5.499789    1.525696    1.226886
 H    6.436948    0.644259   -0.797082
 H    6.874543    2.345795   -0.663262
 H    6.304708    1.791108   -2.957669
 H    5.169331    2.972987   -2.310558
 H    4.120558    1.215144   -3.722941
 H    3.415874    1.332811   -2.115725
 H    4.496158   -0.660643   -1.368438
 H    5.580135   -0.706899   -2.764670
 H    3.822424   -1.333984   -4.255835
 H    2.579634   -0.821646   -3.125668
 H    5.052800   -2.685380   -1.339635
 H    2.888203   -6.343767   -1.393905
 H    1.443663   -5.442203   -3.186417
 H    1.414870   -2.166700   -4.157227
