43 
3ncg_ligand_ani.xyz
 N   -1.429044    3.127808   -0.233215
 C   -2.739482    2.943993    0.003776
 N   -3.431972    1.819448    0.040564
 C   -2.660260    0.744347   -0.198463
 C   -1.288182    0.766021   -0.470795
 C   -0.681395    2.045758   -0.463628
 C   -4.239964   -1.778627    1.524134
 C   -4.811525   -2.114978   -0.911235
 N    0.639273    2.221688   -0.732779
 C    5.586632   -0.242901   -0.745079
 C    4.716673   -0.762783   -1.724040
 C    1.945214   -0.137559    2.457295
 C    1.044565   -0.561117    1.457126
 C    5.110522    0.038479    0.507305
 C    3.263417    0.073515    2.154265
 C    3.389790   -0.966865   -1.435295
 C    0.443181   -1.153858   -0.911864
 N   -1.980476   -1.377550   -0.485290
 C    1.455037   -0.771565    0.159408
 C   -0.928028   -0.601360   -0.644138
 C    3.746074   -0.171357    0.840444
 C    2.851294   -0.648836   -0.157864
 C   -4.328441   -1.126770    0.146048
 N   -3.032911   -0.564716   -0.228031
 H   -3.305021    3.855439    0.190162
 H   -5.216482   -2.178897    1.817339
 H   -3.513799   -2.599345    1.507121
 H   -3.925878   -1.049355    2.276124
 H   -4.901581   -1.631941   -1.887911
 H   -4.109997   -2.951536   -0.998272
 H   -5.794215   -2.509261   -0.630776
 H    0.989137    3.152200   -0.554694
 H    1.275467    1.454501   -0.554778
 H    6.633904   -0.077721   -0.985721
 H    5.096190   -0.997857   -2.714398
 H    1.580567    0.030619    3.467793
 H   -0.005877   -0.690802    1.708764
 H    5.774427    0.425072    1.277144
 H    3.961387    0.419022    2.913285
 H    2.740959   -1.388646   -2.197577
 H    0.346588   -2.242981   -0.991745
 H    0.777165   -0.774672   -1.886532
 H   -5.007765   -0.271817    0.191545
