43 
3ncg_ligand_dft.xyz
 N   -1.958343    3.104859   -0.503060
 C   -3.230514    2.753371   -0.247810
 N   -3.738763    1.548035   -0.045840
 C   -2.800314    0.590457   -0.146418
 C   -1.442070    0.786808   -0.427432
 C   -1.044509    2.133409   -0.587672
 C   -4.097192   -2.197822    1.614158
 C   -4.589755   -2.373429   -0.872410
 N    0.237159    2.493714   -0.855787
 C    5.712673   -0.631978   -0.789655
 C    4.744336   -1.127138   -1.690397
 C    2.212372    0.552802    2.344217
 C    1.234668    0.077602    1.439503
 C    5.318707   -0.099772    0.409960
 C    3.537892    0.504888    2.013425
 C    3.409595   -1.072588   -1.377577
 C    0.521270   -0.941586   -0.758297
 N   -1.814806   -1.420148   -0.192244
 C    1.578167   -0.441774    0.213124
 C   -0.881919   -0.525297   -0.447782
 C    3.946675   -0.033508    0.764857
 C    2.964802   -0.519650   -0.146161
 C   -4.219180   -1.451521    0.287321
 N   -2.978316   -0.743866   -0.007734
 H   -3.932573    3.582529   -0.192109
 H   -5.042437   -2.694884    1.853804
 H   -3.309736   -2.954970    1.552796
 H   -3.852965   -1.506514    2.426230
 H   -4.687959   -1.805199   -1.802063
 H   -3.819088   -3.137578   -1.011021
 H   -5.542756   -2.870947   -0.666778
 H    0.429695    3.482724   -0.790821
 H    0.982902    1.868367   -0.584180
 H    6.765922   -0.678659   -1.049020
 H    5.060005   -1.556327   -2.636564
 H    1.897832    0.957977    3.301069
 H    0.188035    0.129325    1.723268
 H    6.055961    0.278344    1.113607
 H    4.295919    0.872903    2.699826
 H    2.686964   -1.470139   -2.082068
 H    0.545131   -2.036571   -0.805349
 H    0.762508   -0.580841   -1.766547
 H   -4.966088   -0.657352    0.378856
