48 
3nee_ligand_xtb.xyz
 O    6.125618   -2.129990   -0.449589
 C    5.232746   -1.374444    0.222049
 O    4.323899   -1.864345    0.815088
 C    5.517386    0.130375    0.147164
 O    4.561519    0.906373    0.804161
 C    3.281161    0.948829    0.302607
 C    2.864939    0.361587   -0.880002
 C    1.547184    0.486987   -1.304127
 C    1.130666   -0.198642   -2.573285
 C    0.635320    1.222178   -0.547799
 C    1.051090    1.800250    0.656462
 C    2.365549    1.664596    1.064507
 C    0.085744    2.552241    1.523381
 C   -0.797741    1.355160   -0.984342
 C   -1.712284    0.333481   -0.346333
 C   -3.088563    0.488286   -0.458712
 C   -3.984565   -0.415803    0.086814
 C   -5.476998   -0.234301   -0.052201
 C   -5.930311    1.093586    0.556504
 C   -5.895095   -0.330613   -1.520882
 C   -3.470902   -1.520726    0.772979
 O   -4.340131   -2.424635    1.319115
 C   -2.098583   -1.686056    0.891691
 C   -1.224502   -0.769345    0.336585
 H    6.825782   -1.615777   -0.872050
 H    5.631728    0.431495   -0.907753
 H    6.459665    0.328386    0.672543
 H    3.541683   -0.226007   -1.482088
 H    0.870252    0.529848   -3.341625
 H    1.938475   -0.818179   -2.954637
 H    0.264150   -0.833848   -2.398491
 H    2.704914    2.101812    1.990219
 H   -0.249741    3.463987    1.028879
 H   -0.790366    1.941937    1.736360
 H    0.556163    2.828581    2.463050
 H   -0.870423    1.251176   -2.069199
 H   -1.166717    2.353507   -0.738096
 H   -3.471282    1.346319   -0.992588
 H   -5.960484   -1.046643    0.496735
 H   -5.615499    1.160510    1.595527
 H   -5.507514    1.935990    0.014297
 H   -7.014719    1.171701    0.518172
 H   -5.442428    0.467066   -2.105414
 H   -5.582112   -1.283998   -1.940598
 H   -6.976500   -0.251889   -1.609858
 H   -3.835773   -3.120007    1.757282
 H   -1.709144   -2.543670    1.425528
 H   -0.160809   -0.917282    0.445235
