48 
3nee_ligand_ani.xyz
 O    7.020883   -1.537202   -0.469924
 C    5.845858   -1.162358    0.081487
 O    5.088841   -1.971103    0.535979
 C    5.599585    0.351693    0.019310
 O    4.543523    0.789130    0.831878
 C    3.268180    0.799289    0.326430
 C    2.816200   -0.065304   -0.663422
 C    1.494530    0.019091   -1.107978
 C    0.998570   -0.972344   -2.132311
 C    0.633780    0.992775   -0.584907
 C    1.070604    1.800384    0.480171
 C    2.387914    1.708746    0.912603
 C    0.119577    2.750973    1.166073
 C   -0.791623    1.103071   -1.076992
 C   -1.808094    0.292387   -0.280817
 C   -3.170218    0.481134   -0.544754
 C   -4.177809   -0.197301    0.136219
 C   -5.656333   -0.047124   -0.187574
 C   -5.983579    1.272593   -0.884565
 C   -6.158046   -1.229629   -1.027913
 C   -3.788276   -1.103484    1.132157
 O   -4.776718   -1.757905    1.816497
 C   -2.443177   -1.316258    1.414043
 C   -1.462820   -0.627337    0.708375
 H    7.492216   -0.764196   -0.809290
 H    5.436003    0.640870   -1.031767
 H    6.495074    0.872242    0.376752
 H    3.460411   -0.844623   -1.060051
 H    0.733390   -0.483082   -3.076963
 H    1.763449   -1.723477   -2.344809
 H    0.100142   -1.486987   -1.768315
 H    2.751848    2.342239    1.717938
 H   -0.210403    3.546924    0.489004
 H   -0.777836    2.222744    1.508703
 H    0.595384    3.219919    2.030306
 H   -0.847485    0.809728   -2.133997
 H   -1.102583    2.156846   -1.061583
 H   -3.449770    1.200270   -1.311207
 H   -6.189638   -0.068951    0.769960
 H   -5.591504    2.128458   -0.324202
 H   -5.570426    1.303977   -1.899838
 H   -7.068828    1.393272   -0.972210
 H   -5.617381   -1.278357   -1.980510
 H   -6.011562   -2.176774   -0.502969
 H   -7.226053   -1.116476   -1.244359
 H   -4.369073   -2.347418    2.462340
 H   -2.159831   -2.026419    2.189921
 H   -0.416698   -0.810077    0.947874
