48 
3nes_ligand_ani.xyz
 O   -6.688642   -2.164429    0.208749
 C   -5.842901   -1.178903   -0.163528
 O   -5.646517   -0.935237   -1.319330
 C   -5.165705   -0.474106    1.020120
 O   -4.572595    0.751608    0.685274
 C   -3.273174    0.775673    0.247133
 C   -2.650603   -0.276039   -0.412841
 C   -1.325234   -0.144328   -0.838230
 C   -0.667475   -1.312775   -1.534008
 C   -0.628667    1.053233   -0.624743
 C   -1.265044    2.112616    0.048921
 C   -2.580586    1.966061    0.468093
 C   -0.533182    3.401915    0.338609
 C    0.814249    1.167368   -1.066647
 C    1.823859    0.439526   -0.184878
 C    3.092560    0.164741   -0.706296
 C    4.090332   -0.479186    0.020777
 C    5.495182   -0.714786   -0.512315
 C    5.558771   -0.714705   -2.038931
 C    6.480999    0.313692    0.059296
 C    3.781966   -0.873797    1.330217
 O    4.755396   -1.519717    2.042932
 C    2.525164   -0.625284    1.872064
 C    1.556039    0.028917    1.119544
 H   -6.712412   -2.238808    1.172486
 H   -4.428122   -1.161292    1.466515
 H   -5.920492   -0.249157    1.781760
 H   -3.190508   -1.190681   -0.640502
 H   -1.325147   -2.185044   -1.516793
 H   -0.441049   -1.082372   -2.582187
 H    0.279189   -1.584286   -1.052772
 H   -3.090117    2.776007    0.984343
 H    0.399699    3.210072    0.881084
 H   -0.274039    3.933463   -0.584319
 H   -1.150957    4.068178    0.946530
 H    1.104592    2.222192   -1.153999
 H    0.906910    0.761995   -2.084410
 H    3.302643    0.464285   -1.730090
 H    5.803136   -1.705064   -0.156972
 H    4.826385   -1.406701   -2.468861
 H    5.371535    0.285509   -2.447634
 H    6.554800   -1.022017   -2.375664
 H    6.186112    1.328706   -0.232148
 H    6.511998    0.266741    1.150578
 H    7.490417    0.126247   -0.323180
 H    4.417553   -1.713368    2.925671
 H    2.303132   -0.945672    2.889327
 H    0.574294    0.204268    1.556087
