48 
3nes_ligand_dft.xyz
 O   -6.502704   -2.043522    0.681270
 C   -5.848322   -0.979802    0.159625
 O   -5.804097   -0.797122   -1.020958
 C   -5.214436   -0.061271    1.209763
 O   -4.506034    0.998690    0.656187
 C   -3.258132    0.760398    0.142337
 C   -2.669363   -0.493600    0.036216
 C   -1.379516   -0.619437   -0.484590
 C   -0.758031   -1.991515   -0.580192
 C   -0.677328    0.515372   -0.911915
 C   -1.275696    1.782546   -0.789038
 C   -2.558626    1.891831   -0.264457
 C   -0.541800    3.035999   -1.203379
 C    0.726282    0.371874   -1.456049
 C    1.812548    0.282242   -0.393697
 C    3.049405   -0.286661   -0.716173
 C    4.102086   -0.373941    0.188785
 C    5.456254   -0.964383   -0.164133
 C    5.413196   -1.944775   -1.338228
 C    6.472002    0.157575   -0.433244
 C    3.888832    0.140059    1.478330
 O    4.925098    0.055288    2.365276
 C    2.666087    0.701406    1.827225
 C    1.633421    0.771225    0.895789
 H   -6.441211   -2.048632    1.646469
 H   -4.592148   -0.655897    1.897278
 H   -6.021853    0.389021    1.798725
 H   -3.197446   -1.394786    0.329278
 H   -1.388825   -2.745154   -0.100682
 H   -0.619518   -2.294594   -1.625086
 H    0.226751   -2.015636   -0.100853
 H   -3.037113    2.860669   -0.159840
 H    0.446362    3.096169   -0.733460
 H   -0.390626    3.072713   -2.288736
 H   -1.104739    3.929069   -0.919071
 H    0.954133    1.213801   -2.119579
 H    0.787472   -0.519495   -2.090965
 H    3.186714   -0.682524   -1.719477
 H    5.803630   -1.515181    0.718116
 H    4.658042   -2.723410   -1.187262
 H    5.194748   -1.435519   -2.284270
 H    6.387334   -2.431941   -1.451509
 H    6.164114    0.751232   -1.302019
 H    6.554427    0.825443    0.428682
 H    7.463780   -0.260767   -0.639748
 H    4.642329    0.423147    3.210567
 H    2.513584    1.084788    2.834643
 H    0.678779    1.199966    1.186746
