52 
3nex_ligand_ani.xyz
 C   -6.495388   -0.985699    0.134710
 C   -7.561107   -0.132118    0.406677
 C   -7.523141    1.188596   -0.027025
 C   -6.412714    1.652539   -0.727284
 C   -5.349346    0.797193   -0.991406
 C   -5.382549   -0.533329   -0.572668
 C   -4.208572   -1.445628   -0.882338
 C   -2.929774   -0.982606   -0.220248
 C   -1.918533   -0.336630   -0.924294
 C   -2.781224   -1.135511    1.159485
 O   -3.767909   -1.802142    1.828955
 C   -1.650085   -0.640308    1.801615
 C   -0.661797    0.012931    1.074115
 C   -0.777991    0.182743   -0.305873
 C    0.259315    0.919646   -1.145490
 C    1.667608    0.865971   -0.594164
 C    2.457061   -0.270200   -0.815981
 C    1.912343   -1.454946   -1.574453
 C    3.764460   -0.321855   -0.323754
 C    2.162872    1.909527    0.207207
 C    1.289532    3.090872    0.560745
 C    3.464064    1.846944    0.692184
 C    4.264344    0.739515    0.422164
 O    5.557512    0.782668    0.904861
 C    6.206213   -0.454333    1.136405
 C    6.893633   -0.999179   -0.121459
 O    7.190122   -0.074642   -1.047427
 O    7.165719   -2.159992   -0.257441
 H   -6.526647   -2.017103    0.480900
 H   -8.424543   -0.500803    0.955990
 H   -8.355334    1.857133    0.179811
 H   -6.375921    2.684203   -1.068687
 H   -4.482405    1.167242   -1.538034
 H   -4.047365   -1.478218   -1.967586
 H   -4.448053   -2.464764   -0.565352
 H   -2.028331   -0.224999   -2.002526
 H   -3.562245   -1.807071    2.771490
 H   -1.537733   -0.769478    2.877664
 H    0.219153    0.380485    1.596800
 H   -0.054177    1.964122   -1.276798
 H    0.247377    0.486708   -2.154548
 H    0.962729   -1.799791   -1.147664
 H    1.721801   -1.209828   -2.626864
 H    2.623514   -2.284772   -1.548948
 H    4.379672   -1.192413   -0.537882
 H    1.058524    3.697776   -0.322686
 H    0.333435    2.758970    0.983724
 H    1.783816    3.735344    1.291769
 H    3.870667    2.655219    1.294306
 H    5.516732   -1.209712    1.523023
 H    6.969759   -0.264549    1.897691
 H    6.856671    0.784338   -0.740413
