36 
3nf6_ligand_dft.xyz
 O    1.712492   -0.893555   -2.968443
 C    1.630071   -1.260011   -1.671206
 O    1.521317   -2.417512   -1.368247
 C    1.667164   -0.126242   -0.685687
 C    0.655522    0.858527   -0.604046
 C   -0.584070    0.798685   -1.482398
 N   -1.805230    0.723825   -0.712654
 C   -2.635948    1.811843   -0.528464
 O   -2.437209    2.922984   -0.978547
 C   -3.805084    1.345055    0.337503
 C   -3.464911   -0.087756    0.637964
 C   -4.111689   -1.048011    1.393126
 C   -3.543659   -2.321379    1.501096
 C   -2.344244   -2.612754    0.858695
 C   -1.677935   -1.653551    0.091628
 C   -2.262228   -0.400959   -0.005861
 C    0.753578    1.880568    0.336915
 C    1.826642    1.971735    1.232201
 C    2.786668    0.989206    1.151591
 O    3.937522    0.856311    1.871600
 C    4.465375   -0.414746    1.508522
 O    3.803172   -0.834640    0.319418
 C    2.704937   -0.037191    0.220457
 H    1.875990    0.058530   -3.024070
 H   -0.550036   -0.052704   -2.169371
 H   -0.669014    1.710981   -2.080496
 H   -4.738788    1.467113   -0.222271
 H   -3.873426    1.980120    1.226729
 H   -5.046430   -0.817288    1.896592
 H   -4.040281   -3.084873    2.091424
 H   -1.908660   -3.602723    0.952318
 H   -0.738232   -1.895515   -0.393177
 H   -0.034914    2.626374    0.375888
 H    1.900287    2.776580    1.954100
 H    4.265891   -1.138106    2.309615
 H    5.534750   -0.322089    1.312829
