36 
3nf7_ligand_ani.xyz
 C    4.200549   -1.117229    0.427092
 C    2.987587   -1.471654    1.016844
 C    1.867462   -0.666813    0.842237
 C    2.001942    0.487238    0.080304
 C    3.210161    0.826638   -0.531521
 C    4.327272    0.028873   -0.353403
 C    3.003705    2.087951   -1.325193
 C    1.539579    2.430273   -1.057088
 O    0.917798    3.391206   -1.455658
 N    1.028051    1.432632   -0.242252
 C   -0.308044    1.498656    0.310673
 C   -1.259169    0.406367   -0.170011
 C   -0.924753   -0.458397   -1.209170
 C   -1.824929   -1.412304   -1.706487
 C   -3.068485   -1.457021   -1.128350
 C   -3.424916   -0.600807   -0.097751
 C   -2.539374    0.319690    0.423230
 C   -2.992578    1.195401    1.562627
 O   -3.907264    1.966740    1.500691
 O   -2.275504    1.075309    2.708679
 O   -4.719396   -0.825318    0.272090
 C   -5.108311   -2.000432   -0.440624
 O   -4.135644   -2.253942   -1.447157
Cl    5.591269   -2.142398    0.665230
 H    2.924153   -2.379692    1.608513
 H    0.906123   -0.947492    1.264369
 H    5.282068    0.277093   -0.807853
 H    3.159125    1.959066   -2.401870
 H    3.640038    2.919893   -1.006820
 H   -0.694490    2.479841    0.017384
 H   -0.244816    1.498667    1.404974
 H    0.061479   -0.390448   -1.656737
 H   -1.555139   -2.079503   -2.518212
 H   -1.667495    0.324861    2.648723
 H   -6.079059   -1.831517   -0.910925
 H   -5.146035   -2.848977    0.255693
