39 
3nf8_ligand_xtb.xyz
 C   -3.779148   -1.416952   -0.497963
 C   -2.707300   -1.766471    0.307633
 C   -1.811748   -0.801669    0.746076
 C   -2.021428    0.507573    0.353273
 C   -3.111930    0.856454   -0.454545
 C   -4.001255   -0.099654   -0.887849
 C   -3.070232    2.330544   -0.687148
 C   -1.816935    2.758729    0.062705
 O   -1.349266    3.870145    0.145363
 N   -1.282164    1.641787    0.649139
 C   -0.066980    1.662587    1.434111
 C    1.103454    1.191768    0.601981
 C    1.425323    1.971786   -0.504646
 C    2.464800    1.635602   -1.341680
 C    3.193818    0.475969   -1.110007
 C    2.840222   -0.359269   -0.048668
 C    1.812267    0.006602    0.840268
 C    1.499388   -0.841049    2.037620
 O    1.059133   -0.388813    3.063057
 O    1.689515   -2.158743    1.923289
 O    3.499869   -1.557380    0.150273
 C    4.303887   -1.971102   -0.936083
 C    5.114946   -0.790746   -1.456978
 O    4.240960    0.200733   -1.945556
Cl   -4.873664   -2.645674   -1.031305
 H   -2.571186   -2.796088    0.597493
 H   -0.990418   -1.077106    1.385650
 H   -4.845817    0.154784   -1.508174
 H   -3.941793    2.849161   -0.283895
 H   -2.989636    2.598758   -1.741763
 H   -0.198703    1.063040    2.333488
 H    0.097460    2.706289    1.719687
 H    0.864548    2.875403   -0.686241
 H    2.743607    2.255945   -2.177501
 H    2.214448   -2.386613    1.138990
 H    3.667351   -2.359349   -1.742308
 H    4.945216   -2.765631   -0.553554
 H    5.754042   -1.082277   -2.290993
 H    5.729718   -0.384114   -0.642668
