36 
3nf9_ligand_ani.xyz
 C   -4.750747   -0.605452   -0.530489
 C   -3.845873   -1.217371    0.335136
 C   -2.618222   -0.648393    0.651140
 C   -2.331503    0.576570    0.061363
 C   -3.208330    1.208103   -0.825079
 C   -4.424233    0.617591   -1.116053
 C   -2.560806    2.475431   -1.313175
 C   -1.210781    2.472321   -0.597536
 O   -0.317290    3.284615   -0.685409
 N   -1.173312    1.338031    0.196272
 C    0.009452    0.964845    0.939638
 C    1.054407    0.189207    0.133149
 C    0.710128   -0.436486   -1.061720
 C    1.648753   -1.117122   -1.848108
 C    2.943661   -1.131860   -1.397424
 C    3.311140   -0.518210   -0.208740
 C    2.389447    0.113971    0.601957
 C    2.855193    0.717009    1.902186
 O    3.794614    1.454538    2.008682
 O    2.117949    0.388777    2.990622
 O    4.637884   -0.725332    0.029069
 C    5.142789   -1.310337   -1.170163
 O    4.037098   -1.737666   -1.955383
Cl   -4.264552   -2.751274    1.047215
 H   -5.699259   -1.086730   -0.745802
 H   -1.930525   -1.159439    1.318216
 H   -5.122193    1.096641   -1.797540
 H   -3.114388    3.384337   -1.054133
 H   -2.398128    2.499080   -2.396248
 H   -0.325206    0.391152    1.809849
 H    0.449432    1.891366    1.313542
 H   -0.318195   -0.397323   -1.404120
 H    1.366310   -1.605370   -2.774704
 H    1.474731   -0.296347    2.760001
 H    5.761544   -2.173475   -0.917485
 H    5.717549   -0.556807   -1.725268
