79 
3nfl_ligand_ani.xyz
 N    2.064202   -2.126611    0.838905
 C    2.014387   -0.732571    1.368878
 C    2.664862    0.237225    0.367161
 O    3.498848    1.088705    0.662133
 C    2.531844   -0.669449    2.814234
 C    2.171535    0.676310    3.461732
 C    4.024132   -0.989834    2.933184
 C    2.269678    0.670616    4.986589
 N    2.179688    0.082012   -0.895013
 C    2.428113    1.105314   -1.910631
 C    1.379805    2.216266   -1.693386
 O    0.408724    2.346945   -2.435979
 C    2.377369    0.538396   -3.335319
 C    1.507100   -0.721331   -3.485725
 C    2.149465   -1.937328   -2.852787
 O    1.675658   -2.622817   -1.967234
 O    3.356380   -2.202669   -3.371454
 N    1.594322    2.974627   -0.590346
 C    0.538222    3.725864    0.090696
 C   -0.535289    2.795855    0.689586
 O   -0.607044    2.606063    1.894673
 C   -0.057115    4.836189   -0.771048
 O   -1.003844    5.495546    0.049642
 N   -1.376211    2.214197   -0.211280
 C   -2.295720    1.183058    0.198555
 C   -1.691658   -0.227337   -0.036877
 O   -0.616454   -0.388113   -0.609455
 C   -3.642532    1.387198   -0.524837
 C   -4.855764    0.870992    0.213864
 O   -5.993689    1.273754   -0.366323
 O   -4.853781    0.179257    1.211898
 N   -2.463808   -1.231835    0.420290
 C   -2.205762   -2.663116    0.357910
 C   -1.412064   -3.085137    1.590859
 O   -1.941932   -4.158912    2.193138
 C   -1.532070   -3.171417   -0.938235
 C   -2.327142   -2.737288   -2.168840
 C   -1.398724   -4.696699   -0.892856
 O   -0.394124   -2.557159    1.987270
 H    1.998675   -2.193452   -0.192962
 H    2.937721   -2.591846    1.135372
 H    1.250188   -2.615141    1.248419
 H    0.954545   -0.457566    1.388396
 H    1.957253   -1.452504    3.334964
 H    2.825176    1.451802    3.045142
 H    1.146864    0.949194    3.170803
 H    4.352183   -0.940249    3.976881
 H    4.267128   -1.998448    2.576556
 H    4.609207   -0.272454    2.351060
 H    1.959931    1.637954    5.395152
 H    3.291078    0.479920    5.334205
 H    1.619039   -0.097632    5.420901
 H    1.261143   -0.358111   -0.944324
 H    3.422052    1.516629   -1.700056
 H    3.391278    0.291327   -3.661448
 H    1.995941    1.317182   -3.999580
 H    0.510852   -0.588464   -3.056303
 H    1.383292   -0.940525   -4.552205
 H    3.693896   -2.983284   -2.900225
 H    2.381445    2.693917   -0.013056
 H    1.006755    4.198182    0.954264
 H   -0.509941    4.414178   -1.674324
 H    0.753668    5.510451   -1.082517
 H   -1.576688    6.025957   -0.515009
 H   -1.094543    2.233948   -1.190030
 H   -2.449587    1.310141    1.277057
 H   -3.634812    0.930982   -1.522424
 H   -3.790716    2.460416   -0.672390
 H   -6.720965    0.907423    0.165551
 H   -3.276768   -0.954325    0.962708
 H   -3.180395   -3.156044    0.435246
 H   -1.363287   -4.371043    2.946032
 H   -0.526912   -2.741163   -1.006035
 H   -1.879729   -3.162759   -3.074001
 H   -2.332375   -1.648903   -2.281571
 H   -3.367650   -3.082811   -2.115246
 H   -0.748501   -5.027905   -0.077552
 H   -2.378123   -5.170635   -0.756569
 H   -0.971635   -5.066516   -1.831482
