45 
3ng4_ligand_xtb.xyz
 C    0.938138   -0.539601   -1.168835
 C    1.749061   -1.809221   -0.853716
 C    2.517832   -1.584356    0.446037
 C    3.396876   -0.334921    0.308997
 C    2.511165    0.856728   -0.085879
 C    3.327228    2.116883   -0.385933
 O   -0.018661   -0.380793   -0.167385
 O    0.860489   -2.892487   -0.751252
 O    3.283817   -2.735085    0.710873
 O    4.046604   -0.146473    1.540207
 O    1.780308    0.575570   -1.273136
 O    4.018752    2.509965    0.781490
 C   -3.990885    0.645664    0.357756
 C   -3.722403   -0.791688   -0.126755
 C   -2.249184   -1.138647    0.108682
 C   -1.352189   -0.074709   -0.539380
 C   -1.753679    1.321942   -0.040545
 C   -1.016417    2.434695   -0.790747
 O   -3.861067    0.715758    1.747204
 O   -4.562238   -1.651785    0.602034
 O   -2.017883   -2.419869   -0.417986
 O   -3.141330    1.554366   -0.263310
 O   -1.187791    3.680796   -0.176356
 H    0.468849   -0.635877   -2.157057
 H    2.468587   -1.982061   -1.668567
 H    1.796255   -1.413773    1.260117
 H    4.137888   -0.510447   -0.491111
 H    1.819278    1.061655    0.743711
 H    4.030226    1.898924   -1.201138
 H    2.635254    2.897393   -0.720449
 H    1.339145   -3.600575   -0.299164
 H    3.916353   -2.495226    1.399468
 H    4.302259    0.785470    1.603788
 H    4.400821    3.382497    0.642042
 H   -5.003810    0.953383    0.050530
 H   -3.934238   -0.858630   -1.203905
 H   -2.047326   -1.130548    1.192746
 H   -1.469260   -0.121273   -1.630633
 H   -1.535361    1.389471    1.033767
 H    0.054950    2.230336   -0.803825
 H   -1.391361    2.454847   -1.824591
 H   -4.280898   -0.079716    2.102543
 H   -4.256834   -2.551500    0.427662
 H   -1.057639   -2.571123   -0.463226
 H   -2.134395    3.800464   -0.029873
