37 
3nga_ligand_xtb.xyz
 C   -1.276878   -0.253122   -0.025753
 C   -2.325432    0.697933   -0.017000
 C   -3.648229    0.238481   -0.027821
 C   -3.930660   -1.105841   -0.026671
 C   -2.892263   -2.050607   -0.030266
 C   -1.581348   -1.621416   -0.043883
 C   -0.576626    2.431714   -0.016980
 C   -1.948583    2.088119   -0.012504
 N    0.032555    0.093772   -0.016633
 C    0.393222    1.342967   -0.010404
 C   -1.254690    4.731211   -0.026036
 N   -2.546201    4.413902   -0.012151
 C   -2.874893    3.147163   -0.006362
 C   -0.246169    3.794135   -0.026861
 N    1.715557    1.661878    0.007846
 C    2.838358    0.844119    0.022022
 C    2.773329   -0.546211   -0.002665
 C    3.948083   -1.277337    0.015754
 C    5.189807   -0.663585    0.056784
 C    5.244877    0.719823    0.079274
 C    4.086368    1.470460    0.062325
Cl    3.853231   -3.001815   -0.012864
 C   -3.148776   -3.521228   -0.046376
 O   -2.377309   -4.315789   -0.505246
 O   -4.310123   -3.927791    0.502429
 H   -4.464693    0.943492   -0.040341
 H   -4.965444   -1.420458   -0.066216
 H   -0.779130   -2.341825   -0.062977
 H   -1.036321    5.790331   -0.035393
 H   -3.938096    2.953479    0.004132
 H    0.778032    4.136502   -0.038117
 H    1.932122    2.647990    0.022149
 H    1.814273   -1.032504   -0.035949
 H    6.090447   -1.255240    0.070215
 H    6.202916    1.215819    0.110621
 H    4.145688    2.549898    0.080777
 H   -4.815612   -3.195520    0.879432
