60 
3njq_ligand_dft.xyz
 C    1.880103   -0.849582   -1.774804
 C    2.803604   -0.239113   -0.747981
 C    4.073269   -0.767830   -0.542336
 C    4.964342   -0.206519    0.374320
 C    4.558713    0.906774    1.109376
 C    3.300999    1.457228    0.925152
 C    2.413632    0.883833    0.007061
 N    1.117557    1.378869   -0.174340
 C    6.328382   -0.763691    0.629771
 O    6.932011   -0.595970    1.657596
 O    6.882843   -1.489459   -0.369707
 C    0.714453   -1.663980   -1.231377
 C   -1.389489   -3.301102   -0.361219
 C   -0.324610   -3.018029    0.487359
 C    0.722119   -2.206431    0.054144
 C   -0.375253   -1.930804   -2.065515
 C   -1.415724   -2.748299   -1.639598
 C    0.655015    2.634842    0.101792
 O    1.316807    3.561080    0.538837
 C   -0.817797    2.783698   -0.194042
 C   -1.430849    4.013997   -0.002436
 C   -2.794917    4.099746   -0.262313
 C   -3.474591    2.963546   -0.678068
 C   -2.775361    1.761452   -0.838326
 N   -1.462085    1.690204   -0.610898
 C   -3.483130    0.481116   -1.189819
 C   -4.134283   -0.168765    0.045437
 C   -3.105410   -0.426580    1.169386
 C   -4.850202   -1.472065   -0.319588
 C   -5.065591   -1.633369    2.224776
 C   -5.687863   -2.000344    0.862199
 C   -3.541957   -1.557038    2.120011
 H    2.472590   -1.501164   -2.428854
 H    1.485666   -0.057269   -2.424544
 H    4.342939   -1.663378   -1.099902
 H    5.244378    1.333865    1.833370
 H    2.995222    2.332452    1.481544
 H    0.397349    0.750617   -0.521488
 H    6.366181   -1.384761   -1.179042
 H   -2.199828   -3.942683   -0.027554
 H   -0.303319   -3.432362    1.490863
 H    1.555086   -1.999363    0.720114
 H   -0.400333   -1.502165   -3.064826
 H   -2.249213   -2.953155   -2.305452
 H   -0.843205    4.857604    0.339468
 H   -3.321772    5.040509   -0.134775
 H   -4.541964    2.993387   -0.875402
 H   -2.753169   -0.213528   -1.618642
 H   -4.255265    0.674861   -1.944850
 H   -4.894392    0.532883    0.422228
 H   -2.954593    0.500090    1.735623
 H   -2.134195   -0.675335    0.725182
 H   -4.089901   -2.210555   -0.605086
 H   -5.488070   -1.328379   -1.200222
 H   -5.368557   -2.360770    2.985613
 H   -5.446584   -0.659894    2.560444
 H   -5.781737   -3.089454    0.777797
 H   -6.705780   -1.597219    0.805438
 H   -3.090626   -1.411467    3.107306
 H   -3.164127   -2.518227    1.748340
