60 
3njq_ligand_xtb.xyz
 C    1.869376   -0.877712   -1.731908
 C    2.809028   -0.262339   -0.732188
 C    4.074536   -0.791534   -0.550074
 C    4.979249   -0.220899    0.343902
 C    4.592252    0.906029    1.066314
 C    3.338738    1.451737    0.896326
 C    2.433019    0.871147    0.008898
 N    1.151560    1.376089   -0.153912
 C    6.342266   -0.765763    0.581008
 O    6.966757   -0.558162    1.585388
 O    6.873079   -1.515137   -0.408198
 C    0.723849   -1.662389   -1.132300
 C   -1.342352   -3.246217   -0.142273
 C   -0.327472   -2.820764    0.696192
 C    0.702697   -2.036765    0.203967
 C   -0.314175   -2.072947   -1.961855
 C   -1.337928   -2.863345   -1.473483
 C    0.674346    2.611577    0.158804
 O    1.311138    3.526002    0.638434
 C   -0.777991    2.729474   -0.186141
 C   -1.430280    3.947550   -0.054300
 C   -2.775541    4.004950   -0.385263
 C   -3.408529    2.849522   -0.804568
 C   -2.676329    1.663585   -0.890936
 N   -1.385749    1.619898   -0.602758
 C   -3.335821    0.369961   -1.253139
 C   -4.143224   -0.158830   -0.055055
 C   -3.235117   -0.345383    1.170113
 C   -4.828725   -1.479895   -0.394534
 C   -5.300018   -1.431276    2.097140
 C   -5.801720   -1.883495    0.720218
 C   -3.776406   -1.414879    2.125030
 H    2.435893   -1.561446   -2.372426
 H    1.465283   -0.096749   -2.384429
 H    4.332132   -1.687611   -1.102436
 H    5.295152    1.340288    1.759834
 H    3.045146    2.330645    1.445126
 H    0.443260    0.767821   -0.558042
 H    6.298640   -1.555510   -1.183481
 H   -2.131050   -3.879142    0.237042
 H   -0.330028   -3.106962    1.737416
 H    1.499192   -1.724435    0.863445
 H   -0.310117   -1.780611   -3.002767
 H   -2.128647   -3.186594   -2.135082
 H   -0.880618    4.807308    0.293177
 H   -3.320107    4.934953   -0.311131
 H   -4.456182    2.854257   -1.064068
 H   -2.571597   -0.360027   -1.522981
 H   -4.005595    0.518406   -2.102819
 H   -4.919338    0.577428    0.180412
 H   -3.145387    0.607402    1.696307
 H   -2.233847   -0.628684    0.840026
 H   -4.062218   -2.244404   -0.522853
 H   -5.368870   -1.392984   -1.339491
 H   -5.686167   -2.098583    2.869372
 H   -5.666475   -0.427432    2.320328
 H   -5.925221   -2.968017    0.708619
 H   -6.782931   -1.443054    0.532696
 H   -3.418824   -1.217767    3.136873
 H   -3.406318   -2.398620    1.833670
