20 
3nkk_ligand_ani.xyz
 F    2.143801    1.821600    0.193567
 C    1.305593    0.772267    0.075568
 C    1.867326   -0.499150   -0.037373
 C    0.977524   -1.564853   -0.171235
 C   -0.399329   -1.364565   -0.173254
 C   -0.926834   -0.081068   -0.043127
 C   -0.055173    1.004735    0.066872
 C   -2.399410    0.169683   -0.042121
 N   -2.827467    1.308241   -0.429278
 N   -3.177500   -0.910460    0.366006
 C    3.360128   -0.673926   -0.020383
 H    1.371681   -2.574795   -0.266955
 H   -1.066952   -2.212305   -0.299061
 H   -0.442944    2.014927    0.141908
 H   -3.847234    1.353252   -0.393616
 H   -4.144299   -0.687660    0.561226
 H   -2.765352   -1.503014    1.074673
 H    3.829308   -0.142583   -0.855167
 H    3.793530   -0.274685    0.902495
 H    3.633863   -1.730739   -0.094383
