53 
3nmq_ligand_ani.xyz
Cl   -3.279664    1.935590    1.166683
 C   -1.764608    2.310571    0.416036
 N   -1.386743    3.570835    0.425450
 C   -0.208876    3.851117   -0.161978
 N    0.192988    5.150528   -0.124161
 N    0.624182    2.984076   -0.760012
 C    0.186670    1.731266   -0.740058
 C   -1.017151    1.284056   -0.162001
 N    0.843737    0.648904   -1.265254
 C    2.128515    0.669371   -1.949781
 C    3.134943   -0.252847   -1.292887
 C    3.591145   -0.015461    0.011573
 C    3.119751    1.141999    0.859702
 C    4.516114   -0.918742    0.533162
 O    5.060769   -0.696098    1.776266
 C    4.336088   -1.279512    2.844697
 C    4.938304   -2.027510   -0.204598
 C    5.906822   -3.024959    0.375432
 C    4.402052   -2.150429   -1.482303
 N    3.525724   -1.300199   -2.022386
 C    0.080525   -0.465763   -1.034358
 C   -1.071890   -0.147411   -0.364528
 C   -2.100793   -1.038535    0.026814
 C   -2.992339   -1.790102    0.339830
 C   -4.111836   -2.679460    0.635648
 C   -5.427150   -2.193677   -0.009696
 C   -6.533380   -3.207338    0.277205
 C   -5.255675   -1.970036   -1.511675
 O   -5.717784   -0.956909    0.635056
 H   -0.518753    5.829315    0.098727
 H    0.912328    5.420210   -0.776578
 H    2.462447    1.712651   -1.947606
 H    2.002786    0.334870   -2.982387
 H    2.869659    2.021085    0.256539
 H    2.211508    0.883604    1.418782
 H    3.893783    1.411199    1.582679
 H    3.313150   -0.883010    2.900103
 H    4.286301   -2.372601    2.751213
 H    4.871766   -1.021526    3.760207
 H    6.638656   -2.516760    1.009009
 H    5.402271   -3.778945    0.994307
 H    6.433982   -3.563262   -0.417947
 H    4.700214   -2.988679   -2.111681
 H    0.427384   -1.434392   -1.369444
 H   -4.267711   -2.733854    1.718558
 H   -3.879027   -3.691122    0.278984
 H   -6.279766   -4.185053   -0.147793
 H   -6.673830   -3.320239    1.356806
 H   -7.484860   -2.883744   -0.162296
 H   -4.499429   -1.200173   -1.702190
 H   -4.940203   -2.893457   -2.011137
 H   -6.204190   -1.646622   -1.958008
 H   -6.410657   -0.519041    0.124093
