41 
3nok_ligand_xtb.xyz
 N   -4.848732    0.083930    0.177579
 O   -4.664933    0.523328    1.407951
 C   -5.177855    1.209426   -0.738250
 C   -5.977892   -0.884040    0.131978
 C   -3.623315   -0.627139   -0.333665
 C   -2.382389    0.243759   -0.195122
 C   -1.101486   -0.585701   -0.234143
 C    0.142034    0.290801   -0.107281
 C    1.426646   -0.534119   -0.128592
 C    2.673017    0.339529   -0.009828
 C    3.957165   -0.485875   -0.036766
 C    5.204610    0.387120    0.073928
 C    6.489389   -0.436858    0.033414
 C    7.730797    0.440007    0.142106
 H   -6.102624    1.664131   -0.390163
 H   -4.386879    1.949931   -0.660909
 H   -5.285803    0.867496   -1.766613
 H   -5.750084   -1.700242    0.813962
 H   -6.869359   -0.376948    0.494324
 H   -6.138672   -1.263902   -0.876222
 H   -3.791021   -0.944277   -1.365734
 H   -3.502085   -1.506148    0.302424
 H   -2.468626    0.755346    0.767676
 H   -2.345591    0.991494   -0.990106
 H   -1.055747   -1.143468   -1.173919
 H   -1.113553   -1.310648    0.582235
 H    0.088512    0.854596    0.826149
 H    0.163413    1.011790   -0.928188
 H    1.474154   -1.104925   -1.059473
 H    1.408602   -1.250199    0.696197
 H    2.627649    0.906953    0.922534
 H    2.689237    1.058489   -0.832533
 H    3.998885   -1.057450   -0.967343
 H    3.943111   -1.201894    0.788463
 H    5.167966    0.951887    1.008510
 H    5.213932    1.108631   -0.746744
 H    6.525260   -1.002017   -0.900888
 H    6.481163   -1.157335    0.854526
 H    7.767159    1.153151   -0.678634
 H    7.723957    0.996072    1.077091
 H    8.633298   -0.166109    0.110048
