35 
3np7_ligand_dft.xyz
 C   -1.810106    1.158700   -0.772994
 O   -1.361894    2.270945   -1.418886
 C   -0.940584    0.178335   -0.267526
 C   -1.464300   -0.935632    0.376984
 C   -2.838335   -1.122433    0.506210
 O   -3.276281   -2.239484    1.137637
 C   -3.684781   -0.152657   -0.033138
Cl   -5.420305   -0.374552    0.106663
 C   -3.184202    0.979654   -0.660177
 C    0.552388    0.325184   -0.451748
 C    1.198654    1.283301    0.561272
 O    0.647293    2.577061    0.395953
 C    2.696455    1.326367    0.324271
 O    3.247727    2.205956    1.281479
 C    3.299106   -0.065392    0.398047
 O    4.663257    0.076198    0.076778
 C    2.540355   -0.981661   -0.574835
 O    1.152933   -0.948605   -0.308530
 C    2.930779   -2.446455   -0.430994
 O    4.333815   -2.548785   -0.630262
 H   -0.600278    2.622655   -0.921944
 H   -0.801289   -1.700827    0.762602
 H   -4.243672   -2.235223    1.144928
 H   -3.851299    1.734970   -1.058629
 H    0.744992    0.719354   -1.463845
 H    0.994374    0.909949    1.574682
 H    1.241332    3.197125    0.841805
 H    2.873207    1.714103   -0.693207
 H    4.206944    2.177106    1.164096
 H    3.166052   -0.456454    1.420918
 H    5.014472   -0.819058   -0.053576
 H    2.747279   -0.643944   -1.603253
 H    2.376428   -3.042137   -1.166770
 H    2.644138   -2.782994    0.575356
 H    4.605139   -3.457392   -0.462032
