35 
3np7_ligand_ani.xyz
 C   -1.831285    1.163359   -0.778048
 O   -1.421254    2.286691   -1.425000
 C   -0.942886    0.197921   -0.277823
 C   -1.456440   -0.916589    0.377400
 C   -2.825023   -1.114586    0.524191
 O   -3.247540   -2.221757    1.177320
 C   -3.688516   -0.166357   -0.028683
Cl   -5.408894   -0.411091    0.116255
 C   -3.204302    0.954735   -0.682480
 C    0.556809    0.338548   -0.461693
 C    1.196523    1.297244    0.549190
 O    0.658975    2.590605    0.336648
 C    2.699838    1.333176    0.349007
 O    3.246509    2.173377    1.343513
 C    3.281373   -0.066120    0.417546
 O    4.654063    0.059102    0.118471
 C    2.542454   -0.973483   -0.578002
 O    1.149699   -0.943163   -0.328548
 C    2.950536   -2.436189   -0.448022
 O    4.350421   -2.536381   -0.703396
 H   -0.607046    2.614725   -1.002295
 H   -0.787779   -1.669402    0.779192
 H   -4.215837   -2.229338    1.192101
 H   -3.879679    1.688077   -1.112702
 H    0.761631    0.729292   -1.474701
 H    0.970700    0.947226    1.565798
 H    1.176674    3.212969    0.867338
 H    2.911997    1.741365   -0.655156
 H    4.206951    2.138553    1.230256
 H    3.130196   -0.461182    1.438782
 H    4.967342   -0.825982   -0.135663
 H    2.761073   -0.623250   -1.602785
 H    2.377684   -3.043065   -1.160767
 H    2.711719   -2.772274    0.571072
 H    4.664121   -3.396909   -0.404366
