38 
3np9_ligand_ani.xyz
 C   -1.799457   -0.931214    0.532899
 O   -1.368747   -2.114318    1.064306
 C   -0.835126    0.007505    0.163989
 C   -1.222502    1.230802   -0.379494
 C   -2.573217    1.517438   -0.561111
 O   -3.049065    2.678851   -1.085116
 C   -3.542617    0.584602   -0.190012
 C   -3.148260   -0.623787    0.354558
Cl   -4.352729   -1.795960    0.823620
 C   -2.098308    3.644632   -1.471466
 C    0.625391   -0.346959    0.327118
 C    1.185207   -1.149578   -0.861761
 O    0.491560   -2.345759   -1.147818
 C    2.646229   -1.480712   -0.587930
 O    3.220023   -2.152560   -1.685858
 C    3.436567   -0.209110   -0.336508
 O    4.751999   -0.506327    0.076913
 C    2.761544    0.599538    0.766512
 O    1.393644    0.839640    0.446805
 C    3.391310    1.971570    0.976591
 O    2.755814    2.662906    2.027356
 H   -2.134827   -2.673464    1.260914
 H   -0.457355    1.950749   -0.647819
 H   -4.591147    0.823047   -0.334255
 H   -2.664919    4.494242   -1.855072
 H   -1.487761    3.966505   -0.617967
 H   -1.437472    3.260035   -2.258909
 H    0.739805   -0.946268    1.245027
 H    1.130610   -0.518121   -1.758184
 H    0.105190   -2.670344   -0.321002
 H    2.709153   -2.113371    0.319646
 H    2.572286   -2.826796   -1.943227
 H    3.433988    0.387056   -1.265404
 H    5.132394   -1.074388   -0.607437
 H    2.825926    0.034483    1.712197
 H    4.444058    1.855767    1.247275
 H    3.342685    2.540370    0.032045
 H    1.811399    2.653992    1.817621
