26 
3nq9_ligand_xtb.xyz
 C   -3.117885   -0.017506   -0.070540
 C   -2.107921   -1.123685   -0.316461
 C   -0.715633   -0.770056    0.220170
 C   -0.156036    0.479833   -0.458213
 C    1.198715    0.912707    0.102690
 C    2.328904   -0.066533   -0.209120
 C    3.682833    0.462426    0.259145
 C    4.808068   -0.523436   -0.030296
 O   -3.349210    0.263669    1.225427
 O   -3.691395    0.574887   -0.936453
 H   -2.056285   -1.293536   -1.392239
 H   -2.472329   -2.037967    0.161447
 H   -0.053875   -1.618334    0.039922
 H   -0.749625   -0.605929    1.301975
 H   -0.867630    1.298953   -0.329891
 H   -0.062323    0.294843   -1.530111
 H    1.119566    1.041611    1.185172
 H    1.452999    1.885469   -0.323988
 H    2.365099   -0.243116   -1.286692
 H    2.138672   -1.024122    0.279482
 H    3.640460    0.659794    1.332924
 H    3.892780    1.409803   -0.242136
 H    4.627674   -1.469026    0.476857
 H    4.880112   -0.717307   -1.098307
 H    5.761535   -0.127638    0.311397
 H   -2.818258   -0.284448    1.818148
