60 
3ns7_ligand_dft.xyz
 C   -1.901448    2.794442   -0.294869
 C   -0.692976    2.314340   -1.098297
 N    0.340288    1.744428   -0.264721
 C   -3.677870   -0.249871    0.522289
 C   -4.373101   -1.388414    0.113345
 C   -4.736138   -1.481274   -1.223354
 C   -4.423402   -0.459875   -2.139242
 C   -3.732285    0.680401   -1.745020
 C   -3.364041    0.757175   -0.402903
 N   -3.141465    0.065832    1.759876
 N   -2.627800    1.688474    0.307698
 C   -2.519681    1.211528    1.588299
 C   -1.776454    1.933813    2.657731
 C    1.642064    2.139750   -0.394386
 O    1.989195    3.032118   -1.155045
 C    2.656953    1.365177    0.429619
 C    3.505286    0.411742   -0.466224
 C    5.012521    0.517511   -0.149792
 C    2.947991   -1.013156   -0.381626
 O    3.560599   -1.969141    0.077725
 C    5.370094    0.161764    1.297649
 C    5.862805   -0.281184   -1.141743
 C   -0.344549   -2.348522   -1.435621
 N    1.675876   -1.162435   -0.853140
 O   -1.007046   -1.123873   -1.174429
 C    0.929523   -2.378611   -0.599523
 C    0.656194   -2.620759    0.905137
 C   -0.253553   -1.591367    1.521418
 O    0.057268   -0.420369    1.683063
 O   -1.424398   -2.085846    1.892642
 H   -1.584555    3.475741    0.497570
 H   -2.590573    3.339919   -0.948216
 H   -0.243573    3.159949   -1.623728
 H   -1.019334    1.578929   -1.843503
 H    0.121628    0.951547    0.335572
 H   -4.602930   -2.176129    0.822960
 H   -5.273106   -2.357392   -1.573129
 H   -4.726564   -0.564482   -3.176312
 H   -3.481517    1.459417   -2.457967
 H   -1.841322    1.352508    3.577457
 H   -2.207720    2.925295    2.833840
 H   -0.721908    2.050482    2.395094
 H    2.183056    0.819143    1.250501
 H    3.322512    2.119127    0.858878
 H    3.381651    0.745719   -1.505216
 H    5.246987    1.581084   -0.299915
 H    5.187983   -0.897601    1.488933
 H    4.787057    0.747493    2.017446
 H    6.428953    0.373404    1.483357
 H    5.697644   -1.354413   -1.018499
 H    5.625236   -0.009476   -2.177279
 H    6.926956   -0.077286   -0.979488
 H   -0.973467   -3.205975   -1.162080
 H   -0.085151   -2.430028   -2.500659
 H    1.128288   -0.343200   -1.080556
 H   -1.914904   -1.169720   -1.500660
 H    1.542915   -3.221041   -0.934948
 H    0.221455   -3.615321    1.033098
 H    1.620472   -2.590597    1.418734
 H   -2.017017   -1.331966    2.151748
