55 
3ns9_ligand_ani.xyz
 N    1.183302    2.460694   -0.255370
 N    0.570733    1.238940   -0.264865
 C    1.220658    0.025494   -0.212593
 C    0.441640   -1.104851   -0.191563
 C   -0.974212   -0.955033   -0.246086
 N   -1.584472    0.236040   -0.325880
 C   -0.797549    1.326072   -0.310345
 C   -1.099441    2.693267   -0.337956
 C    0.166969    3.312687   -0.305397
 N    2.576640    0.094248   -0.214277
 C    3.370584   -1.081148    0.108631
 C    4.839745   -0.743448    0.187284
 C    5.412570    0.162506   -0.705271
 C    6.774597    0.441073   -0.654297
 C    7.580141   -0.179067    0.297146
 C    7.015682   -1.083598    1.191062
 C    5.653588   -1.363268    1.133236
 N   -1.749950   -2.077579   -0.180272
 C   -3.112401   -2.194014   -0.678296
 C   -4.168086   -1.347716    0.055430
 C   -3.969242   -1.225139    1.565807
 O   -5.009847   -0.433282    2.099381
 C   -3.483428   -3.672711   -0.599132
 O   -2.456925   -4.412347   -1.241654
 O   -4.297916   -0.047368   -0.492269
 C   -2.495116    3.229945   -0.311913
 C   -3.203942    2.878087    1.005422
 C   -2.544385    4.734871   -0.564852
 H    0.893017   -2.088635   -0.123721
 H    0.360561    4.378283   -0.312451
 H    2.929024    0.993695    0.095751
 H    3.052586   -1.537999    1.060751
 H    3.203520   -1.839723   -0.668825
 H    4.783131    0.646020   -1.448975
 H    7.206614    1.152419   -1.354755
 H    8.643649    0.041043    0.339631
 H    7.637968   -1.574109    1.936115
 H    5.219028   -2.074116    1.833930
 H   -1.231777   -2.939273   -0.306331
 H   -3.159380   -1.872913   -1.731442
 H   -5.141714   -1.824194   -0.123540
 H   -2.990853   -0.766610    1.765927
 H   -4.001263   -2.201126    2.064206
 H   -5.149866    0.252931    1.426985
 H   -4.455975   -3.838574   -1.086781
 H   -3.573273   -3.968217    0.460283
 H   -2.622698   -5.349756   -1.090412
 H   -3.381422    0.302592   -0.561492
 H   -3.052062    2.730353   -1.122207
 H   -3.167213    1.800773    1.199959
 H   -2.711203    3.382402    1.844764
 H   -4.252884    3.195322    0.978730
 H   -2.066313    4.986920   -1.516582
 H   -3.578869    5.095205   -0.589973
 H   -2.018842    5.270794    0.233536
