26 
3nsq_ligand_ani.xyz
 O    0.024283    3.034942    0.000571
 C    0.020940    1.818666    0.000317
 C    1.297555    1.039735    0.000366
 C    2.493120    1.751589    0.000647
 C    3.693902    1.064099    0.000318
 C    3.714732   -0.326740   -0.000268
 C    2.525021   -1.054310   -0.000390
 O    2.618558   -2.386123   -0.000918
 C    1.286102   -0.365897    0.000015
 C    0.003980   -1.137962   -0.000042
 O    0.027443   -2.360399   -0.000414
 C   -1.276961   -0.364578    0.000196
 C   -1.264221    1.045443   -0.000127
 C   -2.444938    1.784786   -0.000929
 C   -3.657645    1.129373   -0.001141
 C   -3.699708   -0.263887   -0.000328
 C   -2.529361   -1.015189    0.000499
 O   -2.580351   -2.364506    0.001596
 H    2.449463    2.834350    0.001076
 H    4.633668    1.609785    0.000477
 H    4.650394   -0.876743   -0.000653
 H    1.702829   -2.740663   -0.000871
 H   -2.373159    2.866488   -0.001364
 H   -4.587301    1.691685   -0.001850
 H   -4.662122   -0.774231   -0.000347
 H   -3.508341   -2.632743    0.002047
