26 
3nsq_ligand_xtb.xyz
 O    0.027889    3.043316    0.000429
 C    0.026751    1.826097    0.000277
 C    1.276997    1.043670    0.000441
 C    2.480715    1.732980    0.000735
 C    3.684431    1.041623    0.000298
 C    3.690116   -0.334101   -0.000414
 C    2.487874   -1.056928   -0.000431
 O    2.562975   -2.384545   -0.000939
 C    1.258156   -0.361938    0.000037
 C    0.004197   -1.121174    0.000105
 O    0.007516   -2.352148   -0.000153
 C   -1.247447   -0.347695    0.000254
 C   -1.238612    1.055666   -0.000170
 C   -2.427341    1.774324   -0.000864
 C   -3.642796    1.113458   -0.001067
 C   -3.672102   -0.265756   -0.000286
 C   -2.491212   -1.011143    0.000450
 O   -2.530048   -2.351428    0.001373
 H    2.454085    2.811739    0.001222
 H    4.617887    1.583933    0.000450
 H    4.611097   -0.895927   -0.000958
 H    1.634739   -2.740913   -0.000789
 H   -2.373787    2.851999   -0.001276
 H   -4.566757    1.671303   -0.001765
 H   -4.619089   -0.790263   -0.000276
 H   -3.443191   -2.667923    0.001525
