70 
3nu9_ligand_xtb.xyz
 C    6.560375    0.878262    0.914549
 C    6.814099   -0.387128   -1.132389
 C    3.556805    0.696836    0.092101
 C    5.782980   -0.045321   -0.049964
 C    1.242301    1.415840   -0.066321
 C    0.495082    0.179261   -0.621073
 C    0.577337    2.741879   -0.453547
 C   -0.814398    2.863303    0.095077
 C   -1.913759    2.837928   -0.753435
 C   -1.028595    2.986557    1.462989
 C   -3.198460    2.927534   -0.247155
 C   -2.312495    3.064055    1.971830
 C   -3.401684    3.032299    1.117483
 C   -0.703056   -0.221392    0.263897
 C   -0.699242   -2.509934    1.259617
 C    0.789487   -2.882241    1.323120
 C   -3.585972   -1.056749   -0.530189
 C   -4.216297   -0.289792   -1.492637
 C   -5.332667    0.447350   -1.158322
 C   -5.824317    0.434099    0.152125
 C   -5.169947   -0.347189    1.112412
 C   -4.063020   -1.092773    0.767912
 C    1.192797   -3.630491    0.056354
 C    1.050983   -3.734514    2.562099
 C    8.116373    0.196847   -0.570308
 N    2.608620    1.418848   -0.546899
 N   -1.004516   -1.627218    0.161528
 N   -6.956325    1.127897    0.476778
 O    4.679571    0.616745   -0.658700
 O    3.440865    0.216704    1.194399
 O    0.115810    0.439509   -1.945338
 O   -2.444182   -3.424239   -0.815221
 O   -1.685659   -1.574895   -2.246769
 O    7.725692    1.283597    0.236579
 S   -2.151825   -2.029419   -0.958327
 H    6.818737    0.325362    1.828286
 H    5.989922    1.767987    1.180899
 H    6.525947    0.125633   -2.049030
 H    6.884960   -1.454544   -1.323085
 H    5.402418   -0.922860    0.482629
 H    1.310805    1.318502    1.021515
 H    1.209140   -0.661082   -0.593815
 H    0.548007    2.798424   -1.541532
 H    1.201554    3.552980   -0.071576
 H   -1.758890    2.736871   -1.816975
 H   -0.182047    3.023901    2.133408
 H   -4.041895    2.913578   -0.920974
 H   -2.464453    3.155551    3.037526
 H   -4.404091    3.097818    1.514811
 H   -1.581429    0.350939   -0.051830
 H   -0.492616    0.019195    1.308638
 H   -1.008417   -2.050102    2.208931
 H   -1.288518   -3.412937    1.089440
 H    1.377592   -1.961389    1.401407
 H   -3.815160   -0.282874   -2.493369
 H   -5.838404    1.039427   -1.906806
 H   -5.545406   -0.364668    2.124755
 H   -3.560262   -1.705952    1.499012
 H    2.266340   -3.804528    0.040041
 H    0.681193   -4.589207    0.007804
 H    0.914465   -3.059257   -0.826195
 H    2.102922   -4.001959    2.618094
 H    0.463119   -4.649185    2.523857
 H    0.788555   -3.191738    3.467423
 H    8.640628   -0.556828    0.037303
 H    8.792213    0.575934   -1.336264
 H    2.745811    1.596312   -1.530398
 H   -7.284349    1.831846   -0.160985
 H   -7.169189    1.266031    1.449142
 H   -0.479492   -0.279678   -2.235663
