20 
3nuu_ligand_ani.xyz
 C   -1.185776    1.392700    0.070860
 C    0.785190   -1.835272   -0.287552
 C    2.014067   -1.283064    0.424143
 C   -0.379292   -0.888643   -0.118490
 C   -0.133187    0.485799   -0.036557
 C   -2.749441   -0.432736    0.056071
 C   -2.494735    0.936637    0.123130
 C   -1.699009   -1.335845   -0.067194
 C    1.265437    1.022799   -0.071489
 N    2.254211    0.075005   -0.030385
 O    1.515256    2.215500   -0.142790
 H   -0.945299    2.451201    0.112767
 H    0.531774   -2.830186    0.093135
 H    1.014593   -1.940805   -1.355613
 H    2.899064   -1.882833    0.193128
 H    1.863826   -1.318654    1.514750
 H   -3.772799   -0.797424    0.097783
 H   -3.316283    1.641911    0.215070
 H   -1.902582   -2.403204   -0.125071
 H    3.186654    0.456710    0.051538
