66 
3nw3_ligand_ani.xyz
 C   -1.651982   -2.710594    0.521898
 O   -0.393918   -2.690669   -0.097965
 C   -2.631276   -1.649962   -0.008158
 N   -2.888880   -1.645692   -1.447514
 C   -2.452519   -2.439877   -2.453841
 O   -1.580558   -3.303750   -2.340848
 C   -3.094170   -2.171868   -3.797152
 C   -2.236319   -0.219328    0.394515
 O   -3.340848    0.579042   -0.023478
 C   -1.981447   -0.146309    1.906936
 O   -1.513237    1.115663    2.331275
 C   -0.984188   -1.249551    2.278904
 O   -1.499368   -2.526123    1.901512
 C   -0.719215   -1.356773    3.774645
 O    0.214591   -2.374799    4.044146
 C   -3.230302    1.984352    0.134992
 C   -4.451810    2.620668   -0.512122
 C   -1.959864    2.492761   -0.547572
 O   -1.732557    2.279047   -1.728767
 N   -1.132565    3.251272    0.237228
 C    0.229740    3.490401   -0.197602
 C    0.809904    4.728210    0.479641
 C    1.105204    2.270143    0.103070
 O    0.926272    1.558307    1.089747
 N    2.149780    2.025524   -0.733805
 C    2.836205    0.751288   -0.582095
 C    3.946676    0.625097   -1.627449
 C    4.795915   -0.636720   -1.492723
 C    5.683428   -0.607032   -0.251881
 N    6.293925   -1.788275    0.046212
 O    5.873276    0.398852    0.412760
 C    1.808882   -0.366569   -0.740366
 O    0.918334   -0.315268   -1.560313
 O    2.002597   -1.385911    0.089456
 H   -2.100501   -3.703571    0.394387
 H   -0.550728   -2.962107   -1.036647
 H   -3.585664   -1.851298    0.492405
 H   -3.509005   -0.885935   -1.700400
 H   -2.386990   -1.609337   -4.415968
 H   -3.275268   -3.127527   -4.293724
 H   -4.031030   -1.610089   -3.732548
 H   -1.327453    0.068105   -0.157188
 H   -2.932911   -0.341024    2.421158
 H   -0.600906    1.217111    1.993285
 H   -0.030886   -1.065364    1.756459
 H   -0.298968   -0.418705    4.150126
 H   -1.673325   -1.534711    4.298512
 H   -0.123445   -3.163193    3.595388
 H   -3.196706    2.226931    1.203956
 H   -5.366390    2.204969   -0.080389
 H   -4.446236    2.424713   -1.588363
 H   -4.445946    3.704106   -0.354787
 H   -1.273333    3.161233    1.238400
 H    0.192622    3.636237   -1.280688
 H    0.186471    5.598739    0.261282
 H    0.858532    4.592026    1.566350
 H    1.824046    4.921305    0.115805
 H    2.081761    2.385825   -1.677123
 H    3.256554    0.694448    0.422459
 H    3.494406    0.657942   -2.626947
 H    4.600306    1.496376   -1.521045
 H    4.166211   -1.534819   -1.470373
 H    5.448335   -0.733869   -2.369858
 H    6.072329   -2.647659   -0.428849
 H    6.847483   -1.828197    0.888243
 H    1.236965   -1.997624   -0.020206
