46 
3nw7_ligand_dft.xyz
 C  -18.265106    8.937787   10.848244
 C  -14.709902    1.853295   12.612726
 C  -18.432295    7.922728   11.804295
 C  -14.348024    1.070172   13.695828
 C  -18.087904    2.524143   12.766610
 C  -14.621419   -0.112578   11.254378
 C  -17.445918    8.455730    9.837630
 C  -14.848978    1.256323   11.357958
 C  -17.705802    6.826287   11.355549
 C  -17.777765    1.543144   13.738462
 C  -17.830122    3.720439   13.392207
 C  -14.136933   -0.281782   13.447905
 C  -17.413270    5.504104   11.793316
 C  -16.146495    5.188094    9.919395
 C  -15.353425    2.012683   10.170401
 C  -17.703597   -0.581255   12.255586
 C  -19.041655   -0.565505   12.927984
 C  -17.851106    0.074603   13.609038
 C  -15.330403    4.206105    9.098895
 N  -14.252836   -0.878538   12.283361
 N  -17.395003    3.421860   14.641536
 N  -16.639340    4.709758   11.092546
 N  -16.318259    6.370636    9.399982
 N  -17.369168    2.097185   14.878231
 N  -17.112634    7.182891   10.150604
 N  -17.935479    5.056377   12.974100
 N  -14.710967    3.193476    9.917568
 O  -16.258407    1.579436    9.473160
 F  -13.793317   -1.063006   14.472404
 H  -18.695753    9.928324   10.881941
 H  -14.944059    2.906178   12.745725
 H  -19.010724    7.984840   12.715794
 H  -14.276663    1.464274   14.701406
 H  -18.395008    2.383599   11.741497
 H  -14.752383   -0.613171   10.298752
 H  -17.078099    8.905817    8.929008
 H  -17.153507   -1.516291   12.219162
 H  -17.546269    0.061807   11.393332
 H  -19.803217    0.101372   12.533429
 H  -19.425567   -1.489704   13.348654
 H  -17.433405   -0.451446   14.462024
 H  -15.995785    3.684781    8.404834
 H  -14.584426    4.747463    8.512440
 H  -18.645960    5.629618   13.405366
 H  -14.040889    3.504209   10.605322
 H  -17.114754    4.064738   15.364414
