72 
3nwe_ligand_xtb.xyz
 N   -0.870712   -2.014560   -1.644046
 C    0.315350   -2.786098   -1.957484
 C    1.560510   -2.231824   -1.224479
 C   -0.950809   -0.653722   -1.589216
 C   -2.300235   -0.359389   -1.345292
 N   -3.018072   -1.524240   -1.257507
 C    0.132465   -0.076082    1.957171
 C    2.348365   -3.517401   -0.956048
 C   -2.145579   -2.466961   -1.450944
 O    0.165363   -4.124789   -1.585846
 O    2.277671   -1.303161   -1.971815
 C   -1.046165    1.968757    1.479125
 C   -1.066352    0.636006    1.913189
 C    3.409789   -3.352303    0.117775
 C    1.191292   -4.494656   -0.654303
 C    1.302104    0.549323    1.527498
 C    0.283003   -1.506354    2.361500
 C   -2.661201    1.001316   -1.326063
 N    0.004881    0.266379   -1.774411
 O   -2.257251    2.618510    1.465239
 C    1.319717    1.855386    1.069155
 N   -1.696210    1.912546   -1.514564
 C    0.123654    2.571428    1.067918
 C   -0.456298    1.501206   -1.717626
 C    2.558829    2.463173    0.565052
 C    0.742652   -4.394712    0.774943
 O    1.388009   -2.016422    2.456875
 N   -0.851847   -2.206020    2.582284
 C   -0.473494   -4.059720    1.169613
 C    3.430323    1.718605   -0.228789
 C    2.874190    3.788688    0.856326
 N   -3.930564    1.384482   -1.136476
 O   -2.268011    0.093870    2.264204
 C    4.876894    3.600601   -0.413086
 C    4.034149    4.364377    0.373428
 C    4.590380    2.283574   -0.723359
 F    6.009816    4.159494   -0.891598
 C   -0.799146   -3.661398    2.579171
 C   -4.401402    2.740099   -1.261478
 C   -5.211498    3.180806   -0.039964
 C   -6.540407    2.441990    0.074362
 H    0.472558   -2.728112   -3.049600
 H    1.236226   -1.801997   -0.264025
 H    2.819772   -3.817270   -1.898015
 H   -2.378719   -3.512500   -1.485213
 H    1.706863   -0.513525   -2.064990
 H    4.176178   -2.675382   -0.251329
 H    3.871493   -4.309757    0.347556
 H    2.983481   -2.929261    1.023718
 H    1.462382   -5.530233   -0.890827
 H    2.212560   -0.028445    1.573696
 H   -2.159800    3.443597    0.977290
 H    0.095367    3.588070    0.702007
 H    0.277497    2.280841   -1.874274
 H    1.516887   -4.583307    1.502150
 H   -1.738093   -1.762778    2.396370
 H   -1.255985   -3.875433    0.447673
 H    3.188984    0.697583   -0.480109
 H    2.217261    4.369584    1.486376
 H   -4.608652    0.641775   -1.064098
 H   -2.936590    0.785907    2.148997
 H    4.290900    5.387395    0.599564
 H    5.266541    1.717912   -1.344212
 H   -1.762961   -4.044720    2.914621
 H   -0.007571   -3.979190    3.260922
 H   -3.514801    3.364066   -1.385931
 H   -5.022576    2.833415   -2.161246
 H   -4.620745    3.013005    0.861282
 H   -5.402361    4.251892   -0.126388
 H   -7.111449    2.823612    0.917072
 H   -6.385617    1.376870    0.228727
 H   -7.132436    2.578478   -0.828152
