34 
3nyx_ligand_dft.xyz
 C    5.491564    0.902733    1.086538
 N    3.798818   -0.058290    2.442140
 O   -3.380366    1.221850   -0.740027
 S    1.627442   -1.699671   -1.278756
Cl    7.508166    2.073669   -0.280938
 C    4.284360    0.165638    1.189727
 N   -1.935607   -2.511889    0.088186
 S   -1.080739   -0.300874   -0.916205
 C    3.640737   -0.293530    0.005906
 N   -0.632857   -2.741260   -0.225692
 S   -6.154163    2.165938   -0.237348
 C    4.222130    0.017581   -1.250140
 N   -3.598522   -0.892471    0.044225
 C    5.388763    0.730367   -1.330971
 C    6.021572    1.167571   -0.145924
 C    2.685754   -0.743282    2.538409
 C    1.968195   -1.270240    1.441205
 C    2.438270   -1.042028    0.172772
 C   -0.050693   -1.704275   -0.747500
 C   -2.306829   -1.294482   -0.209958
 C   -4.089343    0.366869   -0.234747
 C   -5.499205    0.604008    0.112027
 C   -6.437839   -0.216508    0.689045
 C   -7.694605    0.419833    0.849476
 C   -7.680812    1.708725    0.390711
 H    5.964087    1.239573    2.001648
 H    3.733367   -0.302838   -2.164449
 H   -4.181293   -1.608516    0.455089
 H    5.828690    0.968396   -2.292854
 H    2.310483   -0.917764    3.545121
 H    1.073257   -1.857439    1.614648
 H   -6.255908   -1.240837    0.996390
 H   -8.564680   -0.056344    1.284174
 H   -8.499473    2.415789    0.391867
