60 
3nzk_ligand_xtb.xyz
 C    7.380073   -1.434768    0.398679
 C    5.900654   -1.225004    0.232839
 C    3.158769   -0.799196   -0.045723
 C    1.771587   -0.591625   -0.186209
 O   10.021908    1.835048   -0.258614
 C    0.581780   -0.419499   -0.310220
 C   -0.807341   -0.216362   -0.451494
 C   -7.911636   -1.515930    0.253733
 C   -3.549361    0.179413   -0.708481
 C   -5.001676    0.468992   -0.867977
 C   -7.281689   -0.202432   -0.259894
 C   -7.682884   -2.662818   -0.722648
 C   -7.685620    0.963803    0.653185
 C    8.685246    1.987806   -0.657067
 C   10.123379    1.166006    0.969461
 C    8.009783    0.622392   -0.818763
 C    9.504371   -0.234486    0.881017
 N    8.086644   -0.117708    0.464712
 C    5.269587   -1.485092   -0.979636
 C    5.149046   -0.746695    1.304886
 C    3.912202   -1.279835   -1.119809
 C    3.793407   -0.533403    1.171412
 C   -1.693367   -1.273411   -0.234057
 C   -1.300441    1.038162   -0.815494
 C   -3.053215   -1.075040   -0.360837
 C   -2.659618    1.225448   -0.946463
 O   -5.403542    1.400996   -1.552109
 N   -5.842799   -0.351886   -0.212665
 O   -7.328609   -1.847921    1.491724
 N   -7.488391    2.159672    0.102026
 O   -8.139676    0.821512    1.781716
 O   -7.710924    3.301555    0.872099
 H    7.588358   -1.970023    1.328606
 H    7.793220   -2.004390   -0.435309
 H   -8.991796   -1.349489    0.373621
 H   -7.585536    0.015994   -1.288290
 H   -8.186956   -2.460769   -1.662849
 H   -8.078992   -3.578667   -0.294302
 H   -6.621016   -2.799709   -0.908613
 H    8.705847    2.512288   -1.613027
 H    8.129850    2.599192    0.071516
 H    9.631085    1.743730    1.767747
 H   11.188023    1.091628    1.194482
 H    8.536573    0.040678   -1.578220
 H    6.963875    0.735376   -1.108034
 H   10.033053   -0.824791    0.129586
 H    9.566169   -0.739919    1.845641
 H    7.592093    0.446142    1.169793
 H    5.841104   -1.865659   -1.813532
 H    5.623315   -0.560663    2.259708
 H    3.422397   -1.492106   -2.057151
 H    3.212128   -0.171359    2.005050
 H   -1.305764   -2.245256    0.033106
 H   -0.613128    1.851354   -0.994525
 H   -3.719284   -1.911116   -0.209213
 H   -3.060690    2.184864   -1.236055
 H   -5.524081   -1.015164    0.481904
 H   -7.605204   -1.164681    2.123060
 H   -6.915668    2.314122   -0.725898
 H   -8.098633    2.959772    1.701516
