60 
3nzk_ligand_ani.xyz
 C    7.481206   -1.403714    0.372647
 C    5.994624   -1.209448    0.202848
 C    3.219780   -0.836236   -0.073640
 C    1.799945   -0.648455   -0.211193
 O   10.178121    1.860500   -0.241715
 C    0.604824   -0.485447   -0.321332
 C   -0.812717   -0.284056   -0.450811
 C   -8.024900   -1.458697    0.301492
 C   -3.573531    0.120387   -0.683325
 C   -5.028605    0.413478   -0.835287
 C   -7.324171   -0.195633   -0.226716
 C   -7.862670   -2.647669   -0.629495
 C   -7.772600    1.013368    0.602862
 C    8.831149    2.033687   -0.638676
 C   10.258296    1.169209    0.990524
 C    8.109747    0.703801   -0.806543
 C    9.631370   -0.216262    0.909060
 N    8.195504   -0.095568    0.485884
 C    5.311960   -1.744153   -0.889345
 C    5.277856   -0.473918    1.147965
 C    3.942370   -1.561325   -1.030524
 C    3.908439   -0.295334    1.021784
 C   -1.714017   -1.295658   -0.085330
 C   -1.314940    0.926645   -0.950996
 C   -3.080600   -1.093749   -0.201692
 C   -2.680723    1.118948   -1.072711
 O   -5.431760    1.331073   -1.553820
 N   -5.888048   -0.369899   -0.138144
 O   -7.473389   -1.796053    1.561861
 N   -7.732503    2.198933   -0.031642
 O   -8.165654    0.929979    1.770915
 O   -7.998545    3.324596    0.728146
 H    7.700153   -1.990782    1.270801
 H    7.893323   -1.953307   -0.481807
 H   -9.095188   -1.228028    0.407717
 H   -7.573358   -0.012677   -1.275253
 H   -8.332301   -2.441341   -1.597804
 H   -8.343671   -3.526812   -0.193660
 H   -6.805104   -2.872798   -0.796939
 H    8.848335    2.579088   -1.585125
 H    8.294022    2.644719    0.105508
 H    9.745593    1.743649    1.779822
 H   11.317543    1.096990    1.246654
 H    8.583053    0.120263   -1.602610
 H    7.055292    0.845126   -1.049680
 H   10.166146   -0.819861    0.168774
 H    9.685817   -0.722693    1.878015
 H    7.697369    0.443485    1.221712
 H    5.862865   -2.304008   -1.642778
 H    5.800318   -0.042951    2.001671
 H    3.423943   -1.982508   -1.886996
 H    3.363653    0.277117    1.767183
 H   -1.337942   -2.240188    0.296583
 H   -0.626593    1.712897   -1.245985
 H   -3.755009   -1.906392    0.061692
 H   -3.082338    2.044829   -1.472500
 H   -5.570348   -0.948608    0.627685
 H   -7.723954   -1.060936    2.148448
 H   -7.038305    2.368585   -0.754770
 H   -8.140725    2.943518    1.618453
