47 
3nzs_ligand_xtb.xyz
 C    1.149664    2.774680    0.107907
 N    2.539502    0.832730   -0.419573
 O   -4.005552   -1.350837   -0.067574
 S    1.332860   -3.675283    0.500941
 C    2.387407    2.112862   -0.077824
 N    0.150521    0.706680   -0.429618
 O    1.442469   -4.613787   -0.583524
 C    1.383869    0.201881   -0.604400
 N    2.824687    4.215301    0.479348
 O    1.231109   -4.206697    1.832936
 C    0.000944    1.971522   -0.072314
 N    3.353691    3.019455    0.158932
 C    1.520719    4.092034    0.456881
 N   -1.229714    2.510307    0.126821
 C    4.770837    2.820036    0.089289
 N    1.442792   -1.083761   -1.050909
 C   -2.489543    1.923709    0.088869
 C   -2.673307    0.552291    0.026964
 C   -3.956096    0.009317   -0.000444
 C   -5.063667    0.848136    0.043959
 C   -4.871252    2.219085    0.120008
 C   -3.605163    2.763333    0.143951
 C   -5.266046   -1.976408   -0.083900
 C    2.675661   -1.821589   -0.929003
 C    2.752339   -2.535454    0.413319
 C   -0.073564   -2.571539    0.164690
 C    0.242772   -1.877255   -1.151066
 H    0.898969    4.935877    0.684825
 H   -1.227860    3.504117    0.311417
 H    4.945308    1.805501   -0.262401
 H    5.214618    3.538446   -0.601264
 H    5.221662    2.955356    1.074171
 H   -1.825861   -0.106686    0.001980
 H   -6.067621    0.456694    0.023971
 H   -5.731916    2.869945    0.160254
 H   -3.473390    3.833980    0.203742
 H   -5.834979   -1.758586    0.825568
 H   -5.851906   -1.678436   -0.959324
 H   -5.064527   -3.045218   -0.133794
 H    3.499303   -1.113264   -1.039543
 H    2.716490   -2.568521   -1.726652
 H    3.654292   -3.132194    0.512290
 H    2.661192   -1.848588    1.249577
 H   -0.142248   -1.875047    0.994889
 H   -0.973308   -3.176606    0.105874
 H    0.403495   -2.643624   -1.914920
 H   -0.575474   -1.222879   -1.456742
