102 
3nzx_ligand_ani.xyz
 O    0.758510    1.947483   -1.185693
 C    1.712749    1.628232   -0.495373
 O    2.603008    2.461810    0.056852
 C    2.380124    3.904391    0.011330
 C    2.429436    4.388406   -1.432681
 C    3.550756    4.468885    0.808093
 C    1.055577    4.255832    0.688248
 O    0.898211   -3.052893   -0.324418
 C    0.959362   -1.894566    0.067069
 C    1.354411   -0.739746   -0.866328
 N    2.015347    0.334618   -0.165998
 C    2.111950   -1.227386   -2.111384
 C    3.548560   -1.601067   -1.841000
 C    3.893548   -2.891610   -1.428579
 C    5.213350   -3.228315   -1.184326
 C    6.227730   -2.279404   -1.345819
 C    5.901310   -0.983279   -1.741953
 C    4.567617   -0.659801   -1.978070
 O    7.492537   -2.721570   -1.076082
 C    8.594902   -1.886876   -1.392134
 C    8.818636   -0.759449   -0.402515
 C    8.412487   -0.882256    0.927480
 C    8.624244    0.159552    1.825837
 C    9.245934    1.331967    1.406153
 C    9.659890    1.458371    0.083440
 C    9.447365    0.415316   -0.813678
 N    0.613042   -1.511709    1.321020
 C   -0.003348   -2.417667    2.268053
 C   -1.452478   -1.989796    2.580682
 O   -1.871717   -1.914364    3.729123
 C    0.807248   -2.526753    3.552574
 N   -2.228300   -1.728415    1.502890
 C   -3.577417   -1.225287    1.602451
 C   -3.696201    0.132207    2.329048
 C   -3.232400    1.418030    1.621057
 O   -3.162245    2.442823    2.602130
 C   -1.834633    1.294893    0.939538
 O   -0.796165    1.054240    1.538499
 N   -1.984351    1.602306   -0.376366
 C   -3.298206    1.972528   -0.683553
 C   -3.828969    2.408518   -1.896331
 C   -5.163202    2.799707   -1.911160
 C   -5.949404    2.748982   -0.752584
 C   -5.406694    2.296149    0.448218
 C   -4.085336    1.885383    0.465892
 C   -4.137240   -1.205826    0.174543
 O   -3.418392   -1.347776   -0.803004
 N   -5.483752   -1.057840    0.066535
 C   -6.087565   -0.895046   -1.248210
 C   -7.568237   -1.171392   -1.217414
 C   -8.029574   -2.464180   -0.965380
 C   -9.393875   -2.734232   -0.928651
 C  -10.315431   -1.711053   -1.136038
 C   -9.865654   -0.417980   -1.383150
 C   -8.499087   -0.154139   -1.424618
 H    3.362705    4.066479   -1.906281
 H    2.386911    5.482508   -1.452444
 H    1.588182    3.988809   -2.002385
 H    3.497583    5.561746    0.839256
 H    4.501690    4.182013    0.348169
 H    3.532457    4.092993    1.836111
 H    0.206490    3.928852    0.084475
 H    0.992337    5.342191    0.812423
 H    0.989671    3.787360    1.675920
 H    0.404630   -0.298492   -1.203401
 H    2.962096    0.183026    0.153469
 H    2.072665   -0.422130   -2.854107
 H    1.560540   -2.079918   -2.518453
 H    3.106838   -3.628917   -1.287814
 H    5.490473   -4.230904   -0.871723
 H    6.662533   -0.220201   -1.863215
 H    4.315337    0.357439   -2.273511
 H    8.490474   -1.486230   -2.410662
 H    9.451508   -2.569405   -1.397719
 H    7.923443   -1.797698    1.249524
 H    8.300913    0.055209    2.859320
 H    9.409512    2.145597    2.108625
 H   10.146120    2.371186   -0.252340
 H    9.771425    0.516523   -1.848270
 H    0.606404   -0.520304    1.536011
 H   -0.035940   -3.390155    1.753916
 H    1.828919   -2.836142    3.315428
 H    0.840008   -1.563495    4.071978
 H    0.355712   -3.256947    4.229067
 H   -1.848851   -1.750999    0.564929
 H   -4.165295   -1.932449    2.204137
 H   -4.739069    0.297992    2.624549
 H   -3.123253    0.046688    3.255645
 H   -2.352552    2.260842    3.101788
 H   -1.169775    1.715844   -0.980346
 H   -3.223641    2.452825   -2.798147
 H   -5.602104    3.155046   -2.840946
 H   -6.984519    3.079461   -0.791124
 H   -6.004020    2.272274    1.355905
 H   -6.007066   -0.746959    0.871435
 H   -5.565941   -1.589639   -1.913028
 H   -5.888662    0.115330   -1.631285
 H   -7.309275   -3.262784   -0.794879
 H   -9.738981   -3.747270   -0.735751
 H  -11.381503   -1.922028   -1.105015
 H  -10.579320    0.385840   -1.547100
 H   -8.145083    0.856774   -1.620631
