102 
3nzx_ligand_dft.xyz
 O   -0.997367    2.479199    1.924417
 C   -1.905288    2.162536    1.158005
 O   -2.261978    2.825899    0.056289
 C   -1.626402    4.085383   -0.320995
 C   -1.905004    5.139349    0.748944
 C   -2.339346    4.435666   -1.623953
 C   -0.129973    3.910423   -0.571520
 O   -2.000994   -1.923642    3.270898
 C   -2.006091   -1.121502    2.344377
 C   -2.638652    0.267639    2.539065
 N   -2.687467    1.070808    1.334465
 C   -4.045215    0.102584    3.164807
 C   -5.004266   -0.509695    2.174686
 C   -5.007819   -1.889440    1.942490
 C   -5.677961   -2.428818    0.854358
 C   -6.371207   -1.594221   -0.019913
 C   -6.482783   -0.235453    0.266903
 C   -5.790458    0.296238    1.350176
 O   -6.872524   -2.165698   -1.156056
 C   -6.761286   -1.401588   -2.358401
 C   -5.411903   -0.732999   -2.505363
 C   -4.237759   -1.463216   -2.304588
 C   -3.001097   -0.826892   -2.288507
 C   -2.927070    0.552025   -2.486783
 C   -4.087974    1.279880   -2.725407
 C   -5.323303    0.638818   -2.730340
 N   -1.487685   -1.385870    1.126017
 C   -1.002867   -2.717760    0.797236
 C    0.144744   -2.608026   -0.215843
 O    0.036004   -2.965127   -1.381910
 C   -2.112541   -3.626468    0.282979
 N    1.286884   -2.084439    0.288244
 C    2.506897   -1.977552   -0.475529
 C    2.413258   -0.950246   -1.622539
 C    2.118681    0.517019   -1.267878
 O    1.907896    1.248232   -2.460199
 C    0.853985    0.640871   -0.392461
 O   -0.276954    0.423123   -0.804423
 N    1.217252    1.096902    0.832979
 C    2.564879    1.497523    0.828569
 C    3.270603    2.129301    1.837352
 C    4.595596    2.480399    1.569799
 C    5.186098    2.201803    0.338569
 C    4.461171    1.543845   -0.658924
 C    3.148391    1.196771   -0.404498
 C    3.626246   -1.724402    0.547974
 O    3.383419   -1.612953    1.741810
 N    4.885481   -1.681522    0.059001
 C    5.984845   -1.304966    0.938880
 C    7.259436   -1.088369    0.162029
 C    7.707580   -2.025926   -0.772755
 C    8.891553   -1.816772   -1.473594
 C    9.649239   -0.671834   -1.241069
 C    9.216919    0.260902   -0.303267
 C    8.027900    0.053402    0.389324
 H   -2.982386    5.234187    0.919211
 H   -1.524219    6.109340    0.412845
 H   -1.416460    4.879930    1.689727
 H   -1.986337    5.402611   -1.995320
 H   -3.420796    4.494068   -1.467972
 H   -2.134101    3.678047   -2.386451
 H    0.408103    3.704964    0.354099
 H    0.268045    4.834697   -1.003084
 H    0.055967    3.101140   -1.283196
 H   -1.998067    0.802519    3.245510
 H   -3.413679    0.896345    0.650533
 H   -4.394800    1.090107    3.483782
 H   -3.931793   -0.524850    4.051989
 H   -4.422410   -2.536451    2.589212
 H   -5.623186   -3.489635    0.631995
 H   -7.056665    0.418093   -0.380513
 H   -5.835687    1.367644    1.533017
 H   -7.561880   -0.651123   -2.411788
 H   -6.940022   -2.132318   -3.152020
 H   -4.303296   -2.532114   -2.118853
 H   -2.091842   -1.397249   -2.113598
 H   -1.965578    1.049650   -2.427573
 H   -4.036824    2.352955   -2.880988
 H   -6.232753    1.218089   -2.876126
 H   -1.502835   -0.671222    0.404898
 H   -0.605474   -3.136039    1.728622
 H   -2.874147   -3.734733    1.058379
 H   -2.575052   -3.204293   -0.611095
 H   -1.714247   -4.613199    0.031612
 H    1.380600   -1.874581    1.276121
 H    2.707924   -2.945219   -0.955541
 H    3.330030   -0.963603   -2.224209
 H    1.603340   -1.299734   -2.271131
 H    1.051805    0.951151   -2.805635
 H    0.517083    1.455011    1.486015
 H    2.809670    2.349913    2.794089
 H    5.171204    2.988449    2.337854
 H    6.212068    2.498959    0.148395
 H    4.914539    1.328568   -1.622137
 H    5.028257   -1.588385   -0.935406
 H    6.115959   -2.098011    1.684428
 H    5.710702   -0.396479    1.485785
 H    7.132768   -2.933152   -0.944906
 H    9.226830   -2.553752   -2.197235
 H   10.575048   -0.510544   -1.784862
 H    9.802893    1.155203   -0.112946
 H    7.689930    0.784242    1.118547
