36 
3o0g_ligand_dft.xyz
Cl    6.163925   -2.971997   -0.191388
 N   -1.164835    4.258617   -0.026678
 C   -2.740780   -2.009613    1.559042
 C   -2.228542   -0.726257    1.379284
 C   -2.812195    0.151888    0.463905
 C   -2.332959    1.564137    0.262174
 C   -0.933372    1.859778    0.227309
 C   -0.415752    3.149618    0.044394
 N    0.942468    3.258875   -0.058487
 C    4.591041    0.599138   -1.095727
 C    5.386085   -0.538798   -1.114536
 C    5.180437   -1.530514   -0.161171
 C   -3.836993   -2.434634    0.821582
 C   -4.412910   -1.542681   -0.076073
 C   -3.933633   -0.256475   -0.257919
 O   -3.184222    2.450855    0.104332
 S    0.417617    0.717609    0.217996
 C    1.496199    2.075686    0.011885
 N    2.843462    1.945112   -0.106902
 C    3.607495    0.758826   -0.117892
 C    3.430601   -0.230980    0.849861
 C    4.205783   -1.384148    0.818648
 O   -5.999288   -3.111435   -0.658641
 N   -5.581124   -1.980474   -0.854913
 O   -6.061122   -1.189770   -1.650594
 H   -2.170561    4.133928   -0.054216
 H   -0.722421    5.134790   -0.248661
 H   -2.285647   -2.678911    2.281477
 H   -1.386855   -0.399614    1.982492
 H    4.727690    1.365550   -1.852970
 H    6.150240   -0.662331   -1.873684
 H   -4.252792   -3.428060    0.933812
 H   -4.422056    0.423925   -0.944474
 H    3.299341    2.802906   -0.387743
 H    2.702527   -0.095746    1.642132
 H    4.066173   -2.156174    1.566980
