127 
3o4k_ligand_dft.xyz
 C    2.449258    1.971386    3.013492
 O    1.757032    0.933188    3.682215
 C    1.461310    2.882947    2.269525
 O   -0.320519    2.999541    0.742526
 C    0.588457    2.063619    1.330865
 O   -0.886120    0.108127    1.287599
 C   -0.104771    0.937804    2.103258
 O    2.132521    3.862802    1.493737
 C    0.977149    0.126067    2.835037
 O    3.904146    3.788586    3.494516
 C    3.210846    2.707722    4.108027
 O    0.389023   -1.815791   -0.395165
 O    1.401220   -3.270089    1.001066
 C   -4.141302    0.146147    0.614545
 O    1.722064   -0.470217    1.825461
 C   -5.443316    0.943297    0.543160
 O    5.012178   -2.915283    1.195687
 C   -6.426124    0.406644   -0.503514
 O    4.928690   -2.571373   -1.027492
 C   -7.121066   -0.892887   -0.093124
 C   -7.875793   -1.547594   -1.251040
 C   -8.726342   -2.758119   -0.847025
 C   -7.981351   -3.833807   -0.048693
 C   -6.720991   -4.372933   -0.725279
 C   -6.014422   -5.429073    0.124710
 C   -4.688672   -5.931102   -0.456624
 C   -3.629921   -4.846709   -0.699766
 C   -3.342422   -3.971299    0.523368
 C   -2.145920   -3.030490    0.353890
 C   -0.806717   -3.774933    0.353787
 C    0.366848   -2.836300    0.261524
 C    2.615989   -2.505576    1.012959
 C    2.586961   -1.533969    2.179787
 C    3.732024   -3.540166    1.134090
 C    5.525303   -2.483067    0.018069
 C    6.889655   -1.867982    0.218897
 C    7.633914   -1.611995   -1.090395
 C    8.101797   -2.900131   -1.770605
 C    8.748892   -2.705932   -3.146727
 C   10.006986   -1.817724   -3.163394
 C    9.735270   -0.341622   -3.463693
 C    0.605344    3.106266   -2.105557
 O   -0.221126    2.151327   -1.437236
 C    0.204442    4.558724   -1.844498
 N    0.784650    5.157674   -0.594754
 O   -1.516016    6.067146   -1.385683
 C   -1.307715    4.730662   -1.757525
 C   -1.972092    3.733524   -0.764289
 N   -3.221878    3.232423   -1.307357
 C   -1.048787    2.560442   -0.394714
 C    2.078038    2.815361   -1.844741
 C   -4.238912    4.092647   -1.580392
 O   -4.098072    5.307999   -1.445555
 C   -5.535191    3.495616   -2.062091
 H    3.160473    1.562988    2.282326
 H    0.808823    3.369582    3.011977
 H    1.209429    1.619692    0.545731
 H   -0.304812   -0.387512    0.678418
 H   -0.779461    1.371814    2.847843
 H    2.849114    4.210514    2.058811
 H    0.521233   -0.623694    3.492075
 H    4.344560    4.311100    4.174146
 H    2.495480    3.066635    4.859930
 H    3.906584    2.012404    4.591353
 H   -3.632545    0.119903   -0.360122
 H   -4.318023   -0.897151    0.895799
 H   -3.439459    0.562102    1.342512
 H   -5.208041    1.993729    0.326481
 H   -5.927356    0.945122    1.527911
 H   -5.888320    0.239663   -1.450280
 H   -7.192433    1.163176   -0.717368
 H   -7.813370   -0.685138    0.734511
 H   -6.378180   -1.598514    0.300582
 H   -7.150372   -1.843315   -2.021098
 H   -8.529482   -0.802366   -1.723681
 H   -9.148969   -3.207083   -1.755023
 H   -9.579802   -2.411290   -0.250066
 H   -8.669762   -4.665439    0.148896
 H   -7.707791   -3.432436    0.936995
 H   -6.973959   -4.795654   -1.707856
 H   -6.029838   -3.542364   -0.921148
 H   -5.841944   -5.019132    1.129468
 H   -6.685645   -6.285909    0.264235
 H   -4.880730   -6.450154   -1.404370
 H   -4.272312   -6.682526    0.227243
 H   -3.934940   -4.199392   -1.532699
 H   -2.709640   -5.345038   -1.030430
 H   -3.183617   -4.608186    1.405463
 H   -4.229720   -3.364864    0.746566
 H   -2.241109   -2.461945   -0.578558
 H   -2.137577   -2.291940    1.164154
 H   -0.698588   -4.394833    1.248578
 H   -0.738221   -4.450531   -0.508312
 H    2.708187   -1.955691    0.074487
 H    3.595110   -1.152655    2.377701
 H    2.224006   -2.044549    3.081846
 H    3.637104   -4.104180    2.064497
 H    3.683568   -4.224226    0.284093
 H    7.466325   -2.517937    0.886756
 H    6.734783   -0.931686    0.771280
 H    6.984774   -1.047786   -1.770071
 H    8.497631   -0.975981   -0.867080
 H    7.243776   -3.573290   -1.883812
 H    8.816802   -3.409119   -1.108314
 H    9.004007   -3.700376   -3.530975
 H    8.003329   -2.296596   -3.842589
 H   10.702909   -2.195185   -3.921401
 H   10.531867   -1.911823   -2.202750
 H   10.665181    0.236730   -3.465725
 H    9.061175    0.112638   -2.730332
 H    9.270395   -0.229277   -4.449888
 H    0.405164    2.948192   -3.171589
 H    0.576093    5.181299   -2.661608
 H    1.768443    5.407366   -0.693256
 H    0.221477    5.999877   -0.401539
 H    0.717832    4.506679    0.214242
 H   -2.490561    6.154862   -1.301641
 H   -1.704316    4.520911   -2.759624
 H   -2.181956    4.283970    0.159284
 H   -3.382140    2.236205   -1.352286
 H   -1.616977    1.667251   -0.129472
 H    2.360823    3.003405   -0.803924
 H    2.277209    1.764278   -2.065728
 H    2.709326    3.425257   -2.501275
 H   -5.862259    4.043202   -2.948626
 H   -5.462338    2.431032   -2.294006
 H   -6.295931    3.634026   -1.288115
