58 
3o56_ligand_dft.xyz
 C    7.019942   -0.161476    1.022770
 C    6.352440   -0.044893   -0.342827
 N    4.966683    0.371777   -0.234685
 N    4.645848    1.673963   -0.059328
 C    3.338188    1.717999    0.083167
 C    2.763540    0.415025    0.010410
 C    1.480387   -0.190727    0.076786
 N    0.335002    0.464247    0.326669
 C    0.115955    1.891965    0.426992
 C   -1.183146    2.110126    1.208400
 C   -1.617993    3.571319    1.159652
 O   -1.729531    4.039237   -0.168002
 C   -0.488424    3.984303   -0.841704
 C    0.016276    2.549270   -0.957618
 C    1.481211   -1.606145   -0.116270
 C    2.697764   -2.303765   -0.304129
 N    3.897925   -1.764407   -0.343679
 C    3.874162   -0.426000   -0.196090
 C    0.237115   -2.339823   -0.146276
 O    0.236165   -3.673520   -0.206026
 N   -1.097957   -4.090325   -0.237050
 C   -1.763833   -2.971281   -0.194509
 C   -3.256556   -2.906105   -0.254019
 N   -0.981066   -1.851856   -0.136213
 N   -4.002398   -0.572162    0.052355
 C   -3.821647   -1.788988    0.629220
 C   -3.688852   -0.186574   -1.325426
 C   -4.675504    0.490581    0.798876
 O   -4.112151   -2.003587    1.796255
 C   -4.000042    1.315673   -1.360629
 C   -5.084190    1.486073   -0.289044
 H    6.983525    0.797024    1.548424
 H    6.513798   -0.916506    1.631588
 H    8.067485   -0.456036    0.906207
 H    6.349014   -1.006442   -0.861066
 H    6.859669    0.691748   -0.970332
 H    2.862965    2.679197    0.216918
 H   -0.506963   -0.107068    0.270887
 H    0.936990    2.343959    0.995282
 H   -1.059503    1.780808    2.245705
 H   -1.969625    1.489689    0.762105
 H   -0.902652    4.198745    1.718519
 H   -2.603281    3.696270    1.615811
 H    0.252325    4.608058   -0.311591
 H   -0.652773    4.422918   -1.828573
 H   -0.688476    1.968459   -1.565276
 H    0.987077    2.521807   -1.465591
 H    2.652236   -3.382602   -0.433788
 H   -3.668633   -3.847340    0.112869
 H   -3.560520   -2.784863   -1.299619
 H   -4.327401   -0.729484   -2.036087
 H   -2.643371   -0.406119   -1.563368
 H   -3.991359    0.937046    1.531863
 H   -5.518179    0.074805    1.356349
 H   -4.325759    1.639930   -2.352225
 H   -3.118600    1.908286   -1.095516
 H   -5.148521    2.510966    0.084556
 H   -6.064352    1.211703   -0.694749
