58 
3o56_ligand_ani.xyz
 C    7.100427   -0.122327    1.259147
 C    6.461036   -0.261738   -0.116311
 N    5.093097    0.215208   -0.152423
 N    4.826305    1.531198   -0.177825
 C    3.516926    1.643708   -0.174863
 C    2.873601    0.368878   -0.137252
 C    1.567401   -0.177005   -0.123256
 N    0.425383    0.545735   -0.042252
 C    0.243010    1.956701    0.176262
 C   -0.933301    2.144523    1.145830
 C   -1.358895    3.603232    1.239133
 O   -1.661734    4.134363   -0.036670
 C   -0.528643    4.109007   -0.885722
 C   -0.057259    2.683038   -1.141645
 C    1.487503   -1.591292   -0.183089
 C    2.666220   -2.355628   -0.180850
 N    3.902959   -1.872449   -0.162287
 C    3.957231   -0.534411   -0.143009
 C    0.188256   -2.266964   -0.238083
 O    0.155864   -3.596895   -0.117723
 N   -1.173883   -3.997686   -0.204263
 C   -1.821337   -2.881415   -0.367472
 C   -3.308594   -2.818925   -0.526432
 N   -1.020358   -1.770252   -0.401595
 N   -4.190298   -0.612058    0.121863
 C   -3.945807   -1.888948    0.504046
 C   -3.829964    0.019575   -1.144938
 C   -4.876682    0.292500    1.039123
 O   -4.222633   -2.290507    1.623002
 C   -4.237195    1.487555   -0.947628
 C   -5.331110    1.428113    0.126363
 H    7.137279    0.927653    1.563690
 H    6.542004   -0.688822    2.009683
 H    8.124481   -0.507047    1.225707
 H    6.438064   -1.309298   -0.425384
 H    7.024094    0.308623   -0.860954
 H    3.078831    2.634317   -0.228398
 H   -0.424890   -0.000419   -0.149694
 H    1.147181    2.380434    0.632133
 H   -0.674907    1.753966    2.136715
 H   -1.779452    1.548227    0.769773
 H   -0.558474    4.199240    1.709821
 H   -2.263260    3.713675    1.844631
 H    0.287854    4.699483   -0.433575
 H   -0.828190    4.602109   -1.815412
 H   -0.853829    2.136426   -1.668789
 H    0.829218    2.677093   -1.787333
 H    2.578225   -3.439659   -0.202171
 H   -3.716515   -3.818853   -0.368163
 H   -3.540474   -2.503346   -1.549039
 H   -4.387496   -0.434822   -1.974123
 H   -2.761521   -0.118949   -1.339767
 H   -4.187247    0.630329    1.824801
 H   -5.695064   -0.237357    1.530339
 H   -4.586399    1.940557   -1.878842
 H   -3.388037    2.081878   -0.592762
 H   -5.458861    2.372361    0.662442
 H   -6.293983    1.169585   -0.328844
