58 
3o56_ligand_xtb.xyz
 C    6.875317   -0.440303    1.070096
 C    6.379108    0.038601   -0.290574
 N    5.002270    0.446782   -0.224109
 N    4.653191    1.736130   -0.161809
 C    3.347195    1.791967   -0.069766
 C    2.783231    0.492033   -0.065989
 C    1.508816   -0.118180   -0.011289
 N    0.344142    0.512776    0.161811
 C    0.097545    1.919227    0.344321
 C   -1.126553    2.080596    1.250146
 C   -1.556874    3.547367    1.307254
 O   -1.813640    4.064874    0.023081
 C   -0.661377    4.033532   -0.785367
 C   -0.166271    2.603456   -1.006586
 C    1.525890   -1.535567   -0.131071
 C    2.743488   -2.236807   -0.230075
 N    3.930978   -1.688533   -0.244907
 C    3.919908   -0.352383   -0.175130
 C    0.303498   -2.281476   -0.156805
 O    0.311734   -3.621097   -0.147928
 N   -0.989208   -4.028232   -0.201025
 C   -1.694094   -2.934501   -0.242773
 C   -3.174125   -2.930865   -0.332435
 N   -0.925630   -1.810380   -0.216739
 N   -3.975078   -0.651318    0.061558
 C   -3.794641   -1.877907    0.584823
 C   -3.659442   -0.202511   -1.282087
 C   -4.711476    0.358086    0.808232
 O   -4.123788   -2.141066    1.724887
 C   -4.081643    1.268971   -1.300301
 C   -5.204408    1.321030   -0.265370
 H    6.780712    0.353384    1.807385
 H    6.289442   -1.296653    1.393919
 H    7.918941   -0.733440    1.001605
 H    6.457109   -0.770823   -1.020778
 H    6.951328    0.904086   -0.630081
 H    2.871788    2.751775   -0.033944
 H   -0.475124   -0.093532    0.109973
 H    0.965668    2.377432    0.828343
 H   -0.902118    1.721599    2.254951
 H   -1.942782    1.481405    0.844963
 H   -0.774280    4.144585    1.800993
 H   -2.488082    3.656231    1.866673
 H    0.136519    4.634890   -0.321910
 H   -0.946603    4.495658   -1.732359
 H   -0.929198    2.037230   -1.544685
 H    0.742646    2.612719   -1.608843
 H    2.718191   -3.314979   -0.302666
 H   -3.524413   -3.912325   -0.010544
 H   -3.472410   -2.764305   -1.368821
 H   -4.241676   -0.768921   -2.020643
 H   -2.596408   -0.342225   -1.495825
 H   -4.048719    0.858307    1.523328
 H   -5.512037   -0.122433    1.373916
 H   -4.407892    1.584318   -2.289393
 H   -3.264943    1.918570   -0.986716
 H   -5.367628    2.324158    0.120952
 H   -6.135678    0.954835   -0.699102
