36 
3o5n_ligand_dft.xyz
 C    3.343357   -0.830501   -0.549603
 N    1.372256    0.566676   -0.118624
 O    3.918443   -1.877602   -0.714941
 C    1.847104   -0.647548   -0.734674
 C    1.076812   -1.846612   -0.197653
 C   -0.449604   -1.667802   -0.363109
 O    1.737501    3.202411    0.248023
 O   -4.258911   -0.841878    0.245967
 O   -0.077527    4.474357    0.470404
 O   -3.120273   -1.690736   -1.386294
 C   -1.803889    2.437093    0.124408
 C   -2.723836    1.429448   -0.062923
 C    0.126962   -3.120843    1.571114
 C    1.276692   -2.152666    1.288826
 C    0.521049    3.285256    0.274756
 C   -0.430834    2.171337    0.101568
 C   -2.242045    0.139413   -0.270904
 C    0.037229    0.844338   -0.104766
 N   -3.280827   -0.885696   -0.482389
 C   -1.063376   -2.538696    0.785052
 C   -0.899169   -0.213724   -0.276659
 O    3.974011    0.311310   -0.232530
 H    1.993764    1.367500   -0.078039
 H    1.699554   -0.608114   -1.829673
 H    1.387573   -2.724389   -0.773465
 H   -0.764672   -2.056004   -1.333444
 H    0.640806    5.119050    0.566386
 H   -2.139651    3.454059    0.284830
 H   -3.789993    1.614846   -0.046781
 H    0.385774   -4.114079    1.185796
 H   -0.091571   -3.231959    2.636817
 H    2.262336   -2.577913    1.497405
 H    1.165300   -1.233552    1.878084
 H   -1.676333   -1.915338    1.444093
 H   -1.717235   -3.316941    0.385084
 H    4.919688    0.102118   -0.167625
