28 
3o6t_ligand_xtb.xyz
 C    4.705357    0.628799    0.089006
 C    3.531365    1.342704   -0.020477
 C    2.326477    0.647205   -0.037270
 C    2.329683   -0.761376    0.057963
 C    3.512589   -1.471874    0.167815
 C    4.697148   -0.761791    0.181912
 S    0.692880   -1.355454    0.010196
 C    0.158714    0.314258   -0.132046
 N    1.081741    1.199354   -0.141016
 C   -1.296152    0.658763   -0.202649
 C   -1.985980   -0.203433   -1.235210
 C   -3.212516   -0.688237   -1.074868
 C   -4.038880   -0.422694    0.118123
 C   -3.443491    0.571125    1.086288
 C   -1.931195    0.416451    1.183339
 O   -1.451070    2.007897   -0.594266
 O   -5.122163   -0.935430    0.279518
 H    5.648572    1.153477    0.102700
 H    3.523639    2.418248   -0.093638
 H    3.502592   -2.548030    0.239313
 H    5.632145   -1.294379    0.266095
 H   -1.432179   -0.372565   -2.148383
 H   -3.674079   -1.301013   -1.836455
 H   -3.917796    0.461952    2.062292
 H   -3.670273    1.569085    0.700023
 H   -1.521510    1.139468    1.891389
 H   -1.676749   -0.590275    1.521661
 H   -0.605489    2.456678   -0.454589
