39 
3o84_ligand_ani.xyz
 C   -5.463937   -1.213690    0.459512
 C   -4.678920   -0.773550   -0.602177
 C   -3.296962   -0.775457   -0.457728
 C   -2.769197   -1.221783    0.750342
 C   -3.640353   -1.643798    1.746458
 N   -4.969014   -1.645898    1.619135
 C   -2.375063   -0.323712   -1.565958
 N   -1.538011    0.789178   -1.173368
 C   -0.266825    0.717141   -0.683152
 C    0.117207    2.030255   -0.331659
 C   -1.036768    2.797609   -0.691643
 N   -2.002713    2.049969   -1.183961
 N    0.456670   -0.388172   -0.574006
 C    1.715463   -0.217545   -0.150111
 C    2.213263    1.041133    0.245423
 C    1.422677    2.169935    0.190451
 C    2.005067    3.466556    0.674320
 O    3.185160    3.685347    0.723539
 O    1.099077    4.376868    1.073974
 C    2.552156   -1.444070   -0.100776
 C    1.933988   -2.694449   -0.037268
 C    2.693094   -3.856359    0.030898
 C    4.082825   -3.785646    0.019509
 C    4.708642   -2.544824   -0.065800
 C    3.948368   -1.383106   -0.125669
 H   -6.549372   -1.219040    0.368292
 H   -5.142307   -0.432130   -1.524555
 H   -1.692816   -1.232527    0.907176
 H   -3.250442   -2.001456    2.697709
 H   -2.954682   -0.002860   -2.433950
 H   -1.705743   -1.137876   -1.860259
 H   -1.205995    3.869052   -0.681397
 H    3.219235    1.155291    0.636089
 H    0.223655    3.962899    1.046676
 H    0.849887   -2.744748   -0.046997
 H    2.195377   -4.821311    0.087669
 H    4.676159   -4.694467    0.071916
 H    5.793393   -2.478429   -0.082583
 H    4.452885   -0.423506   -0.210346
