36 
3o8g_ligand_dft.xyz
 C   -0.851517   -0.448376    1.527562
 C   -2.330978   -0.738614    1.781299
 N   -3.063332   -0.802302    0.522039
 C   -2.564504   -1.810262   -0.399592
 C   -1.093344   -1.557360   -0.736262
 C   -0.260167   -1.480526    0.559622
 C   -3.942425    0.197283    0.214560
 O   -4.238684    1.082228    0.998302
 C   -4.602805    0.138117   -1.174502
 N    1.847568   -0.107900    0.491204
 C    1.168487   -1.183380    0.246037
 O    1.870782   -2.117098   -0.401862
 N    3.144118   -1.600285   -0.602383
 C    3.076020   -0.413225   -0.055664
 C    4.191295    0.515411   -0.020475
 C    4.179698    1.768793    0.530435
 C    5.430641    2.431854    0.402956
 C    6.360703    1.667522   -0.240690
 S    5.736234    0.132051   -0.702768
 N   -5.383477    1.325271   -1.480289
 N   -6.296875    1.588080   -0.688313
 N   -7.181314    1.943025   -0.077310
 H   -0.299726   -0.458032    2.472704
 H   -0.744981    0.555267    1.102266
 H   -2.786309    0.040111    2.391767
 H   -2.448204   -1.700225    2.300136
 H   -3.166396   -1.838331   -1.307786
 H   -2.669861   -2.794177    0.078760
 H   -1.004220   -0.608966   -1.280655
 H   -0.714459   -2.353514   -1.384999
 H   -0.288697   -2.472402    1.033427
 H   -5.214064   -0.774149   -1.245268
 H   -3.847075    0.086120   -1.961317
 H    3.300029    2.185898    1.005191
 H    5.627974    3.430551    0.772981
 H    7.386022    1.923344   -0.470801
