36 
3o8g_ligand_ani.xyz
 C   -0.809472    0.913094    0.789612
 C   -2.248597    0.956427    1.287589
 N   -3.049311   -0.052429    0.602724
 C   -2.553766   -1.415824    0.721395
 C   -1.115712   -1.516211    0.217342
 C   -0.236342   -0.497002    0.950084
 C   -4.161298    0.343857   -0.099229
 O   -4.487174    1.510464   -0.206613
 C   -4.997485   -0.761166   -0.750372
 N    2.089997    0.379255    0.464505
 C    1.195410   -0.564130    0.516051
 O    1.684939   -1.761378    0.168827
 N    3.021063   -1.588806   -0.138098
 C    3.206704   -0.308429    0.053430
 C    4.501771    0.326103   -0.147335
 C    4.812473    1.647547    0.008816
 C    6.186619    1.913874   -0.265350
 C    6.871224    0.786526   -0.619766
 S    5.870218   -0.609823   -0.629630
 N   -6.141705   -0.232355   -1.484551
 N   -6.895245    0.462227   -0.789093
 N   -7.670879    1.105175   -0.278538
 H   -0.190899    1.636093    1.329189
 H   -0.789212    1.191092   -0.270430
 H   -2.716808    1.924446    1.101077
 H   -2.274316    0.765317    2.371646
 H   -3.201664   -2.100886    0.171652
 H   -2.582293   -1.718057    1.779439
 H   -1.090819   -1.308766   -0.858997
 H   -0.737320   -2.531905    0.362737
 H   -0.241560   -0.750940    2.023549
 H   -5.317855   -1.489853    0.011689
 H   -4.386373   -1.293011   -1.487591
 H    4.074603    2.384601    0.308328
 H    6.643793    2.895498   -0.201568
 H    7.918491    0.701383   -0.876605
