40 
3o8p_ligand_dft.xyz
 C    0.442005    0.388378   -0.014260
 O    0.328426   -0.797210   -0.248541
 N    1.645712    1.054635    0.125112
 C    2.939837    0.506093    0.064686
 C    4.014685    1.400924    0.095869
 C    5.324267    0.944212    0.059640
 C    5.566007   -0.422283   -0.007850
Cl    7.212951   -1.008879   -0.054772
 C    4.509086   -1.322491   -0.039482
 C    3.196083   -0.866695   -0.003388
 N   -0.641871    1.244623    0.139612
 C   -1.968341    0.803635    0.080351
 C   -2.555454   -0.438918    0.145339
 C   -3.941433   -0.174471    0.023236
 N   -4.180712    1.124244   -0.099488
 N   -2.963297    1.713650   -0.080237
 C   -2.849491    3.146572   -0.185072
 C   -5.006705   -2.006976    1.322686
 C   -4.871774   -2.136498   -1.181112
 C   -6.423890   -0.495593   -0.090088
 C   -5.062197   -1.191430    0.018847
 H    1.616265    2.063193    0.122300
 H    3.830742    2.471529    0.150378
 H    6.150087    1.646522    0.083616
 H    4.705804   -2.387634   -0.094157
 H    2.374031   -1.567019   -0.038423
 H   -0.486834    2.116108    0.625801
 H   -2.048878   -1.383746    0.247246
 H   -2.610496    3.609457    0.780816
 H   -2.082793    3.415082   -0.918888
 H   -3.815881    3.520247   -0.521769
 H   -4.049528   -2.529615    1.426639
 H   -5.133730   -1.356525    2.194783
 H   -5.804761   -2.758679    1.335783
 H   -4.905571   -1.579479   -2.123489
 H   -3.908727   -2.656031   -1.130308
 H   -5.665190   -2.893096   -1.199999
 H   -6.589110    0.183989    0.751416
 H   -6.494388    0.092736   -1.009693
 H   -7.223561   -1.245235   -0.094013
