80 
3o9b_ligand_dft.xyz
 C   -4.804463   -2.162650    1.152547
 O   -5.149086   -2.561031   -0.151322
 C   -3.304783   -2.035589    1.334260
 C   -2.733112   -0.940958    1.980071
 C   -1.350872   -0.835744    2.125335
 C   -0.540622   -1.852078    1.631795
 C   -1.093618   -2.959527    0.986730
 C   -2.468175   -3.035572    0.827348
 S    1.231544   -1.737074    1.821055
 O    1.715152   -2.952313    2.452842
 O    1.512512   -0.427567    2.389900
 N    1.856257   -1.720789    0.271243
 C    2.037915   -3.005978   -0.422443
 C    3.410946   -3.086814   -1.102404
 C    4.516144   -3.265343   -0.059460
 C    3.425236   -4.180945   -2.182820
 C    1.438913   -0.590352   -0.569730
 C    2.374642    0.616886   -0.426679
 C    3.112751   -5.596196   -1.691838
 O    3.721919    0.213807   -0.557121
 C    2.104496    1.668349   -1.513069
 N    0.751863    2.184053   -1.379477
 C   -0.310751    1.604329   -1.985361
 O   -0.271551    0.749475   -2.848837
 O   -1.460529    2.112643   -1.475517
 C   -2.664552    1.503487   -1.920308
 C   -2.803011    0.027810   -1.527477
 O   -4.212500   -0.179400   -1.489802
 C   -4.860954    0.995614   -1.061475
 O   -5.229509    0.908136    0.293611
 C   -4.833650    2.091808    0.971124
 C   -3.552587    2.528984    0.273468
 C   -3.842081    2.151813   -1.188149
 C    3.116340    2.829483   -1.484428
 C    3.743927    3.253107    0.928939
 C    3.638985    3.978455    2.110683
 C    2.839830    5.118370    2.164783
 C    2.149150    5.528822    1.029031
 C    2.255297    4.799609   -0.153436
 C    3.050150    3.651500   -0.218437
 H   -5.287832   -1.217735    1.428920
 H   -5.181287   -2.943248    1.823179
 H   -4.904599   -1.822178   -0.734937
 H   -3.376230   -0.153333    2.363247
 H   -0.896517    0.019009    2.615050
 H   -0.456260   -3.758615    0.622279
 H   -2.914548   -3.875229    0.304090
 H    1.233264   -3.136861   -1.161353
 H    1.952887   -3.803337    0.318877
 H    3.581796   -2.130338   -1.613642
 H    4.434079   -4.231781    0.449006
 H    4.453323   -2.499224    0.720968
 H    5.506316   -3.202659   -0.522296
 H    2.703165   -3.906789   -2.963443
 H    4.411119   -4.176227   -2.663854
 H    0.404345   -0.305312   -0.342727
 H    1.449764   -0.936854   -1.606230
 H    2.208374    1.072063    0.558787
 H    3.145776   -6.306272   -2.524090
 H    2.113694   -5.662670   -1.246549
 H    3.834251   -5.935915   -0.942033
 H    3.849450   -0.492840    0.092237
 H    2.166977    1.184114   -2.491869
 H    0.560737    2.806969   -0.606211
 H   -2.752925    1.614117   -3.004382
 H   -2.381400   -0.659876   -2.257818
 H   -2.344353   -0.152762   -0.546237
 H   -5.762430    1.093406   -1.673264
 H   -4.701370    1.846782    2.027977
 H   -5.619960    2.856419    0.890372
 H   -2.704250    1.955913    0.658699
 H   -3.329368    3.590040    0.400907
 H   -4.257365    2.998436   -1.739282
 H    2.914660    3.464622   -2.353473
 H    4.113602    2.400165   -1.607068
 H    4.358893    2.357935    0.887300
 H    4.180654    3.651199    2.993100
 H    2.758548    5.683844    3.088288
 H    1.530898    6.421571    1.059296
 H    1.722365    5.129689   -1.042660
