79 
3o9c_ligand_ani.xyz
 C   -6.685949    0.591290   -0.749060
 O   -6.025738   -0.496137   -0.111064
 C   -4.690665   -0.318976   -0.351996
 O   -5.696744    1.536484   -1.143615
 C   -4.493867    0.911368   -0.973977
 C   -3.240932    1.366736   -1.307488
 C   -2.166278    0.525790   -0.985019
 C   -2.359326   -0.710215   -0.375016
 C   -3.642745   -1.152002   -0.036269
 S   -0.525658    1.072215   -1.379186
 O    0.336733   -0.101707   -1.408552
 O   -0.609105    1.940168   -2.539315
 N   -0.032745    2.023942   -0.078408
 C   -0.691818    3.339000    0.002421
 C    0.144119    4.408714    0.710539
 C    1.408233    4.727778   -0.094003
 C   -0.730750    5.651537    0.933699
 C    0.144919    1.343242    1.211329
 C    1.566191    1.419424    1.793707
 C   -0.030539    6.778124    1.690183
 O    1.522098    1.115756    3.164595
 C    2.621676    0.542680    1.068095
 N    2.124093   -0.753634    0.651427
 C    1.664124   -1.669800    1.529738
 O    1.765879   -1.605901    2.749655
 O    1.033619   -2.678420    0.890124
 C    0.359027   -3.652192    1.725619
 C   -0.932553   -3.073092    2.295863
 O   -1.937339   -3.295865    1.318319
 C   -1.647866   -4.491102    0.614856
 O   -1.819348   -4.332500   -0.759169
 C   -0.553948   -4.096960   -1.375351
 C    0.440112   -4.912113   -0.550018
 C   -0.143000   -4.815097    0.860548
 C    3.245273    1.267852   -0.135408
 C    4.002228   -0.214547   -2.039986
 C    4.974364   -0.971863   -2.688869
 C    6.254248   -1.074038   -2.152007
 C    6.559043   -0.416831   -0.963451
 C    5.586240    0.340918   -0.318882
 C    4.301022    0.456692   -0.851226
 H   -7.376612    1.061754   -0.043398
 H   -7.221146    0.227190   -1.636869
 H   -3.078253    2.317234   -1.805748
 H   -1.503393   -1.345475   -0.162882
 H   -3.787622   -2.109254    0.450552
 H   -1.665992    3.234371    0.507253
 H   -0.886208    3.673257   -1.020985
 H    0.438841    4.041012    1.706351
 H    1.958495    3.816283   -0.349723
 H    2.083316    5.386108    0.461423
 H    1.147170    5.224595   -1.038025
 H   -1.629721    5.348083    1.487222
 H   -1.078951    6.018082   -0.042986
 H   -0.178980    0.298768    1.145317
 H   -0.510333    1.822455    1.945060
 H    1.912094    2.458530    1.722717
 H   -0.723069    7.597915    1.908363
 H    0.801968    7.196690    1.114312
 H    0.372673    6.421122    2.645417
 H    1.569632    0.144071    3.251896
 H    3.399759    0.361959    1.822637
 H    1.765112   -0.826254   -0.295386
 H    1.054132   -3.967564    2.506194
 H   -0.866368   -2.001414    2.487556
 H   -1.188404   -3.580377    3.238001
 H   -2.355714   -5.263469    0.947440
 H   -0.326052   -3.024741   -1.351218
 H   -0.632094   -4.415816   -2.418938
 H    0.436914   -5.955228   -0.886049
 H    1.461657   -4.533780   -0.613154
 H   -0.025455   -5.751100    1.417429
 H    2.452857    1.549440   -0.839189
 H    3.701808    2.196383    0.233912
 H    2.996651   -0.146214   -2.456930
 H    4.729999   -1.485233   -3.615270
 H    7.012901   -1.665631   -2.658489
 H    7.557204   -0.492656   -0.538818
 H    5.828318    0.852399    0.611604
