81 
3o9e_ligand_dft.xyz
 N    7.738499   -0.404995    1.486173
 C    6.656524    0.026047    0.739481
 C    5.955825   -0.867513   -0.084536
 C    4.843932   -0.448094   -0.795114
 C    4.414083    0.873513   -0.694539
 C    5.100672    1.775917    0.118270
 C    6.212452    1.356352    0.827654
 S    2.930582    1.389452   -1.510289
 O    2.674143    0.428341   -2.583183
 O    3.030333    2.812115   -1.784874
 N    1.692700    1.183415   -0.425927
 C    1.526425    2.176773    0.638521
 C    0.046209    2.467627    0.926270
 C   -0.620448    3.144751   -0.278650
 C   -0.094491    3.255395    2.240756
 C    1.312422   -0.198531   -0.106008
 C    0.060781   -0.631793   -0.887203
 C    0.484976    4.671227    2.224128
 O    0.350782   -1.119509   -2.175437
 C   -0.788638   -1.697943   -0.170999
 C   -2.121706    3.366897   -0.100023
 N   -2.156209   -1.662393   -0.672325
 C   -3.011582   -0.707244   -0.223916
 O   -2.827133    0.003118    0.748714
 O   -4.124924   -0.671890   -0.987998
 C   -5.093783    0.307560   -0.626349
 C   -6.242089    0.244988   -1.632676
 O   -7.302338    0.896747   -0.961939
 C   -7.273194    0.491266    0.376423
 O   -8.076486   -0.651734    0.570264
 C   -7.419783   -1.511784    1.482651
 C   -5.935718   -1.397130    1.135898
 C   -5.814067    0.073854    0.713295
 C   -0.260039   -3.133317   -0.310944
 C    2.213767   -3.533936   -0.639019
 C    3.509649   -3.651797   -0.143930
 C    3.752156   -3.531814    1.221482
 C    2.687606   -3.312326    2.091492
 C    1.392005   -3.211056    1.594582
 C    1.139418   -3.310558    0.224246
 H    8.206916   -1.235331    1.154510
 H    8.381593    0.309002    1.795176
 H    6.286961   -1.899407   -0.164668
 H    4.312258   -1.139758   -1.439314
 H    4.774633    2.809413    0.174887
 H    6.750429    2.060685    1.456234
 H    2.021719    3.093494    0.311491
 H    2.028940    1.823388    1.553263
 H   -0.468572    1.509468    1.089972
 H   -0.446409    2.519330   -1.161616
 H   -0.119161    4.097820   -0.492077
 H   -1.157194    3.305875    2.502995
 H    0.384308    2.679325    3.044077
 H    1.121234   -0.242690    0.970733
 H    2.139046   -0.887182   -0.300179
 H   -0.573789    0.264976   -0.950649
 H    1.556732    4.674245    1.995863
 H   -0.014412    5.302199    1.481615
 H    0.357310    5.148845    3.200940
 H    1.028600   -0.541565   -2.567142
 H   -0.854131   -1.428378    0.887064
 H   -2.576384    3.720006   -1.031731
 H   -2.614548    2.433497    0.195056
 H   -2.333155    4.116314    0.671053
 H   -2.310533   -1.995844   -1.614071
 H   -4.622979    1.294154   -0.636325
 H   -6.487448   -0.802184   -1.859568
 H   -6.047188    0.778298   -2.564453
 H   -7.664125    1.325992    0.968015
 H   -7.608714   -1.194063    2.520119
 H   -7.831703   -2.514953    1.349580
 H   -5.693808   -2.061460    0.300764
 H   -5.274264   -1.647867    1.968090
 H   -5.379895    0.683529    1.505351
 H   -0.285441   -3.412323   -1.368521
 H   -0.954196   -3.793057    0.222127
 H    2.031165   -3.591043   -1.708131
 H    4.332525   -3.831760   -0.830956
 H    4.763862   -3.610273    1.608251
 H    2.866220   -3.221349    3.158813
 H    0.564146   -3.044280    2.280699
