83 
3o9f_ligand_ani.xyz
 C    8.217677   -1.203811   -0.672759
 O    7.752775    0.104186   -0.430869
 C    6.441088    0.357238   -0.688759
 C    5.545531   -0.582552   -1.201669
 C    4.219313   -0.217635   -1.422615
 C    3.795255    1.071672   -1.130068
 C    4.694055    2.015433   -0.640258
 C    6.010263    1.658968   -0.414833
 S    2.098877    1.518562   -1.370034
 O    2.022010    2.953742   -1.573171
 O    1.562141    0.596686   -2.371547
 N    1.343487    1.176409    0.064908
 C    1.168118    2.215877    1.074616
 C   -0.303803    2.527535    1.381122
 C   -1.022588    3.041679    0.120954
 C   -0.408731    3.483677    2.583758
 C    1.146656   -0.213274    0.469691
 C   -0.164557   -0.818010   -0.062800
 C    0.108959    4.901623    2.331349
 O    0.003961   -1.440318   -1.315400
 C   -0.793197   -1.839749    0.895963
 C   -2.479489    3.422379    0.378991
 N   -2.214976   -2.001424    0.647103
 C   -3.082998   -0.968987    0.846809
 O   -2.815954    0.096911    1.368079
 O   -4.310776   -1.304795    0.385902
 C   -5.310427   -0.280018    0.488222
 C   -5.179870    0.775389   -0.606593
 O   -6.486334    1.322920   -0.712508
 C   -7.421793    0.299457   -0.525307
 O   -7.840592   -0.232077   -1.761519
 C   -7.909939   -1.645370   -1.659692
 C   -6.768252   -2.034168   -0.724995
 C   -6.714423   -0.849685    0.247662
 C   -0.146188   -3.229504    0.803467
 C    2.199686   -3.402533   -0.118938
 C    3.581442   -3.326034    0.031439
 C    4.135745   -3.098987    1.289272
 C    3.302437   -2.939648    2.392036
 C    1.921413   -3.007590    2.235233
 C    1.353255   -3.243941    0.980506
 H    7.668844   -1.944156   -0.072846
 H    9.269868   -1.211785   -0.383889
 H    8.131420   -1.471104   -1.734545
 H    5.875267   -1.589373   -1.438851
 H    3.512053   -0.932947   -1.836942
 H    4.355901    3.030661   -0.451158
 H    6.733993    2.370465   -0.029017
 H    1.685998    3.112835    0.725660
 H    1.665178    1.874378    1.992414
 H   -0.811740    1.592318    1.668872
 H   -0.984182    2.255469   -0.646144
 H   -0.478800    3.895186   -0.311227
 H    0.141791    3.042685    3.425876
 H   -1.455506    3.535301    2.909680
 H    1.118609   -0.213140    1.564272
 H    2.002096   -0.824009    0.166402
 H   -0.884405    0.013208   -0.153257
 H   -0.458173    5.400727    1.538284
 H    1.164176    4.903441    2.035456
 H    0.020673    5.514989    3.234280
 H    0.470131   -0.803831   -1.887899
 H   -0.698885   -1.450083    1.917508
 H   -2.559214    4.327704    0.988883
 H   -2.991806    2.610094    0.907323
 H   -3.009133    3.615970   -0.559656
 H   -2.485334   -2.656810   -0.071983
 H   -5.243987    0.188775    1.473845
 H   -4.476415    1.573962   -0.355501
 H   -4.876488    0.318605   -1.557919
 H   -8.287409    0.746429   -0.017285
 H   -8.884940   -1.959403   -1.254538
 H   -7.810486   -2.048176   -2.671560
 H   -6.926865   -2.991281   -0.223515
 H   -5.832455   -2.097577   -1.286997
 H   -7.221444   -1.076520    1.191976
 H   -0.627092   -3.854141    1.566555
 H   -0.398689   -3.650192   -0.175183
 H    1.762677   -3.548445   -1.104768
 H    4.226701   -3.438902   -0.838221
 H    5.215156   -3.051443    1.415102
 H    3.725713   -2.761370    3.376962
 H    1.269909   -2.865019    3.097469
