83 
3o9g_ligand_ani.xyz
 C    3.948913   -2.399168   -2.096140
 O    4.229843   -3.509892   -1.280203
 C    2.480905   -2.013099   -2.072144
 C    1.517573   -2.995193   -1.818790
 C    0.165614   -2.686335   -1.815995
 C   -0.235836   -1.374966   -2.052482
 C    0.704302   -0.381339   -2.311984
 C    2.057356   -0.700825   -2.313072
 O    5.624587   -1.287902    0.389808
 S   -1.959917   -0.988671   -1.967159
 O   -2.694716   -2.065970   -2.610831
 O   -2.153841    0.387067   -2.416216
 N   -2.310495   -1.024858   -0.327860
 C   -2.716834   -2.305950    0.253362
 C   -3.820075   -2.171289    1.316464
 C   -4.235095   -3.578563    1.775604
 C   -4.993775   -1.297589    0.837728
 C   -1.517732   -0.151289    0.542442
 C   -1.697395    1.357849    0.272770
 C   -5.654552   -1.762904   -0.460763
 O   -3.050030    1.678726    0.014677
 C   -1.219056    2.193759    1.478921
 C   -5.159270   -3.600107    2.991389
 N    0.227577    2.161168    1.616381
 C    0.839142    1.110754    2.236146
 O    0.308121    0.318311    2.987731
 O    2.141496    1.065170    1.869205
 C    2.831046   -0.145757    2.220360
 C    2.377043   -1.337560    1.365215
 O    3.548411   -2.092354    1.052215
 C    4.734540   -1.420890    1.466450
 C    5.867815    0.094987    0.118270
 C    4.670164    0.850226    0.690598
 C    4.315468   -0.007512    1.910969
 C   -1.705519    3.649800    1.432322
 C   -1.732247    4.446095   -0.973391
 C   -1.177357    5.164685   -2.027859
 C   -0.010440    5.900428   -1.839073
 C    0.598426    5.914274   -0.588097
 C    0.043347    5.192427    0.465671
 C   -1.127692    4.449490    0.287954
 H    4.250795   -2.677503   -3.114835
 H    4.554787   -1.529661   -1.806127
 H    4.150870   -3.195302   -0.361003
 H    1.855958   -4.007774   -1.609979
 H   -0.577006   -3.460055   -1.638066
 H    0.368993    0.629932   -2.521366
 H    2.791981    0.081217   -2.500390
 H   -3.065668   -2.941447   -0.564405
 H   -1.840919   -2.803419    0.700786
 H   -3.383882   -1.671916    2.198407
 H   -4.708604   -4.111933    0.939512
 H   -3.320759   -4.138712    2.012138
 H   -5.746828   -1.258070    1.634598
 H   -4.632472   -0.269735    0.704359
 H   -0.449935   -0.409717    0.482264
 H   -1.829219   -0.358065    1.568785
 H   -1.077680    1.628225   -0.595350
 H   -6.028733   -2.790860   -0.386531
 H   -4.957737   -1.720063   -1.306377
 H   -6.505811   -1.120773   -0.707977
 H   -3.222556    1.352924   -0.882725
 H   -1.626030    1.731065    2.384831
 H   -6.120498   -3.118477    2.782049
 H   -4.704756   -3.079461    3.842404
 H   -5.370151   -4.627693    3.305332
 H    0.781110    2.619716    0.904985
 H    2.668062   -0.351647    3.282513
 H    1.677022   -1.979070    1.910913
 H    1.899065   -1.009604    0.433106
 H    5.204009   -2.040940    2.242838
 H    5.983328    0.198851   -0.965521
 H    6.809854    0.405479    0.592836
 H    3.849453    0.853634   -0.035471
 H    4.906784    1.885199    0.946011
 H    4.881654    0.315678    2.791618
 H   -1.413189    4.115319    2.380444
 H   -2.798601    3.650395    1.381816
 H   -2.637899    3.861772   -1.125219
 H   -1.658926    5.151327   -3.002110
 H    0.421997    6.461346   -2.663411
 H    1.509796    6.484989   -0.430519
 H    0.527814    5.197530    1.441584
