55 
3o9p_ligand_dft.xyz
 C   -4.230087   -1.689690    1.557153
 N   -3.768472   -2.677080   -0.663170
 O   -2.207999   -0.714509   -1.134500
 C   -4.156687   -1.418321    0.058855
 N   -3.202795    0.819441    0.233422
 O   -2.642544    4.071962   -1.151229
 C   -3.090247   -0.386236   -0.349817
 N    0.173974   -0.828494    0.872635
 O   -4.492434    3.045883   -0.372829
 C   -2.366277    1.943978   -0.158290
 N    3.449269    1.982316   -0.380822
 O    0.874950    1.059671   -0.150905
 C   -3.304280    3.070759   -0.580646
 O    0.372481   -3.791141   -1.127256
 C   -1.445940    2.429148    0.980308
 O   -1.169126   -3.101471    0.347600
 C   -0.676256    1.303578    1.675186
 O    6.470470    0.027776   -0.281683
 C    0.187599    0.507591    0.719594
 O    5.531973    1.534048    1.114537
 C    0.800147   -1.738380   -0.063623
 C   -0.115492   -2.937614   -0.246537
 C    2.218332   -2.177890    0.361423
 C    3.220596   -1.022987    0.449498
 C    3.610412   -0.462341   -0.924467
 C    5.528181    0.862683    0.109102
 C    4.350762    0.879358   -0.866822
 H   -3.258598   -2.014641    1.941781
 H   -4.527983   -0.783670    2.088855
 H   -4.976545   -2.456283    1.784178
 H   -2.869524   -3.035383   -0.279748
 H   -4.490763   -3.397873   -0.584671
 H   -3.589053   -2.471489   -1.651925
 H   -5.132822   -1.116224   -0.334453
 H   -4.088666    1.086933    0.652276
 H   -3.277747    4.777372   -1.366052
 H   -0.465629   -1.238030    1.539498
 H   -1.760364    1.629593   -1.012239
 H    2.451927    1.674922   -0.288387
 H    3.811586    2.274530    0.544715
 H    3.476828    2.799281   -0.994681
 H   -0.196802   -4.576986   -1.183125
 H   -0.749835    3.156961    0.556773
 H   -2.039032    2.950443    1.739299
 H   -1.365145    0.644717    2.212440
 H   -0.014623    1.747481    2.428339
 H    7.204414    0.041803    0.358601
 H    0.835252   -1.234222   -1.036082
 H    2.578645   -2.927148   -0.350425
 H    2.150789   -2.667355    1.339028
 H    4.119996   -1.395761    0.951284
 H    2.813753   -0.240789    1.101346
 H    2.732217   -0.318472   -1.561868
 H    4.265268   -1.169364   -1.442266
 H    4.711891    1.146809   -1.862307
