55 
3o9p_ligand_ani.xyz
 C   -4.233499   -1.746968    1.403855
 N   -3.424984   -2.746139   -0.745078
 O   -1.970736   -0.693293   -1.054040
 C   -3.986206   -1.521384   -0.087065
 N   -3.195726    0.811513    0.147361
 O   -2.516379    4.100967   -1.119331
 C   -2.953055   -0.418464   -0.375395
 N    0.224486   -0.818355    1.002575
 O   -4.427098    3.127290   -0.457132
 C   -2.345729    1.949336   -0.129163
 N    3.375768    1.993171   -0.298509
 O    0.765527    1.103887   -0.070632
 C   -3.226257    3.094545   -0.589043
 O    0.028208   -3.586405   -1.264707
 C   -1.528543    2.410401    1.095383
 O   -1.073825   -3.160298    0.637873
 C   -0.772999    1.265962    1.775543
 O    6.363915   -0.059712   -0.342614
 C    0.134963    0.519275    0.815729
 O    5.535829    1.489426    1.061880
 C    0.754555   -1.702536   -0.011438
 C   -0.198126   -2.876232   -0.154961
 C    2.183228   -2.199634    0.299415
 C    3.207397   -1.067483    0.363697
 C    3.506450   -0.422350   -0.993023
 C    5.446748    0.829878    0.051324
 C    4.242990    0.919958   -0.880056
 H   -3.300875   -2.024793    1.908068
 H   -4.629776   -0.848919    1.882778
 H   -4.957770   -2.553726    1.550510
 H   -2.813005   -3.224696   -0.052393
 H   -4.144998   -3.392031   -1.105331
 H   -2.813738   -2.387857   -1.504950
 H   -4.921903   -1.248340   -0.583211
 H   -4.134998    1.034451    0.456921
 H   -3.153281    4.796160   -1.356199
 H   -0.403735   -1.250586    1.667450
 H   -1.654108    1.672571   -0.927925
 H    2.415318    1.646164   -0.123948
 H    3.840997    2.253163    0.597268
 H    3.323422    2.821964   -0.912670
 H   -0.627255   -4.305793   -1.271602
 H   -0.826304    3.177044    0.757630
 H   -2.197027    2.877449    1.828100
 H   -1.477294    0.562356    2.234378
 H   -0.151267    1.670100    2.585891
 H    7.070552   -0.048698    0.325253
 H    0.755115   -1.169273   -0.967274
 H    2.462555   -2.936513   -0.463048
 H    2.164503   -2.726498    1.261717
 H    4.146085   -1.450051    0.779225
 H    2.848794   -0.307039    1.068331
 H    2.583525   -0.221723   -1.549874
 H    4.105747   -1.101520   -1.605589
 H    4.598871    1.224573   -1.863124
