48 
3ocg_ligand_ani.xyz
 N    4.661312    0.041834    0.059987
 N    4.627386    1.375344    0.330415
 C    3.349386    1.689879    0.365437
 C    2.509609    0.576528    0.097091
 C    3.406740   -0.465646   -0.120709
 N    3.150918   -1.777939   -0.420321
 C    1.048625    0.416741   -0.006416
 O    0.537222   -0.659198   -0.316080
 N    0.328198    1.549010    0.251867
 C   -1.072114    1.736057    0.166327
 C   -1.555222    3.047098   -0.029356
 C   -2.933195    3.235507   -0.068010
 C   -3.819460    2.172990    0.068869
 C   -3.326674    0.882351    0.247704
 C   -1.951541    0.670048    0.305625
 C   -4.231259   -0.306503    0.433095
 O   -3.915265   -1.263002    1.103884
 N   -5.435439   -0.207183   -0.247277
 C   -6.460825   -1.145993   -0.238008
 N   -6.492773   -2.155233    0.601183
 O   -7.659687   -2.824693    0.315274
 C   -8.300950   -2.207972   -0.681419
 C   -7.604116   -1.124227   -1.093960
 C   -0.621579    4.218802   -0.196309
 C    5.913667   -0.630624   -0.009066
 C    6.050482   -1.953292    0.414789
 C    7.293078   -2.571589    0.330152
 C    8.392892   -1.883655   -0.171600
 C    8.249657   -0.559498   -0.577050
 C    7.016673    0.073890   -0.486803
 H    3.089393    2.721148    0.576709
 H    3.767622   -2.196476   -1.106273
 H    2.161782   -1.921588   -0.603817
 H    0.861786    2.373590    0.473519
 H   -3.324620    4.240076   -0.219370
 H   -4.889443    2.364205    0.074318
 H   -1.559180   -0.327328    0.463562
 H   -5.519510    0.537811   -0.919406
 H   -9.236683   -2.659658   -0.981895
 H   -7.856820   -0.419720   -1.874336
 H   -0.049790    4.432145    0.716703
 H    0.096123    4.060191   -1.011277
 H   -1.190580    5.122759   -0.433612
 H    5.191573   -2.482816    0.813209
 H    7.396330   -3.604199    0.653321
 H    9.359921   -2.374161   -0.240109
 H    9.105714   -0.009451   -0.959815
 H    6.897758    1.112443   -0.779328
