48 
3ocg_ligand_xtb.xyz
 N    4.622366    0.026927    0.002304
 N    4.574717    1.378590    0.096941
 C    3.310759    1.706124    0.147223
 C    2.475587    0.568406    0.065409
 C    3.374813   -0.504022   -0.034001
 N    3.062934   -1.818972   -0.109315
 C    1.033813    0.392255    0.006996
 O    0.525620   -0.705970   -0.175112
 N    0.323915    1.557070    0.140946
 C   -1.055673    1.744361    0.150959
 C   -1.556682    3.052340    0.035264
 C   -2.929172    3.242369    0.062930
 C   -3.808102    2.181114    0.184737
 C   -3.309126    0.888148    0.299461
 C   -1.936303    0.678544    0.295419
 C   -4.194405   -0.297264    0.490106
 O   -3.926006   -1.225359    1.206506
 N   -5.357942   -0.218133   -0.254505
 C   -6.366968   -1.150139   -0.278112
 N   -6.435930   -2.197731    0.503946
 O   -7.573054   -2.857841    0.179468
 C   -8.201092   -2.209782   -0.802684
 C   -7.494538   -1.103948   -1.153642
 C   -0.635831    4.229765   -0.105973
 C    5.863173   -0.621541   -0.049838
 C    6.042680   -1.883524    0.507124
 C    7.284000   -2.490631    0.432843
 C    8.346417   -1.845476   -0.176842
 C    8.170568   -0.576513   -0.705366
 C    6.934407    0.037011   -0.645989
 H    3.044830    2.742120    0.235981
 H    3.695651   -2.438257   -0.589273
 H    2.066293   -1.957863   -0.259250
 H    0.874967    2.397326    0.223362
 H   -3.320086    4.247001   -0.012647
 H   -4.870285    2.373559    0.230029
 H   -1.559178   -0.325328    0.399246
 H   -5.458583    0.551929   -0.899384
 H   -9.121927   -2.628564   -1.156390
 H   -7.717178   -0.372573   -1.901300
 H   -0.020331    4.353899    0.786493
 H    0.021942    4.112382   -0.967825
 H   -1.211625    5.141487   -0.242209
 H    5.230897   -2.370970    1.023884
 H    7.422115   -3.470338    0.865365
 H    9.311904   -2.325340   -0.229372
 H    9.000290   -0.063797   -1.168181
 H    6.777457    1.026851   -1.043793
