80 
3oev_ligand_ani.xyz
 C   -1.497034    0.181362   -1.694784
 C   -0.085340    0.559878   -1.985697
 O    0.682279   -0.198043   -2.586389
 C   -2.491601    1.111543   -1.390468
 C   -3.785793    0.702747   -1.087114
 C   -1.839103   -1.171986   -1.745236
 C   -3.121001   -1.593786   -1.449056
 C   -4.104631   -0.657273   -1.105785
 O   -5.337405   -1.158789   -0.835152
 C   -6.313408   -0.262761   -0.328844
 C   -7.572363   -1.025411   -0.000925
 C   -7.901750   -2.176151   -0.714732
 C   -9.084767   -2.855450   -0.442236
 C   -9.946191   -2.392082    0.549206
 C   -9.620614   -1.243846    1.265603
 C   -8.439195   -0.563260    0.988195
 N    0.311832    1.779354   -1.551280
 C    1.620940    2.318251   -1.861223
 C    2.660302    1.764777   -0.867786
 O    3.092031    2.471453    0.052842
 C    1.572168    3.850224   -1.796383
 O    0.985436    4.245290   -0.566642
 C    0.753826    4.447451   -2.929384
 N    3.021184    0.489200   -1.078998
 C    3.852679   -0.321424   -0.185908
 C    3.099151   -0.623389    1.122001
 O    2.694212   -1.754625    1.370532
 C    5.254813    0.262618    0.030012
 C    6.149689   -0.633655    0.902868
 C    6.441512   -1.984368    0.286322
 C    7.511373   -2.142027   -0.597376
 C    5.628827   -3.090823    0.553246
 C    7.767219   -3.369370   -1.200216
 C    5.884134   -4.321473   -0.046615
 C    6.953790   -4.464040   -0.925251
 C   -1.178617    2.624003    2.255309
 C   -1.502524    1.349752    1.904470
 C   -0.457705    0.400710    2.131742
 C   -0.589218   -1.059329    1.811731
 S    0.412273    2.695604    2.906969
 C    0.648911    0.992467    2.691379
 C    1.971289    0.366038    3.057186
 N    2.934356    0.425188    1.967073
 H   -2.280903    2.180188   -1.410124
 H   -4.529044    1.455827   -0.842688
 H   -1.066989   -1.891448   -2.006109
 H   -3.383837   -2.647558   -1.474511
 H   -6.518904    0.514284   -1.080698
 H   -5.927958    0.235817    0.571318
 H   -7.221786   -2.536417   -1.481376
 H   -9.334605   -3.752044   -1.005806
 H  -10.869488   -2.925155    0.761574
 H  -10.288773   -0.877883    2.041826
 H   -8.188773    0.336235    1.548174
 H   -0.221276    2.288164   -0.858908
 H    1.884247    1.973473   -2.865910
 H    2.604107    4.224781   -1.857603
 H    1.630529    3.983525    0.110091
 H    0.715917    5.534635   -2.826228
 H   -0.268462    4.057420   -2.916822
 H    1.206793    4.208107   -3.898146
 H    2.451816   -0.015936   -1.754048
 H    3.944949   -1.288844   -0.685243
 H    5.173871    1.255632    0.476826
 H    5.711131    0.398588   -0.956048
 H    5.667371   -0.771585    1.879153
 H    7.092043   -0.105870    1.092742
 H    8.157768   -1.292480   -0.812930
 H    4.770174   -2.975930    1.213575
 H    8.605806   -3.470790   -1.884992
 H    5.241547   -5.170203    0.172577
 H    7.151597   -5.424449   -1.394414
 H   -1.775664    3.521365    2.151460
 H   -2.457582    1.070991    1.471690
 H    0.337723   -1.461938    1.383258
 H   -0.833263   -1.650389    2.703199
 H   -1.400334   -1.208569    1.093853
 H    1.837287   -0.693135    3.303138
 H    2.398225    0.868529    3.932099
 H    3.145774    1.345398    1.589951
