75 
3of8_ligand_ani.xyz
 C   -0.933567    1.151428    0.676568
 O   -1.152499    0.606871    1.749892
 O    0.164632    1.885086    0.417419
 C    1.045151    2.038953    1.545924
 C    2.299499    2.744056    1.107664
 C    2.876690    3.713798    1.924221
 C    4.045111    4.366834    1.541217
 C    4.651427    4.052637    0.330016
 C    4.086387    3.078242   -0.487764
 C    2.921416    2.422126   -0.100217
 N   -1.749908    1.093766   -0.400827
 C   -2.993063    0.347932   -0.352239
 C   -2.748126   -1.148946   -0.613466
 O   -3.216334   -1.732944   -1.583197
 C   -4.025940    0.907879   -1.329899
 C   -4.418144    2.330444   -1.004626
 C   -3.849524    3.410432   -1.682972
 C   -5.341904    2.591584    0.010332
 C   -4.198077    4.719245   -1.360470
 C   -5.693976    3.897264    0.336112
 C   -5.121894    4.965487   -0.349755
 N   -1.967920   -1.756507    0.312467
 O   -2.908632   -4.133367    1.986884
 O    4.184877   -0.650809   -1.143744
 O   -4.743339   -5.330273    0.521318
 C   -0.308208   -3.441407    0.947408
 C   -1.620000   -3.157612    0.206401
 C   -2.754859   -4.008380    0.786657
 C   -3.724857   -4.674359   -0.168141
 C    0.863904   -2.661648    0.393982
 C    3.103757   -1.308821   -0.624418
 C    6.442581   -0.295667   -1.663353
 C    5.509447   -1.158185   -0.821659
 C    1.442830   -1.606176    1.099514
 C    1.388955   -2.981158   -0.859336
 C    2.557344   -0.935911    0.602774
 C    2.489920   -2.314891   -1.371274
 C    5.799462   -0.964467    0.663527
 C    5.661114   -2.626423   -1.218236
 H    0.527506    2.603944    2.326548
 H    1.258114    1.043537    1.949605
 H    2.403002    3.965556    2.871834
 H    4.480448    5.124258    2.188733
 H    5.560815    4.562713    0.025132
 H    4.551541    2.826971   -1.439652
 H    2.504396    1.645853   -0.737644
 H   -1.385633    1.399395   -1.289761
 H   -3.349441    0.450802    0.680608
 H   -4.902888    0.253863   -1.308125
 H   -3.619251    0.839378   -2.344540
 H   -3.126984    3.224911   -2.476588
 H   -5.792611    1.759516    0.550180
 H   -3.748555    5.547931   -1.902173
 H   -6.416456    4.081612    1.127579
 H   -5.396527    5.986413   -0.096075
 H   -1.626448   -1.211216    1.099171
 H   -4.571551   -5.172298    1.463986
 H   -0.099605   -4.516656    0.882674
 H   -0.463053   -3.221110    2.009657
 H   -1.520631   -3.388802   -0.862458
 H   -3.158904   -5.384744   -0.793645
 H   -4.107271   -3.895262   -0.845545
 H    6.175666   -0.389130   -2.719823
 H    6.349983    0.756012   -1.379811
 H    7.486933   -0.599843   -1.530782
 H    1.023081   -1.317533    2.061512
 H    0.934744   -3.781099   -1.440548
 H    3.024392   -0.128061    1.160243
 H    2.901387   -2.577517   -2.342244
 H    5.147024   -1.581248    1.290078
 H    5.666224    0.085309    0.945749
 H    6.836224   -1.246628    0.879018
 H    6.690560   -2.951380   -1.032443
 H    4.992798   -3.275633   -0.643752
 H    5.448998   -2.762884   -2.283703
