50 
3ogm_ligand_dft.xyz
 C   -2.758094    3.980748   -0.630920
 C   -2.247854    3.138416    0.537863
 C   -1.924281    1.684456    0.173647
 C   -1.254786    0.966421    1.350968
 C   -0.829586   -0.472067    0.992692
 C    0.335626   -0.428398    0.003531
 O    0.232352   -0.721325   -1.174511
 N    1.516600    0.041897    0.532914
 C    2.717845   -0.029700   -0.234027
 C    3.257727   -1.422083   -0.343171
 O    2.926729   -2.327063    0.386671
 O    4.169729   -1.582329   -1.320731
 C    2.876882    0.957305   -1.366269
 C    3.656369    1.173008   -0.113292
 C    5.161024    1.031453   -0.034580
 C    5.623500    0.529858    1.334196
 C   -1.985625   -1.296192    0.417770
 C   -3.007186   -1.797284    1.458362
 C   -4.204628   -2.235862    0.607712
 C   -4.151570   -1.346700   -0.637079
 O   -5.020589   -1.257255   -1.471576
 C   -2.843147   -0.561645   -0.627148
 C   -3.169233    0.896160   -0.243226
 H   -2.902464    5.022783   -0.328209
 H   -2.042774    3.968858   -1.461367
 H   -3.716286    3.613216   -1.011555
 H   -1.340714    3.605303    0.944534
 H   -2.987794    3.147140    1.350846
 H   -1.221215    1.691843   -0.673169
 H   -1.958320    0.934845    2.194219
 H   -0.382188    1.535373    1.692995
 H   -0.468714   -0.966065    1.906625
 H    1.623279   -0.013841    1.536265
 H    4.450498   -2.510015   -1.273258
 H    2.012609    1.579467   -1.568889
 H    3.405412    0.598979   -2.243073
 H    3.247233    1.921208    0.564373
 H    5.514747    0.356257   -0.818484
 H    5.603890    2.013048   -0.242125
 H    6.714306    0.455257    1.381758
 H    5.298718    1.206396    2.133084
 H    5.208608   -0.461614    1.548275
 H   -1.553273   -2.175853   -0.073885
 H   -3.301310   -0.986536    2.136117
 H   -2.600419   -2.604032    2.075455
 H   -4.090719   -3.274979    0.272283
 H   -5.178745   -2.160080    1.097782
 H   -2.372481   -0.574507   -1.612801
 H   -3.677442    1.360756   -1.093346
 H   -3.884310    0.919916    0.594134
