91 
3ohf_ligand_ani.xyz
 C    5.040938    1.220663   -2.994776
 C   -2.355694   -1.381088    3.690734
 C    3.750817    0.713618   -3.121248
 C    6.031511    0.437614   -2.412087
 C   -3.549150   -1.120060    2.993802
 C   -0.160603    2.190086    1.448857
 C   -1.164122   -1.582818    3.022093
 C    3.453838   -0.567436   -2.664171
 C    5.725355   -0.836432   -1.944334
 C    0.915562    1.684047    2.171345
 C   -3.560607   -1.047265    1.612861
 C    0.054896    2.980187    0.330642
 C    2.439576    2.770138    0.651642
 C   -0.740368   -1.495477   -0.603772
 C   -1.153793   -1.506952    1.618632
 C   -0.125416   -1.682953    0.608708
 C    4.428048   -1.355740   -2.047354
 C    2.221513    1.977313    1.782321
 C   -2.345654   -1.207199    0.945718
 C    1.358992    3.273117   -0.071016
 C    1.286755   -1.961911    0.938485
 C   -2.892730   -0.869244   -1.519751
 C   -7.243860   -2.935322   -1.805273
 C   -5.457671    3.881240    1.597097
 C    2.777830    4.425904   -1.579273
 C    4.093443   -2.712029   -1.456780
 C    3.400608    1.419159    2.565197
 C   -6.521186   -1.628109   -1.493184
 C   -4.318633    3.235747    0.813365
 C   -5.665402   -1.153211   -2.665912
 C   -4.735165    1.927022    0.140121
 C   -4.878701    0.127719   -2.396718
 C   -3.592625    1.309260   -0.658693
 C    4.132556   -0.361743    0.969740
 C    3.503789   -2.687097   -0.028530
 C    4.407654   -1.881916    0.951010
 N   -2.064468   -1.164365   -0.423932
 N    2.111951   -2.227117   -0.098303
 N    3.600583   -0.015763    2.311657
 N   -3.941109    0.012701   -1.271135
 O    1.694504   -1.928833    2.115803
 O   -2.652083   -1.372571   -2.601361
 O    4.392005   -2.414526    2.267740
 O    1.477827    4.055724   -1.181075
 H    5.279244    2.216998   -3.360825
 H   -2.376920   -1.435617    4.776566
 H    2.969729    1.311775   -3.585950
 H    7.044189    0.820513   -2.316591
 H   -4.470498   -0.978819    3.552427
 H   -1.176819    1.964492    1.769474
 H   -0.251194   -1.807659    3.563408
 H    2.445843   -0.953832   -2.794980
 H    6.509326   -1.438054   -1.485390
 H    0.740974    1.073622    3.054863
 H   -4.479226   -0.866818    1.068553
 H   -0.757700    3.399440   -0.256917
 H    3.459137    2.985556    0.346769
 H   -0.399940   -1.555082   -1.631845
 H   -7.853443   -3.267470   -0.958603
 H   -6.525032   -3.731453   -2.031946
 H   -7.905241   -2.827857   -2.673258
 H   -5.823667    3.211342    2.384042
 H   -6.304273    4.110990    0.939873
 H   -5.141873    4.815120    2.073717
 H    3.377190    3.552781   -1.867220
 H    3.301352    4.975174   -0.785394
 H    2.655180    5.077313   -2.446268
 H    3.393768   -3.252094   -2.107518
 H    5.003094   -3.324060   -1.430230
 H    3.248624    1.562738    3.636941
 H    4.312398    1.960658    2.290970
 H   -7.255408   -0.851647   -1.233140
 H   -5.890250   -1.766004   -0.605007
 H   -3.465532    3.048647    1.483469
 H   -3.955799    3.933947    0.045789
 H   -4.960867   -1.937538   -2.961667
 H   -6.311280   -0.966571   -3.534994
 H   -5.595531    2.123249   -0.512636
 H   -5.080461    1.219622    0.903025
 H   -4.340143    0.426539   -3.306921
 H   -5.575277    0.934948   -2.157841
 H   -2.735715    1.169053    0.001100
 H   -3.266844    2.021453   -1.438239
 H    5.059510    0.190686    0.774143
 H    3.426942   -0.066456    0.193975
 H    3.514043   -3.716851    0.359095
 H    5.440740   -2.045700    0.615777
 H    1.684688   -2.277472   -1.011084
 H    4.252722   -0.473329    2.972148
 H    2.698667   -0.512268    2.437208
 H    3.461056   -2.603517    2.477277
