60 
3oik_ligand_dft.xyz
 O    7.431576   -0.509264    0.835202
 S    6.749445    0.574972    0.163516
 O    6.824393    0.715699   -1.277765
 N    7.199536    1.974514    0.924194
 O    5.201378    0.598910    0.583635
 C    4.319455   -0.268270   -0.169259
 C    4.507993   -1.767983    0.145745
 C    3.085498   -2.382361    0.048004
 C    2.860325    0.037211    0.183832
 C    2.210446   -1.216830   -0.438695
 C    2.699945    0.114642    1.711547
 C    2.265359    1.278540   -0.483624
 C    0.731054    1.294581   -0.378519
 C    0.082185   -0.006180   -0.892318
 C    0.703022   -1.255919   -0.228593
 C    0.039197   -2.511818   -0.787087
 C   -1.431474   -2.546370   -0.379779
 C   -2.136902   -1.220232   -0.573556
 C   -3.529165   -1.197039   -0.516533
 C   -1.440221   -0.019550   -0.788675
 C   -2.178578    1.154281   -0.953865
 C   -3.570148    1.203377   -0.889129
 C   -4.302007    2.514841   -1.037162
 C   -4.240992    3.360432    0.241170
 C   -4.219379   -0.004972   -0.658114
 O   -5.625621   -0.020778   -0.651090
 S   -6.336368   -0.297781    0.780868
 O   -5.845697    0.680005    1.727268
 O   -6.285941   -1.714061    1.065217
 N   -7.878467    0.076717    0.329172
 H    8.085146    1.845747    1.399947
 H    7.199243    2.768275    0.293342
 H    4.492851   -0.062318   -1.230740
 H    5.213634   -2.228203   -0.550334
 H    4.933488   -1.877421    1.146723
 H    2.745179   -2.744514    1.024835
 H    3.050648   -3.232971   -0.637868
 H    2.370732   -1.135544   -1.527556
 H    1.654648    0.235819    2.004752
 H    3.082100   -0.777851    2.215496
 H    3.257017    0.972814    2.097515
 H    2.548476    1.281838   -1.545996
 H    2.678221    2.193280   -0.042163
 H    0.418027    1.469026    0.658118
 H    0.366053    2.150216   -0.954958
 H    0.330284   -0.079656   -1.965012
 H    0.490694   -1.222528    0.850803
 H    0.542310   -3.412871   -0.419023
 H    0.134608   -2.516541   -1.882007
 H   -1.500815   -2.821939    0.681790
 H   -1.965425   -3.328860   -0.931103
 H   -4.086051   -2.115149   -0.355900
 H   -1.661298    2.090794   -1.141252
 H   -3.856153    3.074169   -1.868282
 H   -5.345570    2.326967   -1.304647
 H   -3.202423    3.579279    0.512417
 H   -4.762533    4.313042    0.099691
 H   -4.703166    2.827255    1.076358
 H   -8.513361   -0.692744    0.503737
 H   -8.187671    0.960559    0.715551
