55 
3oim_ligand_xtb.xyz
 C   -1.998875   -0.970833    0.467625
 N   -6.458211   -0.189797    0.406241
 O   -4.698962   -0.444228   -1.381012
 S   -4.978830   -0.794796   -0.027125
 C   -2.753575    0.179888    0.575717
 O   -4.922824   -2.164004    0.361699
 C   -2.188090    1.424699    0.316284
 O   -4.097293    0.101398    0.940188
 C   -0.841326    1.463867   -0.009121
 C   -0.048731    0.323740   -0.091600
 C   -0.650849   -0.915979    0.131267
 C    0.101394   -2.215322    0.039846
 C    1.456159   -2.060166   -0.638784
 C    2.169428   -0.849959   -0.044936
 C    1.415395    0.422184   -0.469670
 C    2.097153    1.683640    0.083754
 C    3.588864    1.751317   -0.261148
 C    4.312122    0.475901    0.161532
 C    3.612631   -0.716335   -0.508775
 C    4.582544   -1.879896   -0.288508
 C    5.974295   -1.219617   -0.350127
 C    5.733316    0.308856   -0.410159
 O    6.681237    1.061223    0.308076
 C    4.386658    0.388994    1.686755
 C   -3.034273    2.664668    0.320915
 C   -3.657686    2.868502   -1.062321
 H   -2.480917   -1.921037    0.640287
 H   -6.875740    0.353420   -0.329075
 H   -7.070455   -0.906970    0.753310
 H   -0.410611    2.430966   -0.216134
 H    0.249422   -2.596902    1.055435
 H   -0.511568   -2.946627   -0.490930
 H    1.323797   -1.917443   -1.713152
 H    2.047362   -2.964629   -0.489282
 H    2.142252   -0.940154    1.044165
 H    1.463377    0.478719   -1.566700
 H    1.956696    1.720290    1.164523
 H    1.625581    2.571954   -0.337003
 H    4.038158    2.617462    0.226965
 H    3.698067    1.882755   -1.341051
 H    3.593174   -0.512170   -1.587241
 H    4.409722   -2.345721    0.681392
 H    4.471757   -2.648168   -1.052597
 H    6.560647   -1.449033    0.540141
 H    6.539382   -1.557533   -1.219183
 H    5.730704    0.637552   -1.462834
 H    7.552439    0.890261   -0.063132
 H    4.809439   -0.556887    2.008259
 H    5.033996    1.185581    2.044013
 H    3.410202    0.504526    2.144634
 H   -3.826289    2.553454    1.062741
 H   -2.425245    3.532054    0.583789
 H   -4.199876    1.973951   -1.361580
 H   -2.881267    3.057620   -1.800484
 H   -4.342043    3.714025   -1.051848
