52 
3oj8_ligand_ani.xyz
 C   -0.882405   -2.842703   -0.662223
 C   -1.332064   -2.362686    0.742207
 O   -1.481631   -3.467734    1.604735
 C   -2.625237   -1.612254    0.691238
 C    4.706826    3.919103    0.774925
 C   -5.138966    3.950874   -0.524537
 C    4.282859    2.965392    1.696573
 C    5.214276    3.512999   -0.456565
 C   -3.777607    3.672661   -0.489356
 C   -6.031910    2.915712   -0.265304
 C    4.353868    1.608432    1.393184
 C    5.298049    2.160029   -0.768571
 C   -3.367548    2.377914   -0.198698
 C    3.990022   -2.233998    0.095261
 C    2.887908   -3.067999   -0.006391
 C   -4.678399   -1.090923    0.645733
 C    2.643189   -0.400115   -0.705669
 C    0.223888   -0.665197   -1.308221
 C   -0.791914   -1.732270   -1.708857
 C    0.473998   -3.548542   -0.563970
 N   -5.658959    1.669843    0.017893
 N   -3.798729   -2.135605    0.856108
 O    4.998472   -0.117017   -0.173038
 O   -2.641875   -0.296345    0.393377
 C    4.857532    1.218001    0.154284
 C    3.859122   -0.890006   -0.247306
 C    1.648923   -2.594064   -0.455370
 C    1.536016   -1.248428   -0.819659
 C   -4.344750    1.411722    0.049626
 C   -3.979962    0.036841    0.363080
 H   -1.631976   -3.580488   -0.985009
 H   -0.554975   -1.718146    1.167495
 H   -2.394785   -3.776219    1.496268
 H    4.644762    4.976477    1.018319
 H   -5.506542    4.948301   -0.747921
 H    3.888654    3.278596    2.659984
 H    5.550791    4.252220   -1.179400
 H   -3.045630    4.452131   -0.685003
 H   -7.105653    3.094947   -0.285657
 H    4.026320    0.856513    2.107070
 H    5.697459    1.817193   -1.718893
 H   -2.316791    2.110241   -0.160332
 H    4.955053   -2.599698    0.433526
 H    2.990788   -4.117225    0.264821
 H   -5.751226   -1.198343    0.709649
 H    2.551264    0.649379   -0.973275
 H    0.413919    0.000416   -2.159330
 H   -0.189185   -0.020925   -0.522689
 H   -1.771523   -1.282750   -1.896513
 H   -0.471517   -2.191122   -2.654247
 H    0.461558   -4.227855    0.295204
 H    0.609044   -4.177491   -1.455175
