67 
3okh_ligand_xtb.xyz
 C   -3.382765   -1.593835   -2.310451
 C   -3.718154   -0.755708   -1.233096
 C   -2.753486   -0.021530   -0.552101
 C   -2.082409   -1.725751   -2.733964
 C   -1.103261   -0.998292   -2.061519
 C   -1.446203   -0.143519   -0.982299
 N   -0.259013    0.415386   -0.559512
 C    0.717675   -0.137152   -1.354046
 N    0.246738   -0.972288   -2.245572
 C    2.149267    0.107670   -1.214732
 C   -0.067847    1.128035    0.684693
 C   -0.465521    0.147449    1.818035
 C   -0.850675    2.446961    0.783881
 O   -1.310858    0.386991    2.647812
 N    0.242888   -0.994612    1.754877
 C   -0.086116   -2.185377    2.512750
 C   -5.118770   -0.614173   -0.790316
 O   -5.972243   -1.435010   -1.428376
 O   -5.498314    0.157543    0.056361
 C    3.010921   -0.985641   -1.311591
 C    4.375707   -0.821608   -1.186858
 C    4.891424    0.448348   -0.972665
 C    4.053004    1.550653   -0.903685
 C    2.687056    1.378889   -1.026632
 C   -0.249552    3.314274    1.891742
 C   -1.051036    4.602428    2.052210
 C   -1.091412    5.376626    0.738632
 C   -1.676097    4.508265   -0.370880
 C   -0.866721    3.224644   -0.531884
 C   -0.955339   -3.129640    1.671738
 C   -0.175236   -3.719412    0.499411
 C    1.075919   -4.437576    0.997143
 C    1.963923   -3.489993    1.798609
 C    1.192143   -2.888025    2.972095
Cl    6.597000    0.661721   -0.809130
 H   -4.172824   -2.138082   -2.802422
 H   -3.050116    0.593550    0.281445
 H   -1.811791   -2.368964   -3.555197
 H    1.004215    1.332136    0.786764
 H   -1.880148    2.214374    1.069379
 H    0.897115   -1.125625    0.998733
 H   -0.659652   -1.839132    3.379012
 H   -6.870159   -1.287061   -1.093687
 H    2.592429   -1.963161   -1.496085
 H    5.038730   -1.669234   -1.257318
 H    4.469164    2.535715   -0.762901
 H    2.041770    2.243926   -1.012719
 H   -0.255174    2.756689    2.829203
 H    0.787934    3.558890    1.644413
 H   -2.068487    4.354781    2.360013
 H   -0.604450    5.217986    2.835411
 H   -1.691474    6.280605    0.857389
 H   -0.078248    5.682203    0.465004
 H   -2.708891    4.252521   -0.125653
 H   -1.682328    5.059502   -1.313541
 H   -1.301310    2.618152   -1.329385
 H    0.156316    3.481100   -0.821581
 H   -1.309428   -3.937503    2.314362
 H   -1.827258   -2.582507    1.306467
 H   -0.813670   -4.419002   -0.043000
 H    0.104261   -2.931625   -0.203995
 H    1.633770   -4.842106    0.150416
 H    0.779625   -5.274733    1.633119
 H    2.832417   -4.030790    2.179774
 H    2.339672   -2.696974    1.146222
 H    0.914652   -3.684436    3.664495
 H    1.822719   -2.178116    3.510844
