53 
3okv_ligand_xtb.xyz
 C   -3.331527    3.022119    0.571215
 C    4.019038    0.496953    1.950080
 N   -6.318643   -0.185751    0.390633
 O    6.556611    1.227379    0.249960
 O   -4.185247   -0.235284    1.731562
 O   -4.795555   -2.169983    0.341360
 C   -1.988888   -1.057396   -0.569829
 C   -0.784798    1.387895   -0.831126
 C   -3.012416    2.572011   -0.856934
 C    6.011981   -1.134831    0.128344
 C    0.170293   -2.264909   -0.419534
 C    4.647162   -1.835584    0.123577
 C    1.635045   -2.115977   -0.809098
 C    2.069294    1.671002   -0.138780
 C    3.599024    1.764110   -0.184816
 O   -4.153093   -0.021573   -0.716926
 C    5.731660    0.354346    0.261105
 C   -2.169577    1.330743   -0.816441
 C   -0.600434   -0.983003   -0.576569
 C   -2.763674    0.077902   -0.696105
 C    0.020765    0.260563   -0.707043
 C    1.531464    0.374227   -0.766327
 C    2.196752   -0.865740   -0.141266
 C    3.701660   -0.716470   -0.316630
 C    4.229257    0.518289    0.427148
 S   -4.774081   -0.760093    0.543532
 H   -4.011534    3.870950    0.560860
 H   -2.418718    3.312814    1.086697
 H   -3.789693    2.205514    1.125476
 H    4.503506    1.371030    2.381186
 H    4.459102   -0.388085    2.401005
 H    2.965594    0.528077    2.208520
 H   -6.565994    0.444991    1.132985
 H   -6.986445   -0.927375    0.273192
 H   -2.484408   -2.009847   -0.460124
 H   -0.332548    2.360788   -0.941640
 H   -2.484029    3.367540   -1.386000
 H   -3.942406    2.355744   -1.384358
 H    6.672735   -1.465774    0.929723
 H    6.544828   -1.292008   -0.811184
 H   -0.305377   -3.047121   -1.014274
 H    0.105069   -2.574984    0.628381
 H    4.632430   -2.681719   -0.561649
 H    4.383701   -2.200325    1.116313
 H    2.190011   -3.000479   -0.493424
 H    1.728387   -2.027170   -1.893465
 H    1.676386    2.531822   -0.679369
 H    1.717719    1.742330    0.891260
 H    3.925397    1.853885   -1.223894
 H    3.930118    2.659473    0.343099
 H    1.807910    0.388901   -1.830870
 H    1.950427   -0.912184    0.922751
 H    3.889411   -0.546865   -1.385636
