118 
3omc_ligand_ani.xyz
 N   -1.872844   -3.342003   -0.604712
 C   -2.258133   -3.419477   -2.021010
 C   -3.348991   -2.448269   -2.469792
 O   -3.996540   -2.692567   -3.476624
 N   -3.540796   -1.325188   -1.718556
 C   -4.360680   -0.245973   -2.229109
 C   -5.745160   -0.239784   -1.559192
 C   -5.740027    0.019335   -0.035132
 C   -6.392893   -1.124510    0.760425
 N   -5.596643   -2.338784    0.751597
 C   -4.829945   -2.648915    1.935250
 N   -3.993260   -1.550388    2.400104
 C   -3.470754   -1.757850    3.747523
 N   -3.982814   -3.780739    1.591195
 C   -4.765330   -4.978826    1.301246
 C   -3.580369    1.080069   -2.148423
 O   -2.361568    1.121070   -2.313380
 N   -4.300860    2.207561   -1.933917
 C   -3.717109    3.538031   -2.043688
 C   -3.066789    3.981810   -0.718950
 O   -3.516099    4.902931   -0.050848
 C   -4.749833    4.558066   -2.496647
 N   -1.948277    3.299870   -0.357210
 C   -1.086330    3.825569    0.677817
 C    0.376394    3.506370    0.332175
 O    0.696565    2.807805   -0.622678
 C   -1.555673    3.445036    2.099933
 C   -1.884308    1.980306    2.405184
 C   -0.705939    1.029555    2.657401
 N    0.001155    0.583593    1.471714
 C   -0.604604   -0.059386    0.438741
 N    0.115070   -0.067321   -0.753162
 N   -1.731274   -0.692928    0.493674
 N    1.318759    4.131891    1.092809
 C    2.735873    3.943544    0.834840
 C    3.147111    2.477214    1.047791
 O    2.584079    1.745205    1.856235
 C    3.564443    4.851055    1.739233
 N    4.183938    2.045056    0.293052
 C    4.609654    0.663396    0.319780
 C    6.072328    0.638036   -0.119735
 O    6.530099    1.508833   -0.841589
 C    3.760123   -0.211191   -0.636851
 C    3.682325   -1.694793   -0.276518
 C    2.893596   -1.976113    1.004753
 N    2.679345   -3.403713    1.195764
 C    1.715260   -4.091764    0.478155
 N    1.615209   -5.421716    0.874616
 N    0.930464   -3.656115   -0.443196
 N    6.821518   -0.419344    0.319018
 C    8.054173   -0.731509   -0.369202
 C    7.732949   -1.403973   -1.702827
 O    6.622318   -1.663751   -2.099723
 C    8.984717   -1.580068    0.494724
 O    8.841972   -1.679222   -2.409960
 H   -2.619206   -3.736994    0.006863
 H   -1.695553   -2.359705   -0.276262
 H   -0.960992   -3.845843   -0.481962
 H   -1.371802   -3.230105   -2.630650
 H   -2.611348   -4.419532   -2.264779
 H   -2.901764   -1.083217   -0.957081
 H   -4.512402   -0.457089   -3.294911
 H   -6.402063    0.468691   -2.079468
 H   -6.177167   -1.226411   -1.767399
 H   -6.264521    0.954766    0.192168
 H   -4.706489    0.155442    0.318672
 H   -7.378097   -1.346489    0.323621
 H   -6.590660   -0.821565    1.799168
 H   -4.948317   -2.344524   -0.030642
 H   -5.544041   -2.935077    2.745273
 H   -4.534587   -0.691916    2.384088
 H   -4.220124   -2.178087    4.440129
 H   -2.605713   -2.432081    3.729562
 H   -3.129205   -0.800468    4.154575
 H   -3.346480   -3.959454    2.361551
 H   -5.242275   -4.871562    0.321703
 H   -5.555597   -5.165093    2.048017
 H   -4.107562   -5.852874    1.267033
 H   -5.280192    2.137994   -1.699899
 H   -2.915499    3.445419   -2.788600
 H   -5.179939    4.262329   -3.458953
 H   -4.282790    5.539861   -2.611290
 H   -5.550116    4.658840   -1.756470
 H   -1.574403    2.587914   -0.978573
 H   -1.178342    4.921510    0.642722
 H   -0.833820    3.831036    2.834038
 H   -2.471585    4.024750    2.248519
 H   -2.512298    1.571626    1.601335
 H   -2.503776    1.973933    3.312740
 H   -1.067916    0.152541    3.213490
 H    0.044304    1.505084    3.302593
 H    0.925658    0.980209    1.328994
 H    0.575929    0.829832   -0.910377
 H   -0.525852   -0.247920   -1.524083
 H   -2.165348   -0.701059    1.414288
 H    1.061657    4.451572    2.015661
 H    2.921519    4.188760   -0.216244
 H    4.634406    4.729872    1.539831
 H    3.389459    4.609763    2.794642
 H    3.302835    5.899865    1.569437
 H    4.692369    2.647840   -0.339845
 H    4.509251    0.297824    1.347516
 H    2.739940    0.193428   -0.644049
 H    4.149823   -0.091340   -1.655008
 H    4.679061   -2.141386   -0.203812
 H    3.181663   -2.226140   -1.096070
 H    1.935000   -1.431119    0.994976
 H    3.442435   -1.614753    1.881495
 H    2.789113   -3.742601    2.141882
 H    1.055062   -5.954418    0.221183
 H    2.505920   -5.867049    1.054445
 H    1.008635   -2.653487   -0.600721
 H    6.306501   -1.201050    0.700787
 H    8.532417    0.224459   -0.606143
 H    9.932610   -1.751882   -0.020910
 H    8.535575   -2.555555    0.716303
 H    9.179395   -1.061540    1.436953
 H    8.543398   -2.086303   -3.240432
