61 
3omm_ligand_ani.xyz
 N   -1.430865   -0.392592   -0.470365
 C   -1.689116    0.457342   -1.525733
 N   -2.046691   -0.159907   -2.619039
 C   -1.613995   -1.673085   -0.961500
 C   -2.022018   -1.504455   -2.291283
 C    0.337828   -0.617764    1.170498
 C   -1.069474   -0.044789    0.903008
 C   -1.452799   -2.929820   -0.374354
 N    1.335363    0.114666    0.588871
 C   -2.331412   -2.619669   -3.080047
 C   -1.765238   -4.011189   -1.168797
 C    2.707368   -0.145038    0.567133
 C    6.948931   -0.558912    0.250119
 C   -1.539743    1.922412   -1.358861
 C   -2.202332   -3.858187   -2.498877
 C    5.477022   -0.443193    0.377510
 C    3.483655    0.693529   -0.241763
 C    4.847074    0.569110   -0.351261
 O    0.524689   -1.645254    1.801268
 O    7.637668    0.166558   -0.430944
 C    3.347841   -1.154625    1.284712
 C    4.725581   -1.297236    1.186593
 C   -2.098928   -0.523477    1.938989
 C   -0.375679    2.572193   -1.774872
 C   -2.553445    2.674250   -0.764320
 F   -1.655266   -5.254917   -0.690788
 F   -2.483989   -4.966417   -3.194443
 F    2.832619    1.655904   -0.931024
 O    7.474255   -1.567390    0.975911
 C   -1.240719    4.665564   -0.988147
 C   -2.411357    4.042578   -0.571570
 C   -0.221567    3.942874   -1.594566
Cl   -1.050980    6.379380   -0.751824
 C   -3.522161   -0.094177    1.565025
 C   -1.742425    0.000339    3.335379
 C   -2.756491   -0.463763    4.383417
 C   -4.542739   -0.566400    2.603425
 C   -4.181862   -0.056997    4.001339
 H   -1.011445    1.045286    0.934914
 H   -1.066729   -3.064089    0.629420
 H    1.064844    0.921664    0.047556
 H   -2.659617   -2.523167   -4.108865
 H    5.423813    1.236596   -0.982878
 H    2.762233   -1.817643    1.907368
 H    5.226531   -2.081971    1.743817
 H   -2.059674   -1.620535    1.964121
 H    0.419419    1.999647   -2.247711
 H   -3.471703    2.179531   -0.453204
 H    8.429845   -1.534122    0.807327
 H   -3.199632    4.620643   -0.102737
 H    0.681714    4.448798   -1.920583
 H   -3.554466    1.005716    1.513579
 H   -3.777184   -0.468976    0.566035
 H   -0.732713   -0.328429    3.605803
 H   -1.727890    1.100895    3.303231
 H   -2.703444   -1.559211    4.468139
 H   -2.493118   -0.063179    5.369754
 H   -4.566073   -1.665922    2.610643
 H   -5.550334   -0.236783    2.322534
 H   -4.899548   -0.426518    4.743889
 H   -4.256808    1.040234    4.011840
