61 
3ook_ligand_dft.xyz
 N   -1.554064   -0.443654   -0.490688
 C   -1.623467    0.434417   -1.560609
 N   -1.632855   -0.159744   -2.724094
 C   -1.477977   -1.710623   -1.048132
 C   -1.554523   -1.507218   -2.435883
 C    0.123919   -0.442698    1.244904
 N    1.006266    0.482797    0.732708
 C    2.391794    0.272942    0.674827
 C   -1.340250   -0.101974    0.913190
 C   -1.324183   -2.980676   -0.484901
 C    3.163809   -0.007608    1.802402
 C    3.059026    0.377895   -0.546154
 C    5.154822   -0.107108    0.474005
 C   -1.524902   -2.594765   -3.316749
 C    6.622311   -0.301802    0.313962
 C   -1.290599   -4.033907   -1.372866
 C   -1.587810    1.901964   -1.397875
 C   -1.397665   -3.847591   -2.763621
 C    4.420580    0.203221   -0.671108
 C    4.529964   -0.216058    1.715464
 O    0.462106   -1.436082    1.850700
 O    7.213210   -0.203432   -0.735840
 C   -2.335501   -0.746488    1.883292
 C   -0.585029    2.615564   -2.061382
 C   -2.517620    2.596844   -0.619326
 F    2.318521    0.676545   -1.625674
 F    2.573222   -0.046336    2.994269
 F   -1.141209   -5.282954   -0.919066
 F   -1.357217   -4.935047   -3.543126
 O    7.239603   -0.601070    1.470621
 C   -1.421527    4.665304   -1.139888
 C   -2.438224    3.977395   -0.484891
 C   -0.495149    3.996699   -1.932912
Cl   -1.310770    6.397693   -0.965917
 C   -3.780829   -0.615945    1.388642
 C   -2.178773   -0.114647    3.275082
 C   -4.768067   -1.219314    2.391100
 C   -3.169885   -0.713602    4.276297
 C   -4.611481   -0.589866    3.777366
 H    0.637596    1.160002    0.076470
 H   -1.459072    0.982998    0.982372
 H   -1.185642   -3.159586    0.573311
 H   -1.590982   -2.463081   -4.390021
 H    4.907988    0.291529   -1.634476
 H    5.091208   -0.440160    2.613816
 H   -2.094136   -1.811053    1.979261
 H    0.124456    2.076998   -2.680599
 H   -3.323638    2.058169   -0.130566
 H    8.180136   -0.706941    1.257382
 H   -3.161659    4.517888    0.115251
 H    0.285229    4.549633   -2.443753
 H   -3.894874   -1.095337    0.410661
 H   -4.018808    0.450087    1.252682
 H   -1.153834   -0.251027    3.635295
 H   -2.356777    0.969056    3.195765
 H   -4.590268   -2.301302    2.461612
 H   -5.792533   -1.091329    2.024481
 H   -3.056868   -0.221558    5.248599
 H   -2.928459   -1.774299    4.429466
 H   -4.885297    0.473623    3.723489
 H   -5.301876   -1.058238    4.487722
