29 
3oq5_ligand_xtb.xyz
 N   -3.344804   -1.446268    0.035870
 C   -2.213418   -0.534424    0.387430
 C   -0.902072   -0.975959   -0.273471
 C    0.311638   -0.302340    0.381483
 C    1.619117   -0.641434   -0.343354
 C    2.784141    0.108623    0.301031
 N    4.073123   -0.152303   -0.392604
 C    5.223655    0.547631    0.221651
 C   -2.596622    0.917492   -0.002055
 O   -1.798882    1.781061   -0.175720
 O   -3.915457    1.038699   -0.089980
 H   -4.233115   -0.963464    0.260177
 H   -3.299174   -2.336738    0.547757
 H   -3.349356   -1.648467   -0.973959
 H   -2.096759   -0.540455    1.477914
 H   -0.800893   -2.059710   -0.183849
 H   -0.923893   -0.717328   -1.333820
 H    0.165647    0.776664    0.362280
 H    0.382806   -0.620050    1.422480
 H    1.794016   -1.718507   -0.297977
 H    1.528051   -0.352426   -1.392211
 H    2.594061    1.183646    0.272369
 H    2.894090   -0.191660    1.345115
 H    3.991835    0.139711   -1.375373
 H    4.259604   -1.163688   -0.391478
 H    5.347362    0.228647    1.254682
 H    5.059843    1.623221    0.203118
 H    6.137949    0.323750   -0.324336
 H   -4.194224    1.951238   -0.286438
