29 
3oq5_ligand_ani.xyz
 N   -3.298649   -1.502148   -0.033511
 C   -2.189358   -0.542560    0.350355
 C   -0.841496   -0.897554   -0.274699
 C    0.341162   -0.182445    0.378312
 C    1.673364   -0.543852   -0.275397
 C    2.853506    0.176266    0.360464
 N    4.107680   -0.170005   -0.354615
 C    5.307684    0.476189    0.156278
 C   -2.682904    0.853160   -0.014651
 O   -2.029588    1.809297   -0.341027
 O   -4.034612    0.895773    0.095721
 H   -4.194984   -0.995297    0.067675
 H   -3.294208   -2.328353    0.583354
 H   -3.184007   -1.791846   -1.024415
 H   -2.104418   -0.559662    1.440616
 H   -0.695185   -1.982507   -0.191813
 H   -0.859801   -0.658926   -1.346688
 H    0.178287    0.900241    0.321127
 H    0.377966   -0.437136    1.448082
 H    1.829781   -1.631710   -0.210928
 H    1.630826   -0.287064   -1.344675
 H    2.705083    1.259556    0.324560
 H    2.949642   -0.094787    1.415854
 H    3.970674    0.091090   -1.357662
 H    4.217069   -1.208074   -0.296138
 H    5.479522    0.198580    1.199000
 H    5.200648    1.563388    0.124290
 H    6.171893    0.186748   -0.436403
 H   -4.300158    1.805044   -0.120480
