33 
3osi_ligand_ani.xyz
 C   -0.009670   -2.809117    1.099926
 C   -0.030605   -2.670882   -1.379759
 O    4.638584    1.387931    0.659737
 O   -4.620359    1.502039   -0.519107
Cl    2.479061    1.915916    2.534701
Cl    4.871017   -0.514862   -1.643174
Cl   -2.390326    2.290077   -2.211326
Cl   -4.941687   -0.720142    1.464511
 C    1.306685   -0.027441    1.055680
 C    2.356811   -1.112410   -0.802467
 C   -1.276524    0.141428   -0.994072
 C   -2.395159   -1.198186    0.645136
 C    3.561074    0.615692    0.430027
 C   -3.551936    0.698720   -0.364848
 C    2.436892    0.750388    1.253348
 C    3.484445   -0.328721   -0.595676
 C   -2.397443    0.947434   -1.116054
 C   -3.514459   -0.387059    0.512271
 C    1.246427   -0.971935    0.027256
 C   -1.254256   -0.943404   -0.112620
 C   -0.011445   -1.839226   -0.090014
 H    0.909898   -3.402700    1.085623
 H   -0.050851   -2.279760    2.058009
 H   -0.852572   -3.505683    1.043316
 H    0.002716   -2.036043   -2.272051
 H    0.809315   -3.372938   -1.410802
 H   -0.953443   -3.258151   -1.422805
 H    5.323075    1.173547    0.008072
 H   -5.330762    1.195254    0.064047
 H    0.445764    0.128598    1.701055
 H    2.368229   -1.822417   -1.622396
 H   -0.392094    0.381058   -1.579025
 H   -2.437199   -2.019021    1.352997
