33 
3osi_ligand_dft.xyz
 C   -0.021086   -2.777857    1.244670
 C    0.021116   -2.777729   -1.244848
 O    4.594158    1.474597    0.595641
 O   -4.594132    1.474714   -0.595486
Cl    2.414370    2.076409    2.432218
Cl    4.872767   -0.569047   -1.591910
Cl   -2.414293    2.076638   -2.432022
Cl   -4.872848   -0.569185    1.591775
 C    1.287218    0.029542    1.062459
 C    2.361762   -1.151691   -0.716443
 C   -1.287198    0.029639   -1.062403
 C   -2.361818   -1.151760    0.716334
 C    3.536180    0.668661    0.409106
 C   -3.536170    0.668731   -0.409061
 C    2.403022    0.831996    1.218541
 C    3.478258   -0.338845   -0.554882
 C   -2.403017    0.832119   -1.218443
 C   -3.478287   -0.338908    0.554826
 C    1.245607   -0.979721    0.094386
 C   -1.245611   -0.979705   -0.094447
 C   -0.000013   -1.870785   -0.000058
 H    0.912516   -3.345979    1.294912
 H   -0.109820   -2.200274    2.170297
 H   -0.846982   -3.496183    1.200245
 H    0.109912   -2.200049   -2.170417
 H    0.847012   -3.496058   -1.200460
 H   -0.912495   -3.345822   -1.295254
 H    5.285786    1.242798   -0.040947
 H   -5.285791    1.242797    0.041024
 H    0.427562    0.207229    1.700847
 H    2.390004   -1.912101   -1.487302
 H   -0.427542    0.207404   -1.700768
 H   -2.390057   -1.912246    1.487116
