47 
3otq_ligand_xtb.xyz
 N   -2.056077    0.802322    0.098584
 C   -0.663230    0.660668    0.136813
 C   -2.816882    1.930217   -0.016927
 N   -2.808148   -0.297605    0.144803
 C    0.155337    1.563265    0.807858
 C   -0.093408   -0.448230   -0.483686
 C   -4.124756    1.506927   -0.029500
 C   -2.258752    3.302667   -0.186805
 C   -4.070827    0.098788    0.078912
 C    1.522559    1.374023    0.817226
 C    1.271444   -0.642075   -0.468469
 C   -3.188890    4.195445   -1.004711
 C   -5.166076   -0.851900    0.113072
 C    2.096960    0.279047    0.173429
 C   -6.501450   -0.455266    0.055440
 C   -4.910347   -2.224306    0.204316
 N    3.486693    0.150593    0.221505
 C   -7.491551   -1.421085    0.090121
 N   -5.851819   -3.144961    0.238313
 C    4.280558   -0.767253   -0.405372
 C   -7.114854   -2.752317    0.182506
 C    5.734947   -0.598243   -0.110629
 O    3.880773   -1.637049   -1.149460
 C    6.656934   -0.969385   -1.088223
 C    6.236250   -0.145932    1.108869
 C    8.007845   -0.834312   -0.826460
 N    7.524926   -0.012963    1.359072
 C    8.388641   -0.336346    0.412158
 H   -0.268990    2.396217    1.344258
 H   -0.742859   -1.157723   -0.970674
 H   -4.997759    2.119894   -0.111303
 H   -1.288623    3.233266   -0.686634
 H   -2.098866    3.765163    0.793093
 H    2.153269    2.079592    1.340213
 H    1.705146   -1.498470   -0.955861
 H   -3.414411    3.732817   -1.962522
 H   -4.121916    4.368713   -0.475380
 H   -2.716221    5.157660   -1.186863
 H   -6.762362    0.590685   -0.015194
 H   -3.888853   -2.574620    0.251945
 H    3.955165    0.865330    0.761405
 H   -8.534699   -1.146304    0.046517
 H   -7.852860   -3.543362    0.213622
 H    6.294388   -1.353243   -2.030446
 H    5.583873    0.097914    1.939363
 H    8.747798   -1.107774   -1.562014
 H    9.430849   -0.197441    0.666591
