25 
3ouh_ligand_ani.xyz
 F   45.067835   23.656540    3.907158
Cl   45.950082   21.649438    1.966288
 C   36.562657   17.272312    4.432538
 N   38.445065   20.256696    5.520335
 O   35.433940   17.351177    5.169341
 C   37.492204   18.375046    4.697442
 N   39.244272   19.668729    4.594275
 O   36.768000   16.379801    3.641337
 C   37.388700   19.477962    5.585389
 N   40.878008   21.379373    4.823486
 C   38.704253   18.539762    4.081473
 N   41.312524   19.714527    3.382668
 C   40.473747   20.213943    4.241772
 C   42.111717   21.671549    4.286485
 C   43.006579   22.715609    4.484295
 C   44.178534   22.674627    3.750653
 C   44.461739   21.634412    2.847776
 C   43.559494   20.600192    2.659775
 C   42.365823   20.614692    3.386763
 H   34.898827   16.582503    4.913859
 H   36.568931   19.701201    6.253559
 H   39.207031   17.943215    3.329623
 H   42.830943   23.537773    5.169665
 H   43.789998   19.803040    1.958710
 H   40.344093   21.894882    5.508331
