16 
3ouj_ligand_xtb.xyz
 C   -2.440591    0.349628   -0.037370
 O   -3.425920   -0.437838    0.361704
 O   -2.561484    1.489607   -0.381721
 C   -1.083641   -0.399451   -0.022978
 O   -1.099087   -1.574277    0.274846
 C    0.111342    0.412547   -0.366641
 C    1.370907   -0.422662   -0.579162
 C    2.571552    0.191547    0.126187
 O    3.738770   -0.422880   -0.115213
 O    2.505838    1.136463    0.854751
 H   -3.056114   -1.323962    0.566026
 H    0.285395    1.097210    0.476482
 H   -0.129832    1.052774   -1.216685
 H    1.592822   -0.540892   -1.642006
 H    1.209940   -1.419899   -0.153480
 H    3.655439   -1.183476   -0.705490
