32 
3ovx_ligand_ani.xyz
 C   -2.419144    0.341622    0.161501
 C   -2.831139    1.538697    0.740468
 C   -1.918015    2.552496    1.001540
 C   -0.578968    2.362981    0.696030
 C   -0.129400    1.159251    0.155954
 C   -1.065902    0.165251   -0.143675
Cl   -0.559191   -1.278807   -0.972334
 C    1.350605    1.059032   -0.083672
 N    1.952118   -0.085095    0.290523
 O    1.970395    2.031426   -0.524048
 C    3.392924   -0.303642    0.212421
 C    3.896908   -0.310622   -1.243143
 O    4.199206    0.964773   -1.729163
 C    3.731901   -1.600268    0.940704
 C    3.436359   -1.551713    2.437444
 C   -3.456506   -0.719865   -0.121781
 F   -3.559371   -0.985826   -1.434649
 F   -3.181075   -1.877647    0.501839
 F   -4.678560   -0.333549    0.294714
 H   -3.881434    1.671210    0.977661
 H   -2.252241    3.487842    1.438677
 H    0.153297    3.144599    0.873459
 H    1.378956   -0.836700    0.645724
 H    3.891501    0.541667    0.704619
 H    3.148605   -0.832890   -1.864947
 H    4.826036   -0.891710   -1.292284
 H    3.456982    1.546036   -1.474622
 H    4.798381   -1.809989    0.790775
 H    3.184174   -2.425773    0.463441
 H    2.367569   -1.424745    2.641486
 H    3.965089   -0.715625    2.909236
 H    3.761013   -2.474235    2.928588
