28 
3ow6_ligand_xtb.xyz
 C   -1.375387   -1.010245   -0.961715
 C   -0.887190    0.019609   -0.175177
 C   -1.752478    0.702291    0.691924
 C   -3.093644    0.354549    0.723907
 C   -3.576552   -0.678030   -0.071635
 C   -2.709332   -1.370172   -0.907890
 O   -4.898812   -0.976825    0.011603
 O   -1.235850    1.658706    1.495367
 N    0.464229    0.409392   -0.247650
 C    1.564321   -0.389504   -0.007088
 C    2.705108    0.420879   -0.148961
 N    2.254730    1.680209   -0.475812
 C    0.875747    1.700271   -0.545169
 C    1.675508   -1.723605    0.333416
 C    2.953576   -2.231216    0.517815
 C    4.079077   -1.432581    0.371512
 C    3.973517   -0.089432    0.037929
 O    0.183197    2.640685   -0.845866
 H   -0.700855   -1.527218   -1.626920
 H   -3.782463    0.874938    1.372853
 H   -3.079163   -2.177071   -1.524615
 H   -5.109896   -1.698425   -0.592897
 H   -1.946589    2.134251    1.941485
 H    2.823799    2.492187   -0.640644
 H    0.800841   -2.342692    0.456279
 H    3.073792   -3.270601    0.782685
 H    5.057362   -1.862445    0.523389
 H    4.848543    0.532453   -0.069417
