97 
3own_ligand_ani.xyz
 N   -0.922499   -0.484746   -1.722642
 C   -2.305624   -0.897672   -1.957820
 C   -3.283739   -0.213138   -0.965138
 C   -4.610749   -0.951790   -0.796784
 C   -5.698952   -0.157532   -0.044852
 C   -5.207090    0.298253    1.335951
 C   -2.337099   -2.415990   -1.897923
 O   -3.550828    1.118508   -1.383485
 C   -7.041147   -0.917844    0.008421
 C   -8.119846   -0.088458    0.709991
 C   -6.952500   -2.315828    0.626353
 O   -5.425360   -0.307353    2.376852
 O   -2.018910   -2.810650   -0.571138
 C   -3.801018    1.891456    2.527279
 C   -2.857789    3.070012    2.275880
 C   -1.704200    2.691068    1.341682
 C   -3.604550    4.307289    1.773915
 N   -4.484493    1.457278    1.321159
 C    0.986842    1.014346   -1.755899
 C    1.312075    2.364325   -1.637518
 C    2.593518    2.749360   -1.252927
 C    3.571156    1.779873   -1.065797
 C    3.259705    0.425042   -1.203249
 C    1.967309    0.042030   -1.559312
 C   -0.438244    0.720944   -2.084832
 C    4.414435   -0.516478   -1.015746
 N    2.928381    4.137615   -1.084540
 C    2.455122    5.059121   -2.121597
 S    2.848034    4.745553    0.499520
 C    4.372321    4.163565    1.217022
 O    5.550905   -0.153417   -1.282133
 O   -1.152127    1.578686   -2.620582
 O    1.751692    4.129350    1.228508
 O    2.940167    6.192648    0.390787
 N    4.201573   -1.786158   -0.539120
 C    3.106865   -2.289094    0.282369
 C    2.203367   -3.234733   -0.500196
 C   -0.027355   -4.156806   -0.844040
 C    0.462718   -4.925164   -1.899767
 C    1.807758   -4.849961   -2.255225
 C    2.671139   -4.002474   -1.568186
 C    0.858335   -3.333986   -0.143503
 C   -1.497164   -4.128435   -0.485300
 C    3.655805   -2.886251    1.582593
 C    3.452931   -4.210599    1.973680
 C    3.969174   -4.678659    3.179238
 C    4.696617   -3.833101    4.009852
 C    4.910220   -2.511954    3.626276
 C    4.397181   -2.049863    2.419873
 H   -0.345851   -1.092491   -1.153848
 H   -2.585159   -0.564165   -2.962216
 H   -2.781743   -0.182385    0.013799
 H   -5.009987   -1.201345   -1.790713
 H   -4.400323   -1.895134   -0.281767
 H   -5.881912    0.758713   -0.622120
 H   -3.320313   -2.812303   -2.189503
 H   -1.598656   -2.817014   -2.606604
 H   -2.800421    1.428389   -1.929329
 H   -7.350700   -1.040038   -1.041364
 H   -7.891034    0.019517    1.775030
 H   -9.095633   -0.578843    0.619584
 H   -8.207646    0.914124    0.275352
 H   -6.301467   -2.978009    0.044166
 H   -6.568738   -2.259552    1.648978
 H   -7.946694   -2.777137    0.652115
 H   -4.556694    2.164404    3.273125
 H   -3.238091    1.049876    2.954361
 H   -2.423202    3.315171    3.256357
 H   -2.056724    2.474731    0.324268
 H   -0.978201    3.507851    1.270875
 H   -1.177336    1.800465    1.706251
 H   -4.420182    4.585442    2.451496
 H   -2.924628    5.162899    1.693284
 H   -4.039605    4.137213    0.781546
 H   -4.123589    1.749399    0.418475
 H    0.542368    3.100298   -1.845749
 H    4.593803    2.062759   -0.840220
 H    1.753162   -1.008583   -1.754038
 H    1.374709    5.254972   -2.075366
 H    2.703062    4.613963   -3.085983
 H    2.993123    6.000713   -2.006724
 H    5.194419    4.434593    0.551203
 H    4.316482    3.083784    1.372862
 H    4.483458    4.670603    2.178294
 H    5.077119   -2.286478   -0.445127
 H    2.491291   -1.424966    0.575661
 H   -0.213479   -5.574456   -2.452197
 H    2.186161   -5.445921   -3.082493
 H    3.713834   -3.932401   -1.868436
 H    0.476967   -2.751267    0.694640
 H   -2.063920   -4.819849   -1.127160
 H   -1.655280   -4.431640    0.556924
 H    2.886175   -4.884582    1.333208
 H    3.799358   -5.711925    3.470310
 H    5.096068   -4.201380    4.951291
 H    5.480360   -1.841774    4.265322
 H    4.576509   -1.020435    2.116789
