29 
3oxi_ligand_xtb.xyz
 S    3.654789   -0.004258   -0.168377
 C    2.224015   -2.146246   -0.072259
 N   -0.054384   -1.165505    0.195604
 O    0.079557    1.578846    0.255888
 C    1.310050   -1.073813    0.055019
 O    2.134782    2.475787    0.048286
 S   -2.913220    0.160887   -1.289781
 C    1.941049    0.163465    0.020631
 O   -0.366273   -3.419229    0.132962
 C    3.505358   -1.712374   -0.198667
 C    1.284048    1.444274    0.120451
 C    1.554040    3.766580    0.138746
 C   -0.810977   -2.298022    0.211356
 C   -2.312607   -2.032056    0.354695
 C   -2.715680   -0.603994    0.257868
 C   -2.933587    0.282527    1.268685
 C   -3.264562    1.577415    0.811015
 C   -3.289275    1.660851   -0.540946
 H    1.917814   -3.175362   -0.067957
 H   -0.518838   -0.257822    0.273153
 H    4.387109   -2.311882   -0.310023
 H    0.812766    3.905502   -0.651194
 H    1.063497    3.895051    1.106096
 H    2.371248    4.474001    0.027203
 H   -2.611173   -2.439358    1.324749
 H   -2.806523   -2.630122   -0.415150
 H   -2.862057    0.019357    2.309290
 H   -3.470159    2.406114    1.463844
 H   -3.503869    2.512124   -1.155362
