66 
3oy1_ligand_ani.xyz
 C   -5.865966   -3.056199    0.823660
 C   -4.755510   -2.186976    0.651154
 C   -4.889883   -1.058431   -0.198852
 C   -6.134338   -0.828568   -0.847258
 C   -7.187705   -1.683432   -0.663143
 C   -7.051954   -2.812746    0.182888
 C   -3.784315   -0.187888   -0.379816
 C   -2.590924   -0.455251    0.232734
 C   -2.462598   -1.550891    1.123759
 C   -3.514402   -2.403560    1.309678
 N   -1.457693    0.367505   -0.034264
 C   -0.120811    0.042110   -0.160907
 N    0.628808    1.106411   -0.149036
 N   -0.223460    2.156611   -0.070726
 C   -1.528120    1.767755   -0.015411
 O   -2.520904    2.469275    0.042628
 C    0.265151    3.530457   -0.021086
 C   -0.086368    4.205059    1.309789
 C    0.395562    5.650545    1.293821
 O   -0.153605    6.374214    0.212312
 C    0.197643    5.811933   -1.034938
 C   -0.297649    4.376701   -1.168064
 C    0.471724   -1.293368   -0.344108
 C   -0.216214   -2.408353   -0.834148
 C    0.481507   -3.596815   -0.965927
 N    1.769660   -3.754303   -0.660296
 C    2.432180   -2.680086   -0.209986
 C    1.819768   -1.424764   -0.055072
 N    3.752321   -2.898790    0.119729
 C    4.727020   -1.840273    0.297006
 C    6.008381   -2.435694    0.885953
 C    7.074603   -1.365377    1.130262
 C    7.370251   -0.578984   -0.150353
 C    6.088311    0.019678   -0.737593
 C    5.041755   -1.066076   -0.992632
 H   -5.754287   -3.919423    1.476607
 H   -6.230424    0.040042   -1.496045
 H   -8.135407   -1.502946   -1.163924
 H   -7.897251   -3.482353    0.319062
 H   -3.884889    0.702268   -0.990837
 H   -1.510208   -1.733738    1.612252
 H   -3.409894   -3.262458    1.964831
 H    1.354148    3.438781   -0.119687
 H    0.371522    3.658056    2.140459
 H   -1.176288    4.176398    1.433146
 H    1.498973    5.673406    1.240318
 H    0.090645    6.176979    2.202652
 H    1.294507    5.840077   -1.164880
 H   -0.249587    6.455007   -1.798204
 H   -1.392554    4.351278   -1.109899
 H    0.007210    3.952725   -2.130597
 H   -1.267035   -2.357204   -1.094736
 H   -0.027193   -4.484192   -1.335521
 H    2.381995   -0.553812    0.269927
 H    4.092342   -3.777499   -0.245088
 H    4.314001   -1.132164    1.030943
 H    6.392584   -3.182857    0.174496
 H    5.763070   -2.970780    1.810932
 H    7.990657   -1.824026    1.521088
 H    6.716920   -0.672365    1.906073
 H    7.817086   -1.258239   -0.891075
 H    8.111357    0.206471    0.041689
 H    6.306072    0.560000   -1.666427
 H    5.676579    0.758526   -0.034170
 H    4.120356   -0.635981   -1.403765
 H    5.421024   -1.772961   -1.745456
