39 
3oyq_ligand_ani.xyz
 C    6.023494    0.083330    2.171337
 C    6.075240    0.355749   -1.726140
 N   -5.360559   -0.132441    1.617431
 O    1.705897   -1.565350   -0.130866
 O   -5.384222   -1.347248   -0.583485
 O   -5.614639    1.188863   -0.510703
 C   -1.093540   -0.908188   -0.138318
 C   -1.326900    1.504797   -0.160987
 C   -2.475703   -1.025464   -0.104505
 C   -2.706938    1.383582   -0.124527
 C    6.195552    0.667280    0.770537
 C    3.286537    0.245948   -0.273839
 C    4.372416   -0.824890   -0.262833
 N    0.878151    0.568130   -0.206859
 C    1.890001   -0.363294   -0.195421
 C   -0.513166    0.364097   -0.166127
 C   -3.274563    0.113256   -0.089691
 C    5.808015   -0.291771   -0.365131
 S   -5.035574   -0.052217   -0.021104
 H    6.392950    0.773356    2.936714
 H    6.575955   -0.858445    2.273604
 H    4.971427   -0.124933    2.394982
 H    5.817570   -0.324423   -2.545939
 H    5.489874    1.273329   -1.856301
 H    7.131950    0.626809   -1.830941
 H   -5.804625   -1.016990    1.840722
 H   -5.922196    0.662858    1.902788
 H   -0.458899   -1.783630   -0.145343
 H   -0.876644    2.494451   -0.187979
 H   -2.936510   -2.009242   -0.099651
 H   -3.345874    2.261511   -0.132368
 H    5.618598    1.597986    0.682319
 H    7.245382    0.955669    0.625252
 H    3.346245    0.855641   -1.185938
 H    3.412403    0.941532    0.567661
 H    4.260382   -1.429221    0.645069
 H    4.183792   -1.514447   -1.093708
 H    1.157512    1.536409   -0.251307
 H    6.467780   -1.169270   -0.281654
