94 
3oz1_ligand_ani.xyz
 C   -5.193215    0.041880   -0.507115
 N   -7.391673    0.441722   -1.376268
 O   -5.791136   -0.877480    0.049691
 C   -5.972922    0.917395   -1.518159
 C   -5.805723    2.429726   -1.307837
 C   -6.154486    2.918124    0.095059
 C   -8.085147    0.132424   -2.637475
 O    1.197552   -0.630331    1.350066
 O   -1.639020    1.446487    0.458669
 C    5.929168   -2.235578   -0.676214
 C    5.402730    4.734459   -0.138605
 C    1.429028   -0.126830   -3.640425
 C    5.148666   -2.039074    0.460642
 C    5.374220   -2.864083   -1.786649
 C    5.855812    3.605218    0.536474
 C    4.132600    4.733934   -0.710550
 C    2.719264   -0.417316   -3.204770
 C    0.583448    0.619502   -2.825283
 C    3.828447   -2.480777    0.496907
 C    4.050820   -3.296275   -1.750945
 C    5.039710    2.482024    0.636615
 C    3.320192    3.610211   -0.604892
 C    3.157728    0.039085   -1.966305
 C    1.027145    1.083592   -1.587763
 C   -0.551638   -2.932135   -0.672396
 C   -1.467831   -1.700538   -0.578044
 C   -2.532578   -2.653334    1.628665
 C   -1.407924   -2.266545    2.582289
 C   -0.377339   -0.707686    4.271581
 C    0.165431    0.713387    4.072249
 C    1.835442   -3.625519   -0.580428
 N    0.865012   -2.516463   -0.590574
 N   -3.888001    0.302035   -0.282369
 N    1.810179    1.530767    1.183093
 C    1.012630    0.546342    1.657025
 C   -1.998433    0.521896    1.182619
 C    3.264433   -3.122852   -0.610166
 C    3.766451    2.472373    0.067772
 C    2.315316    0.782430   -1.139026
 C   -2.691679   -1.794588    0.366062
 C   -1.517442   -0.888508    3.244622
 C   -0.115807    1.009412    2.594408
 C   -3.172205   -0.373022    0.780022
 C    2.864579    1.254497    0.208741
 N   -1.331029    0.250078    2.334511
 H   -7.932760    1.163158   -0.858430
 H   -7.268165   -0.405039   -0.757952
 H   -5.634109    0.660806   -2.527561
 H   -6.430871    2.938937   -2.051755
 H   -4.772127    2.700394   -1.547037
 H   -7.213434    2.770160    0.336954
 H   -5.565984    2.395634    0.856591
 H   -5.951556    3.989130    0.190826
 H   -9.015895   -0.406970   -2.446344
 H   -7.457313   -0.496154   -3.279751
 H   -8.327120    1.037160   -3.212851
 H    6.961160   -1.896312   -0.699451
 H    6.037013    5.613542   -0.220113
 H    1.080919   -0.486930   -4.604942
 H    5.573757   -1.535376    1.327502
 H    5.973747   -3.014942   -2.681376
 H    6.846294    3.598409    0.985286
 H    3.772255    5.612994   -1.238389
 H    3.384948   -1.012481   -3.826306
 H   -0.434880    0.836596   -3.142523
 H    3.240085   -2.314974    1.395728
 H    3.614848   -3.777738   -2.623307
 H    5.398929    1.600654    1.166857
 H    2.326968    3.611260   -1.056080
 H    4.157983   -0.219339   -1.621641
 H    0.342894    1.659623   -0.966079
 H   -0.743238   -3.652170    0.129110
 H   -0.720980   -3.474482   -1.610933
 H   -1.844849   -1.436229   -1.576130
 H   -0.832047   -0.857826   -0.291000
 H   -2.419397   -3.706957    1.344401
 H   -3.488108   -2.616174    2.173042
 H   -1.381002   -3.011357    3.390111
 H   -0.438101   -2.321263    2.076905
 H   -0.720929   -0.886552    5.294158
 H    0.418892   -1.428572    4.060250
 H    1.227432    0.804097    4.321135
 H   -0.387894    1.430115    4.687099
 H    1.665235   -4.228584    0.320603
 H    1.650447   -4.274968   -1.443767
 H    1.012551   -1.938975    0.258854
 H    1.076914   -1.901501   -1.402288
 H   -3.425437    1.114566   -0.668839
 H    1.670032    2.485482    1.478116
 H   -3.515697   -2.241087   -0.198168
 H   -2.501622   -0.790188    3.725266
 H   -0.306648    2.069803    2.411884
 H   -3.839175   -0.493082    1.640591
 H    3.472104    0.427810    0.603349
