40 
3ozr_ligand_ani.xyz
 C   -5.630876   -0.553828    0.491790
 C   -6.546988    0.274271   -0.413282
 C   -5.567754    0.750874   -1.476998
 O   -4.332630    0.972556   -0.807616
 C   -4.292736    0.224347    0.400744
 C   -3.104606   -0.691410    0.479090
 O   -6.099876   -0.719268    1.799694
 O   -7.027301    1.338079    0.399064
 C   -2.075615   -0.674599   -0.365210
 C   -0.898119   -1.595917   -0.252294
 N    0.346243   -0.842951   -0.238519
 C    1.526021   -1.489937   -0.375196
 C    2.769034   -0.690648   -0.187560
 C    3.983105   -1.364434   -0.004308
 C    5.170499   -0.648178    0.256547
 C    5.155077    0.732035    0.292155
 C    3.946829    1.383981    0.055273
 C    2.768460    0.710434   -0.187412
 N    3.922443    2.852409    0.074473
 O    4.115454   -2.705839   -0.051640
 O    6.323619   -1.325717    0.464452
 O    1.562620   -2.699583   -0.635490
 O    2.853851    3.401227   -0.135077
 O    4.969696    3.433855    0.298038
 H   -5.501869   -1.556904    0.065347
 H   -7.376500   -0.318011   -0.816478
 H   -5.878496    1.690232   -1.945942
 H   -5.448734   -0.016635   -2.253822
 H   -4.249393    0.930301    1.243895
 H   -3.126289   -1.387512    1.322133
 H   -6.547554    0.109101    2.030737
 H   -7.629127    1.881480   -0.123637
 H   -2.072610    0.026369   -1.199590
 H   -0.841312   -2.274809   -1.109176
 H   -0.982566   -2.230973    0.643998
 H    0.342947    0.062319    0.205465
 H    6.059823    1.292763    0.489626
 H    1.883741    1.292632   -0.412693
 H    3.230325   -3.061116   -0.309305
 H    6.119358   -2.269866    0.386316
