40 
3ozr_ligand_xtb.xyz
 C   -5.513961   -0.421961    0.237444
 C   -6.247569    0.155878   -0.996957
 C   -5.109776    0.799599   -1.818935
 O   -3.901460    0.596451   -1.119242
 C   -4.211207    0.428218    0.247795
 C   -3.106713   -0.234983    0.997980
 O   -6.251991   -0.368881    1.409942
 O   -7.175147    1.110005   -0.525417
 C   -2.016321   -0.726302    0.433970
 C   -0.925092   -1.423114    1.184210
 N    0.356903   -0.796047    0.926787
 C    1.394243   -1.455796    0.397552
 C    2.642066   -0.687287    0.138839
 C    3.762276   -1.400067   -0.325588
 C    4.987573   -0.730988   -0.574526
 C    5.083816    0.627783   -0.370137
 C    3.962062    1.323874    0.080012
 C    2.759890    0.686362    0.332184
 N    4.053223    2.740901    0.290656
 O    3.754850   -2.715710   -0.556998
 O    6.044136   -1.441191   -1.011513
 O    1.329837   -2.664713    0.152374
 O    3.061502    3.313713    0.698807
 O    5.110004    3.283977    0.051935
 H   -5.245076   -1.468707    0.062426
 H   -6.765815   -0.629049   -1.559682
 H   -5.308359    1.876883   -1.922258
 H   -4.994791    0.357727   -2.810510
 H   -4.446259    1.401913    0.713232
 H   -3.289770   -0.326122    2.059519
 H   -6.804024    0.425714    1.368717
 H   -7.687477    1.450522   -1.264591
 H   -1.870670   -0.619583   -0.630820
 H   -0.833458   -2.461625    0.850507
 H   -1.129482   -1.410178    2.259678
 H    0.413835    0.193890    1.100097
 H    6.010263    1.145748   -0.557381
 H    1.938513    1.298445    0.670572
 H    2.827541   -3.036982   -0.351731
 H    5.772562   -2.369078   -1.092038
