50 
3ozs_ligand_ani.xyz
 C    4.455203    0.609903    0.134307
 C    3.286403    0.970750   -0.783118
 C    2.921204   -0.391891   -1.412942
 O    3.426729   -1.398250   -0.553916
 C    4.110939   -0.822584    0.568416
 C    3.244996   -0.827513    1.801825
 N    1.488621   -0.584826   -1.531808
 O    5.622472    0.644689   -0.675950
 O    3.583134    1.952035   -1.731189
 C    2.200594   -1.632722    1.985139
 C    0.546525    0.277502   -2.032318
 C    0.804054   -1.712283   -1.133377
 C   -0.510518   -1.447583   -1.392868
 N   -0.664281   -0.208092   -1.955856
 C   -1.692087   -2.293808   -1.049844
 C    1.131404   -1.392495    3.021762
 N   -0.075640   -0.803018    2.444374
 C   -0.081399    0.517556    2.130779
 C   -1.204145    1.023213    1.281373
 C   -1.001555    2.176495    0.516878
 C   -1.968539    2.589817   -0.416287
 C   -3.170884    1.908786   -0.515595
 C   -3.396200    0.835012    0.337895
 C   -2.438499    0.370062    1.217324
 N   -4.703058    0.171010    0.313780
 O    0.112716    2.949839    0.592508
 O   -1.735073    3.670167   -1.200344
 O    0.821838    1.277200    2.502839
 F   -2.828188   -1.659485   -1.356298
 F   -1.676178   -3.474059   -1.687527
 F   -1.710628   -2.570141    0.280418
 O   -4.886143   -0.720911    1.123093
 O   -5.519509    0.553744   -0.503929
 H    4.543976    1.305536    0.978700
 H    2.434099    1.315087   -0.183230
 H    3.383889   -0.498011   -2.403812
 H    5.021332   -1.413845    0.727824
 H    3.514368   -0.088515    2.558544
 H    6.399747    0.719275   -0.110017
 H    4.522425    1.838233   -1.946152
 H    2.008818   -2.452433    1.295769
 H    0.814077    1.244839   -2.437451
 H    1.335758   -2.568279   -0.747870
 H    1.495881   -0.713255    3.796744
 H    0.838853   -2.334435    3.493213
 H   -0.676132   -1.427009    1.920422
 H   -3.926554    2.223356   -1.225537
 H   -2.687559   -0.458366    1.868617
 H    0.632450    2.604488    1.355587
 H   -0.874245    4.033565   -0.945109
