50 
3ozt_ligand_ani.xyz
 C   -3.999091   -1.035226    0.682800
 C   -2.683109   -1.587372    0.146585
 C   -2.590352   -0.923097   -1.244969
 O   -3.321820    0.295292   -1.157233
 C   -4.039782    0.378751    0.086304
 C   -3.400944    1.372921    1.018919
 N   -1.216733   -0.651369   -1.646319
 O   -5.028105   -1.860067    0.149642
 O   -2.637663   -2.985408    0.101256
 C   -2.660967    2.407816    0.628676
 C   -1.699335    3.107086    1.553464
 N   -0.330038    2.695129    1.293941
 C    0.116590    1.503309    1.761801
 C    1.418873    0.981827    1.210536
 C    2.184075    1.586152    0.211956
 C    3.337562    0.961400   -0.283910
 C    3.724249   -0.278760    0.189933
 C    2.957589   -0.860961    1.197243
 C    1.826949   -0.255102    1.706861
 N    3.345341   -2.183340    1.705287
 O    1.847496    2.775504   -0.364847
 O    4.004106    1.622736   -1.296279
 O   -0.502173    0.846191    2.593641
 O    2.669488   -2.668780    2.596011
 O    4.319108   -2.718313    1.203215
 C   -0.294284   -1.669053   -1.653324
 C    0.965620   -1.495144   -2.095592
 C    1.419657   -0.217487   -2.631184
 C   -0.848243    0.581499   -2.140208
 C    0.391206    0.815527   -2.617989
 O    2.567059   -0.036811   -3.034168
 H   -4.024015   -1.040283    1.779788
 H   -1.837663   -1.220086    0.739908
 H   -3.059969   -1.567164   -2.006151
 H   -5.070286    0.669413   -0.155647
 H   -3.550083    1.177596    2.082477
 H   -5.829330   -1.746259    0.674485
 H   -3.538875   -3.273047   -0.113323
 H   -2.621248    2.703542   -0.418962
 H   -1.751479    4.192037    1.421179
 H   -1.930098    2.870606    2.596946
 H    0.173248    3.132280    0.538230
 H    4.586914   -0.792474   -0.220591
 H    1.238492   -0.731423    2.479600
 H    2.551125    2.949813   -1.016251
 H    3.928980    1.063808   -2.092743
 H   -0.642384   -2.620194   -1.259957
 H    1.673685   -2.314332   -2.062788
 H   -1.634792    1.325713   -2.120035
 H    0.650273    1.790263   -3.013858
