54 
3p0g_ligand_xtb.xyz
 C   -3.133660   -0.679502    2.078315
 C   -1.198317   -0.871021   -2.449990
 C   -2.316344   -3.046686   -1.859320
 O    1.219344    3.699675   -0.815044
 O    5.199005    0.998895   -0.571172
 O    0.122268   -1.827734    2.091115
 C   -2.834785    2.905086    0.957692
 C   -2.881042    2.809439   -0.423949
 C   -2.916006    1.757267    1.721967
 C   -3.008581    1.565788   -1.012168
 C    4.430253   -1.149530    0.225676
 C    3.366412   -1.942186    0.613800
 C    0.513738    1.801780    0.486573
 C   -0.018830   -2.701465   -0.109973
 C   -3.268687   -0.908801   -0.983280
 N   -1.106348   -1.705896   -0.155657
 N    2.665062    1.975967   -0.569209
 O    0.577716    0.400782    0.260431
 C    1.480054    2.608539   -0.379912
 C   -3.036378    0.495976    1.143036
 C    4.219573    0.167483   -0.156017
 C   -3.078306    0.399687   -0.251635
 C    2.065312   -1.454495    0.642068
 C    2.915666    0.680232   -0.133389
 C    1.854154   -0.125520    0.270976
 C    0.932182   -2.370443    1.063220
 C   -1.971104   -1.638813   -1.385629
 H   -2.148061   -0.961032    2.454510
 H   -3.727015   -0.396437    2.945314
 H   -3.617822   -1.545146    1.631337
 H   -0.263334   -1.368080   -2.696483
 H   -0.979967    0.140284   -2.115774
 H   -1.785294   -0.808211   -3.361403
 H   -3.059286   -2.986173   -2.649573
 H   -1.449834   -3.562148   -2.263498
 H   -2.740516   -3.642328   -1.054163
 H    6.057711    0.558511   -0.551264
 H    0.662079   -1.674534    2.873185
 H   -2.748594    3.868758    1.434108
 H   -2.830007    3.696042   -1.035304
 H   -2.898459    1.833482    2.798911
 H   -3.078575    1.497391   -2.087646
 H    5.429676   -1.556816    0.215396
 H    3.552504   -2.964549    0.902283
 H    0.741525    2.022112    1.539280
 H   -0.511294    2.108244    0.275427
 H   -0.448563   -3.693172    0.033714
 H    0.546183   -2.685618   -1.041443
 H   -3.882453   -1.586497   -0.387986
 H   -3.824580   -0.707112   -1.899615
 H   -1.694015   -1.849686    0.675289
 H   -0.659695   -0.773535   -0.012533
 H    3.424712    2.469445   -1.021663
 H    1.383489   -3.313530    1.402648
