54 
3p0g_ligand_ani.xyz
 C   -2.378572    0.049309    2.546085
 C   -2.128489   -1.275380   -2.309138
 C   -2.908236   -3.264523   -1.013583
 O    1.251539    3.707605   -0.837105
 O    5.313256    1.191682   -0.314641
 O    0.429035   -2.307322    1.786187
 C   -2.802079    3.235674    0.524016
 C   -3.232914    2.762275   -0.710644
 C   -2.544106    2.328380    1.546300
 C   -3.401388    1.395527   -0.895166
 C    4.608449   -1.073154    0.212060
 C    3.541577   -1.954721    0.400212
 C    0.421199    1.612961    0.011397
 C    0.008285   -2.656400   -0.520628
 C   -3.444535   -1.000427   -0.134700
 N   -1.117624   -1.792331   -0.111719
 N    2.745702    2.024648   -0.541142
 O    0.680710    0.230208   -0.206058
 C    1.494058    2.561308   -0.519554
 C   -2.712028    0.949908    1.377881
 C    4.344991    0.252208   -0.096236
 C   -3.161649    0.470199    0.130029
 C    2.215038   -1.552556    0.284319
 C    3.023148    0.689912   -0.207266
 C    1.969523   -0.205839   -0.015696
 C    1.111468   -2.565522    0.548824
 C   -2.381869   -1.828184   -0.900686
 H   -1.359036   -0.353570    2.474512
 H   -2.426358    0.615083    3.481532
 H   -3.069721   -0.793983    2.639085
 H   -1.446557   -1.928755   -2.865218
 H   -1.677748   -0.275689   -2.276634
 H   -3.063727   -1.219331   -2.878328
 H   -3.893406   -3.263862   -1.492750
 H   -2.249970   -3.896874   -1.618981
 H   -3.019371   -3.727421   -0.024477
 H    6.181594    0.785218   -0.203694
 H    1.089806   -2.032471    2.437530
 H   -2.657534    4.301213    0.686111
 H   -3.434460    3.451039   -1.525776
 H   -2.184932    2.694245    2.507151
 H   -3.741861    1.033836   -1.864223
 H    5.635091   -1.422785    0.302798
 H    3.753716   -2.993255    0.638519
 H    0.315069    1.784793    1.090469
 H   -0.517227    1.868839   -0.485434
 H   -0.334037   -3.692391   -0.590700
 H    0.396933   -2.369830   -1.499849
 H   -3.635085   -1.522205    0.808436
 H   -4.377051   -1.064655   -0.711878
 H   -1.292505   -2.034832    0.877843
 H   -0.757156   -0.823294   -0.126927
 H    3.512136    2.633298   -0.802741
 H    1.609303   -3.541696    0.619621
