51 
3p17_ligand_dft.xyz
 N    1.459446    1.026638   -1.088629
 C    1.200780   -0.234200   -0.334397
 C   -0.131882   -0.766848   -0.880954
 O   -0.423720   -0.484570   -2.049236
 C    2.351934   -1.228939   -0.574927
 C    3.681441   -0.629139   -0.180749
 C    4.572154   -0.168454   -1.154238
 C    4.005869   -0.462921    1.169404
 C    5.768118    0.446287   -0.784517
 C    5.198136    0.148368    1.538272
 C    6.080228    0.607084    0.560908
 N   -0.881938   -1.518481   -0.071713
 C   -2.178741   -2.077739   -0.512722
 C   -3.223370   -0.959305   -0.330740
 O   -3.824580   -0.801388    0.718460
 C   -2.387999   -3.243746    0.449709
 C   -1.752817   -2.761932    1.760774
 C   -0.568544   -1.886246    1.322385
 N   -3.339443   -0.107305   -1.386116
 C   -3.841815    1.239975   -1.133448
 C   -2.847305    1.976936   -0.256983
 C   -1.557033    2.174603   -0.738423
 N   -0.531185    2.592094    0.009135
 C   -0.780265    2.911599    1.287988
 C   -2.044321    2.803024    1.850395
 C   -3.086788    2.299059    1.075303
 H    1.132532    0.861102   -2.052303
 H    0.876905    1.823543   -0.678707
 H    2.459172    1.258567   -1.079989
 H    1.136761    0.034146    0.721894
 H    2.144734   -2.136298    0.000819
 H    2.348215   -1.516999   -1.632629
 H    4.347445   -0.318513   -2.208492
 H    3.326855   -0.828407    1.937237
 H    6.457927    0.788187   -1.549316
 H    5.443361    0.263270    2.589195
 H    7.012381    1.081315    0.849790
 H   -2.098684   -2.381168   -1.559228
 H   -3.446047   -3.480139    0.570447
 H   -1.873770   -4.128183    0.061613
 H   -1.423198   -3.586519    2.395511
 H   -2.474991   -2.160557    2.313326
 H   -0.474798   -0.991342    1.945212
 H    0.375411   -2.440142    1.355208
 H   -2.661409   -0.217111   -2.130551
 H   -3.979491    1.738266   -2.096018
 H   -4.814303    1.168170   -0.644183
 H   -1.322986    1.924327   -1.770959
 H    0.067909    3.254712    1.873171
 H   -2.200706    3.070237    2.889407
 H   -4.067651    2.131783    1.508770
