28 
3p3r_ligand_ani.xyz
 O    1.154120   -2.246915   -0.243761
 O   -4.833664   -0.618352    0.382374
 O   -1.604294    2.981989   -0.828575
 O   -3.808665    1.675964   -0.281249
 O   -3.610935   -2.368127    0.648089
 F    3.534917   -1.568915   -1.432604
 C    4.841294    1.015413    0.713232
 C    3.696881    1.366626    1.422850
 C    4.785163    0.018206   -0.253747
 C    2.494598    0.723051    1.157333
 C   -0.261378    1.056775   -0.447652
 C   -1.313144   -1.030438    0.148437
 C    1.143307   -1.043935   -0.078223
 C   -1.497874    1.673789   -0.502876
 C    3.577348   -0.616837   -0.494980
 C   -2.670625    0.955176   -0.210650
 C   -0.160763   -0.299329   -0.109610
 C    2.407171   -0.281887    0.187636
 C   -2.551499   -0.399899    0.109810
 N   -3.738108   -1.189092    0.400119
 H   -2.548788    3.201169   -0.797473
 H   -4.554723    1.084467   -0.056910
 H    5.783399    1.517572    0.912876
 H    3.736766    2.145341    2.177769
 H    5.659110   -0.282085   -0.823410
 H    1.598873    1.001751    1.707069
 H    0.623793    1.644363   -0.669288
 H   -1.261290   -2.085437    0.377583
