28 
3p3r_ligand_xtb.xyz
 O    1.150865   -2.358046   -0.210022
 O   -4.810980   -0.509093    0.290263
 O   -1.401363    2.967260   -0.795438
 O   -3.711468    1.723191   -0.298654
 O   -3.654367   -2.272950    0.686243
 F    3.501687   -1.396506   -1.592419
 C    4.709038    1.028903    0.780539
 C    3.570739    1.233247    1.544978
 C    4.685243    0.137214   -0.276691
 C    2.405373    0.549817    1.252787
 C   -0.177440    0.976315   -0.422198
 C   -1.329413   -1.060012    0.132021
 C    1.127897   -1.159176   -0.066297
 C   -1.377458    1.656281   -0.486082
 C    3.518039   -0.554323   -0.548698
 C   -2.595275    0.984899   -0.224302
 C   -0.146129   -0.386956   -0.109298
 C    2.358618   -0.360398    0.198599
 C   -2.548316   -0.382111    0.089278
 N   -3.741808   -1.111723    0.373726
 H   -2.323017    3.268083   -0.801434
 H   -4.484713    1.137062   -0.112430
 H    5.617459    1.565315    1.007078
 H    3.591732    1.927561    2.370560
 H    5.555648   -0.036715   -0.889275
 H    1.521972    0.699779    1.855263
 H    0.727906    1.520017   -0.639468
 H   -1.316492   -2.115592    0.358446
