28 
3p3r_ligand_dft.xyz
 O    1.139817   -2.298160   -0.043179
 O   -4.856854   -0.560631    0.249578
 O   -1.499186    2.999748   -0.742977
 O   -3.763267    1.703156   -0.312411
 O   -3.676768   -2.329867    0.607140
 F    3.453102   -1.538489   -1.519707
 C    4.841903    0.997878    0.629882
 C    3.732934    1.321727    1.407823
 C    4.745993    0.026691   -0.360809
 C    2.523649    0.673937    1.185582
 C   -0.226270    1.039308   -0.351246
 C   -1.332690   -1.043222    0.170474
 C    1.129771   -1.085653    0.024233
 C   -1.443283    1.685833   -0.438371
 C    3.535357   -0.620667   -0.553706
 C   -2.641508    0.979884   -0.209961
 C   -0.163683   -0.329837   -0.041372
 C    2.403484   -0.313759    0.202235
 C   -2.559335   -0.387212    0.094320
 N   -3.769331   -1.152161    0.334276
 H   -2.431478    3.262733   -0.768528
 H   -4.516197    1.094778   -0.143035
 H    5.788439    1.504001    0.791581
 H    3.809452    2.075716    2.183965
 H    5.591524   -0.240011   -0.984966
 H    1.657370    0.921061    1.792601
 H    0.673920    1.612785   -0.543934
 H   -1.293499   -2.102970    0.390037
