33 
3p3u_ligand_ani.xyz
 C   -3.831415   -2.412354    1.415451
 C   -4.289895    1.937676   -0.077435
 C   -3.147529    2.719428    0.073697
 C    4.886995    1.212537    0.830866
 C    5.335934   -0.777318   -0.184637
 C   -4.175520    0.570398   -0.284970
 C   -1.894705    2.127116   -0.001016
 C    3.522357    1.085390    0.605267
 C    3.994909   -1.010271   -0.461327
 C   -2.580039   -2.161809    0.591968
 N    5.789576    0.306688    0.448272
 N    1.117727   -1.284034   -0.868477
 N    0.707997    0.741046    0.033136
 O   -2.854791   -1.372281   -0.564251
 O   -0.239321   -1.015857   -0.893797
 C    3.067754   -0.052431   -0.055177
 C   -2.922641   -0.028333   -0.346703
 C    1.627026   -0.220885   -0.307116
 C   -1.760315    0.755081   -0.231260
 C   -0.411248    0.191476   -0.343626
 H   -4.222480   -1.482234    1.842682
 H   -4.609432   -2.869051    0.795658
 H   -3.601342   -3.091179    2.244653
 H   -5.274470    2.393831   -0.026143
 H   -3.233748    3.788471    0.245818
 H    5.277407    2.088271    1.346450
 H    6.088634   -1.502957   -0.487840
 H   -5.052297   -0.062733   -0.394915
 H   -0.990316    2.717814    0.114453
 H    2.820516    1.846695    0.932058
 H    3.678171   -1.911242   -0.977790
 H   -2.160824   -3.091253    0.195327
 H   -1.804027   -1.679433    1.199563
