143 
3p4f_ligand_dft.xyz
 N    4.030543   -2.058443    1.318326
 C    5.279034   -1.250237    1.532550
 C    5.449786   -0.108560    0.502457
 O    6.574412    0.235658    0.172994
 C    6.523779   -2.138564    1.582161
 C    6.825316   -2.956009    0.321218
 C    6.062320   -4.252137    0.227791
 O    6.577742   -5.081725   -0.672111
 O    5.077880   -4.547922    0.886720
 N    4.318973    0.492083    0.075512
 C    4.336461    1.579458   -0.871806
 C    3.491213    2.737410   -0.316885
 O    2.784504    2.610131    0.678848
 C    3.798839    1.137265   -2.250061
 C    4.498542   -0.132716   -2.782102
 C    3.812733   -1.396771   -2.331051
 O    4.242462   -2.188520   -1.509144
 O    2.641253   -1.575898   -2.937388
 N    3.560765    3.893439   -1.009036
 C    2.799247    5.076253   -0.619205
 C    1.356927    4.923328   -1.137638
 O    1.039817    5.217540   -2.281486
 C    3.455515    6.356776   -1.151588
 C    2.635392    7.582359   -0.738573
 C    4.899218    6.484829   -0.657839
 N    0.484384    4.433431   -0.224698
 C   -0.910449    4.210728   -0.528480
 C   -1.589735    3.833506    0.785469
 O   -0.933427    3.325136    1.701921
 C   -1.099181    3.071877   -1.550279
 C   -2.503761    2.968413   -2.095915
 O   -2.656087    1.905334   -2.867314
 O   -3.393819    3.772123   -1.879973
 N   -2.915691    4.016120    0.873302
 C   -3.644418    3.405158    1.967922
 C   -3.326462    1.902426    1.973716
 O   -3.292517    1.286077    0.907565
 C   -5.160125    3.679412    1.849319
 C   -5.876910    3.278717    3.141582
 C   -5.821451    3.018405    0.633968
 N   -3.084209    1.345811    3.183247
 C   -2.597868   -0.005340    3.474732
 C   -1.097812   -0.210370    3.217513
 O   -0.526396   -1.170982    3.733273
 C   -3.328334   -1.157536    2.727001
 O   -2.866249   -1.282338    1.396671
 C   -4.844082   -1.031400    2.792090
 N   -0.534855    0.608765    2.313708
 C    0.775652    0.425643    1.729580
 C    0.856601   -0.698787    0.687379
 O    1.858528   -0.736547   -0.049552
 C    1.911990    0.255303    2.757337
 O    2.151716   -1.090836    3.124604
 N   -0.113566   -1.604868    0.630718
 C   -0.143822   -2.722152   -0.309051
 C   -1.407185   -3.521614    0.030489
 O   -1.617077   -3.928308    1.161627
 C    1.098934   -3.647789   -0.259923
 C    1.396081   -4.204024    1.132779
 C    0.954767   -4.767523   -1.296274
 N   -2.262106   -3.750175   -0.992826
 C   -3.494131   -4.453610   -0.743915
 C   -3.223260   -5.941363   -0.534440
 O   -2.211729   -6.521800   -0.836470
 C   -4.497106   -4.255519   -1.891921
 C   -4.720563   -2.807274   -2.281902
 C   -5.050628   -2.493301   -3.600159
 C   -4.605402   -1.759560   -1.362717
 C   -5.255798   -1.176677   -4.001027
 C   -4.798142   -0.439057   -1.746570
 C   -5.119950   -0.154514   -3.069544
 O   -5.243413    1.173754   -3.412975
 O   -4.292004   -6.542345    0.009018
 H    4.250671   -3.065447    1.446171
 H    3.696120   -1.988830    0.347659
 H    3.256589   -1.786981    1.964262
 H    5.161192   -0.774319    2.511794
 H    6.449600   -2.801536    2.450818
 H    7.362568   -1.463795    1.759356
 H    7.891269   -3.196535    0.277110
 H    6.607942   -2.382771   -0.586508
 H    6.027560   -5.882490   -0.686478
 H    3.388012    0.121621    0.275938
 H    5.378587    1.898991   -0.970903
 H    3.947775    1.946038   -2.971855
 H    2.718674    0.967806   -2.185129
 H    4.473084   -0.121450   -3.875736
 H    5.540897   -0.170424   -2.457020
 H    2.231238   -2.367500   -2.550731
 H    4.119901    3.948426   -1.847810
 H    2.795435    5.102003    0.475960
 H    3.443058    6.296672   -2.247856
 H    2.558415    7.653303    0.353370
 H    3.118724    8.495831   -1.097082
 H    1.627700    7.551905   -1.160828
 H    5.526321    5.636972   -0.951947
 H    4.930654    6.557562    0.435795
 H    5.356849    7.391047   -1.065602
 H    0.831361    4.029860    0.638531
 H   -1.344672    5.124921   -0.944192
 H   -0.811733    2.107432   -1.117814
 H   -0.429634    3.268703   -2.394089
 H   -3.601393    1.847643   -3.143497
 H   -3.404710    4.244815    0.010619
 H   -3.283032    3.854044    2.900383
 H   -5.241881    4.768415    1.738256
 H   -6.936215    3.543503    3.082558
 H   -5.818606    2.196514    3.309755
 H   -5.454660    3.786458    4.016195
 H   -5.293460    3.209586   -0.305160
 H   -6.840630    3.401254    0.525926
 H   -5.886440    1.932899    0.761413
 H   -3.066653    1.987238    3.962987
 H   -2.762591   -0.162994    4.543213
 H   -3.004399   -2.074312    3.225428
 H   -3.027939   -0.413680    0.970304
 H   -5.298939   -1.927199    2.361537
 H   -5.192590   -0.164801    2.221144
 H   -5.191606   -0.929606    3.825347
 H   -0.982968    1.489441    2.081734
 H    0.996654    1.349410    1.188127
 H    2.833952    0.644645    2.321949
 H    1.677158    0.865819    3.636166
 H    1.297613   -1.433949    3.466272
 H   -0.957462   -1.497369    1.195050
 H   -0.214451   -2.310841   -1.326226
 H    1.946517   -3.023426   -0.554925
 H    2.362834   -4.719497    1.123002
 H    0.628329   -4.912123    1.451549
 H    1.427463   -3.405120    1.880943
 H    0.128557   -5.445027   -1.055998
 H    0.768813   -4.369134   -2.303855
 H    1.875810   -5.357087   -1.337972
 H   -2.086540   -3.372185   -1.910427
 H   -3.917050   -4.075575    0.193199
 H   -4.148900   -4.813765   -2.770209
 H   -5.440128   -4.721090   -1.585691
 H   -5.143356   -3.287149   -4.336924
 H   -4.328651   -1.959239   -0.332142
 H   -5.497045   -0.954192   -5.037692
 H   -4.679726    0.372494   -1.034898
 H   -5.597812    1.251169   -4.308296
 H   -4.073088   -7.483568    0.104178
