13 
3p4q_ligand_ani.xyz
 O    1.570915    1.335081    0.328067
 O    2.826564   -0.497111    0.427940
 O   -2.662356    0.216155    0.420596
 O   -1.080619    1.581293   -0.368802
 O   -1.056695   -1.830149    0.218827
 C    1.829313    0.056488    0.048947
 C    0.778320   -0.664455   -0.815470
 C   -0.583698   -0.786829   -0.177655
 C   -1.460716    0.475236   -0.053594
 H    0.708540    1.611537   -0.046478
 H   -2.686734   -0.747177    0.602128
 H    1.144887   -1.669155   -1.018220
 H    0.671521   -0.119996   -1.763818
