13 
3p4q_ligand_xtb.xyz
 O    1.576760    1.330063    0.309325
 O    2.699451   -0.567697    0.498583
 O   -2.607043    0.214819    0.451244
 O   -1.023240    1.581717   -0.341767
 O   -1.031598   -1.827255    0.202651
 C    1.782355    0.054673    0.062806
 C    0.746265   -0.617146   -0.893300
 C   -0.565526   -0.794015   -0.222165
 C   -1.425438    0.482352   -0.046679
 H    0.734979    1.688665   -0.057306
 H   -2.662150   -0.751258    0.633711
 H    1.151364   -1.586626   -1.183301
 H    0.635224    0.040869   -1.757365
