13 
3p4q_ligand_dft.xyz
 O    2.272190   -1.115394   -0.020170
 O    2.927389    0.995216   -0.232623
 O   -2.868566   -0.582490   -0.167014
 O   -2.116216    1.523230   -0.010586
 O   -0.409306   -1.482488    0.070617
 C    2.051465    0.199996   -0.030927
 C    0.629646    0.687239    0.282833
 C   -0.507422   -0.266876    0.095852
 C   -1.922849    0.338923   -0.036267
 H    1.434495   -1.602060    0.097307
 H   -2.438356   -1.457776   -0.154521
 H    0.440413    1.607756   -0.273801
 H    0.614471    0.991800    1.340266
