17 
3p4r_ligand_dft.xyz
 C    2.195695    0.245149   -0.002892
 C    1.459969   -0.744352    0.883887
 C    0.029782   -0.991159    0.375304
 C   -0.803017    0.286609    0.335952
 C   -2.232042    0.022479   -0.107693
 O    2.647566   -0.242250   -1.180868
 O    2.331573    1.411161    0.257586
 O   -3.018749    1.116247   -0.201850
 O   -2.673352   -1.065582   -0.362844
 H    1.437199   -0.319588    1.890332
 H    2.003672   -1.695641    0.934275
 H   -0.460860   -1.721526    1.024388
 H    0.046053   -1.439107   -0.624717
 H   -0.353147    1.028033   -0.337331
 H   -0.824744    0.757398    1.328528
 H    2.471336   -1.190277   -1.243457
 H   -2.518148    1.911746    0.024444
