17 
3p4r_ligand_ani.xyz
 C    2.293129   -0.079564   -0.067384
 C    1.392733    1.114363    0.216349
 C   -0.058624    0.797167    0.587362
 C   -0.780264   -0.053036   -0.465735
 C   -2.253039   -0.290774   -0.169032
 O    2.103986   -1.181102    0.700070
 O    3.151017   -0.075948   -0.908127
 O   -3.005981    0.827041   -0.018710
 O   -2.762410   -1.373832   -0.076939
 H    1.429164    1.737408   -0.680601
 H    1.863802    1.701233    1.017432
 H   -0.576260    1.755704    0.717356
 H   -0.112066    0.307224    1.569182
 H   -0.309156   -1.033634   -0.559158
 H   -0.702601    0.435668   -1.447482
 H    1.413184   -1.016956    1.356774
 H   -2.462571    1.615144   -0.153207
