23 
3p58_ligand_xtb.xyz
 C   -0.497109    1.731311    0.989167
 S   -2.716857    1.230384   -0.863391
 S   -2.541653   -1.593858   -0.065698
 C    3.746767    0.073767   -0.962761
 C    3.738074    0.189412    0.416200
 C    2.585446   -0.272693   -1.633791
 C    2.570140   -0.036265    1.124398
 C    1.420316   -0.503626   -0.926334
 C    0.114748   -0.624755    1.207293
 C   -1.932754    0.090948    0.012882
 C    1.405282   -0.387266    0.458350
 N   -0.887868    0.348985    0.811880
 H    0.133603    1.806372    1.872279
 H    0.049680    2.106905    0.120785
 H   -1.390483    2.340967    1.118978
 H   -2.348389   -1.904574    1.219164
 H    4.657077    0.253359   -1.514798
 H    4.641196    0.459243    0.943045
 H    2.587357   -0.364400   -2.709432
 H    2.567048    0.055698    2.201570
 H    0.513922   -0.772457   -1.450176
 H    0.279714   -0.542885    2.287183
 H   -0.244960   -1.630541    0.981243
