31 
3p5l_ligand_xtb.xyz
 N    1.399762    2.486773    1.841258
 N   -1.917277    0.398994    0.213222
 S   -3.868189    0.427187   -1.562774
 S   -3.769940   -1.527784    0.604668
 C    1.211443    1.570374    1.184411
 C    4.884070   -1.025564   -0.779709
 C    4.545959    0.311336   -0.903607
 C    3.958762   -1.918132   -0.270809
 C    3.289578    0.745487   -0.525562
 C    2.700016   -1.484151    0.112004
 C   -1.255962    0.070694    1.455024
 C   -1.171484    1.368327   -0.563026
 C    0.099940   -0.580522    1.167868
 C    0.206335    0.803426   -0.908963
 C   -3.052953   -0.132917   -0.256111
 C    2.351061   -0.147732   -0.016166
 C    0.978987    0.394450    0.364283
 H   -2.635548   -2.160327    0.922080
 H    5.864409   -1.368034   -1.074115
 H    5.262040    1.019243   -1.292649
 H    4.213979   -2.962113   -0.166124
 H    3.038967    1.793023   -0.615045
 H    2.004210   -2.204895    0.511895
 H   -1.883324   -0.578947    2.065900
 H   -1.100580    1.004025    2.010731
 H   -1.066082    2.287829    0.023239
 H   -1.730621    1.591868   -1.472813
 H   -0.057738   -1.487678    0.580342
 H    0.587374   -0.845658    2.107687
 H    0.768347    1.550923   -1.469534
 H    0.092736   -0.080531   -1.541087
