31 
3p5l_ligand_dft.xyz
 N    1.413477    2.992688    1.233906
 N   -1.931627    0.529113    0.146358
 S   -3.835430   -0.052220   -1.650023
 S   -3.659908   -1.445790    0.882759
 C    1.255581    1.918867    0.830284
 C    4.772616   -1.366280   -0.593457
 C    4.566752   -0.023434   -0.898936
 C    3.761858   -2.088312    0.029219
 C    3.358580    0.585574   -0.584854
 C    2.550129   -1.476800    0.343920
 C   -1.267101    0.525426    1.446610
 C   -1.182521    1.319854   -0.833280
 C    0.093951   -0.163505    1.335943
 C    0.204058    0.704235   -1.027241
 C   -3.001915   -0.208474   -0.219869
 C    2.334344   -0.133211    0.039421
 C    0.993875    0.561716    0.305145
 H   -2.587990   -1.694634    1.658870
 H    5.716656   -1.844155   -0.835985
 H    5.350219    0.554526   -1.379174
 H    3.911602   -3.134739    0.276900
 H    3.215091    1.638145   -0.815744
 H    1.784067   -2.067807    0.833416
 H   -1.895722    0.058895    2.202002
 H   -1.139134    1.570253    1.754135
 H   -1.107173    2.349244   -0.463326
 H   -1.735028    1.333626   -1.770861
 H   -0.070607   -1.191701    0.997259
 H    0.588515   -0.200230    2.311660
 H    0.780569    1.308241   -1.734394
 H    0.100150   -0.298055   -1.457808
