52 
3p5o_ligand_ani.xyz
Cl    6.480765   -2.360359    0.503674
 C    4.850070   -1.783463    0.316077
 C    4.481329   -0.575597    0.895381
 C    3.180156   -0.118808    0.734970
 C    3.935280   -2.542760   -0.404540
 C    2.635258   -2.079818   -0.547237
 C    2.242743   -0.851765   -0.000308
 C    0.826336   -0.402640   -0.176079
 N   -0.023096   -1.335869   -0.409846
 C    0.519372    1.081402   -0.193868
 C   -0.601453    1.643680    0.459306
 C   -0.851043    3.007861    0.349356
 C   -0.023407    3.834841   -0.383441
 C    1.098751    3.303138   -1.022628
 O    1.864810    4.188789   -1.716870
 C    3.003556    3.678491   -2.372801
 C    1.365602    1.946920   -0.911425
 N   -1.500190    0.844679    1.217740
 C   -1.950046   -0.393808    0.847604
 N   -2.756610   -0.873884    1.751677
 N   -2.842434    0.047525    2.764864
 C   -2.092721    1.068379    2.441439
 C   -1.891667    2.274667    3.289297
 C   -1.456823   -1.047680   -0.421187
 C   -2.200914   -2.369427   -0.683712
 C   -3.584642   -2.147261   -1.268879
 O   -3.784741   -2.130003   -2.476568
 N   -4.569908   -1.951211   -0.353009
 C   -5.910767   -1.602269   -0.782768
 C   -6.071983   -0.112036   -1.069869
 H    5.207154    0.000404    1.459964
 H    2.890761    0.828283    1.182944
 H    4.239978   -3.489741   -0.840734
 H    1.901334   -2.667819   -1.089122
 H   -1.731628    3.424905    0.828620
 H   -0.222430    4.896439   -0.476431
 H    3.701487    3.218535   -1.660633
 H    3.485717    4.531772   -2.852412
 H    2.728578    2.939960   -3.137047
 H    2.246186    1.515038   -1.378226
 H   -0.841072    2.577724    3.309121
 H   -2.480020    3.123638    2.922595
 H   -2.227723    2.043105    4.301037
 H   -1.687020   -0.354683   -1.250289
 H   -2.242440   -2.948467    0.243833
 H   -1.608835   -2.915930   -1.418599
 H   -4.285741   -1.742522    0.599881
 H   -6.606967   -1.926641   -0.001997
 H   -6.120441   -2.183187   -1.685116
 H   -5.373270    0.195104   -1.855399
 H   -7.089124    0.110340   -1.409934
 H   -5.870304    0.488598   -0.175121
