60 
3p78_ligand_xtb.xyz
 C   -2.194026    2.945273   -0.098806
 O   -4.445226   -4.412092    1.724161
 S   -4.729239   -3.432207    0.713746
 C    7.026955   -2.402037   -0.443753
 S   -0.485453    2.694043    0.201425
 C   -0.630771    1.048285   -0.257729
 C   -1.928650    0.676417   -0.557447
 C   -2.804782    1.802246   -0.490239
 C   -2.768224    4.324870    0.059171
 C   -2.183679    5.225840   -1.036945
 C   -4.294319    4.300912   -0.060780
 C   -2.376425    4.876870    1.434786
 C   -2.217697   -0.690726   -0.973711
 C    8.236040   -0.083803    0.514995
 O   -1.334014   -1.423745   -1.426641
 C    8.992097   -1.181308    0.210485
 N    0.453015    0.215108   -0.311969
 C    1.718634    0.663034   -0.005836
 C    8.381546   -2.349443   -0.272659
 O    1.898180    1.794253    0.398884
 N    2.671964   -0.292947   -0.201909
 C    4.054931   -0.205202   -0.008513
 C    4.668557    0.966869    0.478931
 C    6.022152    1.006852    0.649578
 C    6.836555   -0.104698    0.348982
 C    6.218898   -1.285831   -0.139966
 C    4.822468   -1.306449   -0.308363
 N   -3.511674   -1.143813   -0.904799
 C   -4.415585   -0.800201    0.169670
 C   -4.289714   -1.777662    1.332577
 C   -3.572692   -3.606343   -0.673471
 C   -3.802290   -2.399811   -1.568212
 O   -6.066273   -3.373213    0.189381
 H    6.554082   -3.300151   -0.815345
 H   -3.833757    1.756553   -0.795018
 H   -2.433375    4.836053   -2.021303
 H   -2.585427    6.232517   -0.949963
 H   -1.101175    5.273558   -0.948521
 H   -4.688758    5.301110    0.100808
 H   -4.600932    3.971138   -1.050064
 H   -4.728941    3.637255    0.683092
 H   -1.294462    4.923083    1.530487
 H   -2.779532    5.878094    1.566638
 H   -2.766060    4.239307    2.225352
 H    8.700230    0.818361    0.887388
 H   10.064208   -1.158639    0.338794
 H    0.236984   -0.686345   -0.743154
 H    8.993668   -3.207660   -0.508499
 H    2.353640   -1.184942   -0.555508
 H    4.054722    1.820929    0.709810
 H    6.490459    1.906262    1.022479
 H    4.357965   -2.209327   -0.682495
 H   -5.441718   -0.844078   -0.208436
 H   -4.201804    0.208081    0.522741
 H   -3.274586   -1.842226    1.714671
 H   -4.978012   -1.535111    2.137069
 H   -3.796350   -4.537980   -1.184504
 H   -2.566847   -3.631916   -0.265389
 H   -3.161373   -2.459412   -2.451818
 H   -4.852095   -2.387655   -1.874059
