58 
3p7a_ligand_ani.xyz
 C    1.610891    0.661009    0.419702
 N   -2.075672   -1.249876   -0.500747
 O    1.671747    1.733832    0.989842
 S   -3.301157    1.221229   -0.607042
 C   -1.963243    0.120531   -0.403521
 N    2.700832   -0.155234    0.190454
 O   -5.383427   -3.365528    1.287369
 S   -4.145093   -3.281917    0.523487
 C    4.030182    0.111644    0.577667
 O   -3.517416   -4.483179   -0.026700
 C    5.077615   -0.482916   -0.209261
 C    6.419881   -0.326125    0.219674
 C    6.699890    0.438653    1.384788
 C    5.680909    1.026122    2.084526
 C    4.335590    0.873376    1.678571
 N    0.436627    0.122080   -0.075069
 C   -0.798204    0.804091   -0.136452
 C   -2.277208    2.595864   -0.258247
 C   -0.989036    2.203580   -0.026588
 C   -2.858920    3.996573   -0.270503
 C   -1.765278    4.993838    0.122731
 C   -4.015105    4.107414    0.736925
 C   -3.366425    4.347680   -1.679805
 C   -1.694551   -2.102308    0.619871
 C   -2.894954   -2.453892    1.505059
 C   -4.364342   -2.144082   -0.845193
 C   -2.997976   -1.826593   -1.462104
 C    4.826026   -1.201980   -1.410400
 C    5.852139   -1.768724   -2.122287
 C    7.185454   -1.639112   -1.673408
 C    7.459807   -0.933294   -0.533907
 H    2.544012   -1.076245   -0.188462
 H    7.733558    0.554555    1.701798
 H    5.892482    1.622878    2.968796
 H    3.539362    1.349922    2.237082
 H    0.479527   -0.716972   -0.638148
 H   -0.162711    2.856825    0.226928
 H   -1.377129    4.771869    1.123021
 H   -0.928983    4.953326   -0.583761
 H   -2.161055    6.015463    0.126264
 H   -4.833935    3.430622    0.475471
 H   -3.669385    3.857069    1.745912
 H   -4.403053    5.132228    0.747168
 H   -2.549909    4.292477   -2.408294
 H   -4.156200    3.659826   -1.996268
 H   -3.769764    5.366501   -1.688460
 H   -0.947276   -1.572833    1.216442
 H   -1.249990   -3.025209    0.229365
 H   -2.622112   -3.161300    2.293585
 H   -3.346983   -1.567495    1.959637
 H   -4.865804   -1.243453   -0.475970
 H   -5.022372   -2.660272   -1.551461
 H   -2.555157   -2.747998   -1.860727
 H   -3.112480   -1.108944   -2.280237
 H    3.810931   -1.281802   -1.791691
 H    5.641452   -2.322489   -3.033870
 H    7.990280   -2.096288   -2.243510
 H    8.484074   -0.819141   -0.187303
