137 
3p9m_ligand_ani.xyz
 N   -5.613263   -0.737776    2.978246
 C   -4.624542   -1.786472    2.617145
 C   -5.003299   -2.258801    1.210370
 O   -6.192731   -2.274818    0.894992
 C   -4.738277   -2.907629    3.650303
 O   -4.741313   -2.237135    4.902691
 N   -3.981973   -2.624101    0.398132
 C   -4.064509   -2.560184   -1.068600
 C   -4.061145   -1.066947   -1.448452
 O   -3.014160   -0.502422   -1.765459
 C   -5.191387   -3.399646   -1.693163
 C   -5.209648   -4.831331   -1.138695
 C   -5.072181   -3.365219   -3.219871
 C   -3.901011   -5.604666   -1.290288
 N   -5.244299   -0.401269   -1.348178
 C   -5.231518    1.049230   -1.341593
 C   -4.707307    1.581619    0.005171
 O   -4.591029    0.881062    1.005167
 C   -6.558132    1.708050   -1.783121
 C   -7.664481    1.779832   -0.716066
 C   -7.046786    1.106120   -3.100708
 C   -8.261150    0.450641   -0.257701
 N   -4.373990    2.906847    0.012102
 C   -3.412949    3.399887    0.974995
 C   -1.977415    3.229283    0.469559
 O   -1.643652    2.245098   -0.187475
 N   -1.108799    4.218896    0.775832
 C    0.213942    4.330841    0.167395
 C    1.242836    3.450014    0.901183
 O    2.242047    3.936572    1.430813
 C    0.629436    5.805910    0.151057
 C    1.839216    6.139902   -0.691160
 C    1.814978    5.953394   -2.075151
 C    2.989044    6.681428   -0.109721
 C    2.906501    6.314087   -2.860024
 C    4.080714    7.053055   -0.891437
 C    4.039528    6.869644   -2.271493
 N    0.964530    2.126013    0.933913
 C    1.894280    1.196323    1.529876
 C    3.038138    0.824107    0.558607
 O    3.254144    1.411071   -0.496972
 C    1.214103   -0.029454    2.165083
 C    0.850792   -1.199472    1.228742
 C   -0.497593   -1.000934    0.585946
 O   -0.456589   -0.504106   -0.637511
 O   -1.527439   -1.259171    1.186620
 N    3.841073   -0.178536    1.002967
 C    4.845129   -0.803016    0.169293
 C    4.793262   -2.304509    0.457416
 O    4.264971   -2.744431    1.465035
 C    6.273307   -0.271715    0.423656
 C    6.455337    1.197181    0.018505
 C    6.152341    2.215773    1.124462
 C    5.968077    3.639036    0.587271
 N    4.635962    3.821074   -0.050670
 N    5.376630   -3.118282   -0.479339
 C    5.744259   -4.463575   -0.092868
 C    6.958966   -4.394580    0.830576
 O    7.609685   -3.398094    1.033829
 C    5.999047   -5.373094   -1.303210
 C    4.732667   -5.978742   -1.931006
 C    5.125779   -6.927821   -3.064731
 C    3.739710   -4.932217   -2.435677
 O    7.236203   -5.577706    1.403452
 H   -5.319730    0.147780    2.534006
 H   -6.515004   -1.057838    2.578604
 H   -5.635267   -0.684196    4.008390
 H   -3.609926   -1.377857    2.641229
 H   -3.890300   -3.599723    3.558431
 H   -5.672996   -3.467130    3.494359
 H   -4.937604   -2.874588    5.598753
 H   -3.063894   -2.372612    0.757078
 H   -3.103119   -2.939079   -1.429791
 H   -6.146948   -2.952192   -1.412114
 H   -5.495299   -4.794337   -0.082696
 H   -6.011936   -5.376108   -1.652983
 H   -5.157926   -2.340666   -3.597378
 H   -5.863125   -3.962741   -3.686332
 H   -4.107534   -3.765200   -3.555597
 H   -3.596031   -5.689077   -2.340259
 H   -4.008654   -6.620555   -0.896333
 H   -3.087199   -5.122547   -0.737653
 H   -5.960554   -0.857065   -0.793420
 H   -4.487756    1.326009   -2.099978
 H   -6.289875    2.753241   -1.997347
 H   -8.471681    2.394234   -1.135788
 H   -7.286702    2.333133    0.153252
 H   -7.327690    0.053953   -2.990672
 H   -7.922266    1.651306   -3.470275
 H   -6.267267    1.161777   -3.868841
 H   -9.123117    0.625973    0.394608
 H   -8.605276   -0.152274   -1.106073
 H   -7.546119   -0.148642    0.312757
 H   -4.361813    3.358874   -0.890794
 H   -3.541780    2.801183    1.880629
 H   -3.627159    4.446209    1.213919
 H   -1.422868    4.986505    1.350659
 H    0.124144    3.944286   -0.856310
 H    0.799481    6.127458    1.183692
 H   -0.231773    6.368586   -0.229886
 H    0.927388    5.533637   -2.547401
 H    3.044646    6.777401    0.972178
 H    2.873365    6.166965   -3.936330
 H    4.969706    7.470783   -0.422589
 H    4.887852    7.160387   -2.885548
 H    0.168160    1.791887    0.396165
 H    2.379309    1.744692    2.346730
 H    1.878658   -0.414270    2.948831
 H    0.316262    0.313233    2.690491
 H    1.626722   -1.370914    0.478358
 H    0.767034   -2.101629    1.841121
 H   -1.379978   -0.385437   -0.972418
 H    3.559152   -0.743201    1.795185
 H    4.592012   -0.613697   -0.882325
 H    6.964312   -0.890979   -0.161844
 H    6.540372   -0.430482    1.477481
 H    5.821855    1.394696   -0.856244
 H    7.487018    1.356549   -0.318857
 H    6.972145    2.210957    1.852717
 H    5.250047    1.930385    1.678588
 H    6.740642    3.858174   -0.154938
 H    6.073389    4.369612    1.394034
 H    4.314964    2.950556   -0.507311
 H    3.922416    4.056430    0.660957
 H    4.649285    4.579930   -0.749189
 H    6.009951   -2.659541   -1.120369
 H    4.914920   -4.862824    0.499799
 H    6.651766   -6.195182   -0.986612
 H    6.558202   -4.805555   -2.063346
 H    4.233047   -6.570191   -1.147740
 H    4.245146   -7.413812   -3.499536
 H    5.807552   -7.712443   -2.717022
 H    5.631776   -6.375997   -3.867246
 H    4.212826   -4.278945   -3.179647
 H    3.358428   -4.304924   -1.624598
 H    2.885640   -5.419588   -2.920149
 H    8.016026   -5.432162    1.965037
