137 
3p9m_ligand_xtb.xyz
 N   -5.271637   -0.437526    3.073082
 C   -4.328426   -1.481185    2.607967
 C   -4.972111   -1.986627    1.300495
 O   -6.193854   -1.988049    1.255708
 C   -4.257870   -2.558375    3.695457
 O   -4.046784   -1.868485    4.909458
 N   -4.129605   -2.325429    0.335125
 C   -4.506088   -2.387706   -1.080037
 C   -4.635070   -0.908948   -1.468872
 O   -3.715895   -0.319248   -2.024304
 C   -5.724919   -3.260716   -1.399610
 C   -5.555281   -4.683572   -0.843564
 C   -5.946541   -3.250379   -2.911063
 C   -4.286899   -5.410214   -1.275580
 N   -5.732669   -0.275170   -1.046997
 C   -5.783819    1.169456   -1.127720
 C   -4.885076    1.766699   -0.040860
 O   -4.849367    1.344703    1.113022
 C   -7.214143    1.749893   -1.076107
 C   -7.922705    1.661433    0.287459
 C   -8.046651    1.154809   -2.210364
 C   -8.514080    0.310775    0.680881
 N   -4.163983    2.820735   -0.434030
 C   -3.224703    3.509157    0.416903
 C   -1.787559    3.225839   -0.026719
 O   -1.483308    2.214613   -0.631141
 N   -0.895417    4.176594    0.301044
 C    0.465911    4.192200   -0.217549
 C    1.398743    3.284312    0.604339
 O    2.365974    3.712516    1.226637
 C    0.969138    5.635785   -0.264034
 C    2.348495    5.769927   -0.852478
 C    2.679124    5.177591   -2.067087
 C    3.306476    6.535135   -0.197112
 C    3.946970    5.327071   -2.603370
 C    4.575123    6.693838   -0.733194
 C    4.904524    6.077341   -1.933791
 N    1.048501    2.001945    0.567607
 C    1.810792    0.954716    1.210697
 C    3.132645    0.727273    0.447094
 O    3.472100    1.448158   -0.484925
 C    0.970523   -0.319555    1.310058
 C    0.624873   -0.895108   -0.071062
 C   -0.861351   -0.827588   -0.370663
 O   -1.111398   -0.651240   -1.633471
 O   -1.707530   -0.968085    0.495544
 N    3.889985   -0.244676    0.943508
 C    5.057488   -0.809866    0.301949
 C    4.938930   -2.329650    0.525449
 O    4.147299   -2.760871    1.344213
 C    6.373119   -0.315022    0.926356
 C    6.673997    1.149365    0.589499
 C    6.103381    2.132842    1.617429
 C    6.012352    3.545526    1.052294
 N    4.820202    3.663943    0.180367
 N    5.726560   -3.076439   -0.251425
 C    6.022804   -4.467580    0.027905
 C    7.437610   -4.505824    0.608505
 O    8.131112   -3.525247    0.688233
 C    5.921613   -5.349327   -1.223571
 C    4.495560   -5.803408   -1.558670
 C    4.539727   -6.713435   -2.784441
 C    3.554894   -4.627101   -1.808270
 O    7.798257   -5.714319    1.000715
 H   -5.171033    0.406170    2.457557
 H   -6.218510   -0.830703    2.903624
 H   -5.107617   -0.253482    4.069686
 H   -3.344959   -1.042784    2.429367
 H   -3.442797   -3.254382    3.473999
 H   -5.203478   -3.117554    3.725624
 H   -3.890310   -2.495885    5.622158
 H   -3.150300   -2.075370    0.481267
 H   -3.642115   -2.788172   -1.617721
 H   -6.614094   -2.844451   -0.919326
 H   -5.584298   -4.636727    0.247231
 H   -6.420467   -5.264378   -1.165630
 H   -6.124138   -2.238264   -3.268770
 H   -6.809566   -3.859029   -3.164302
 H   -5.082397   -3.645644   -3.437576
 H   -4.201663   -5.444155   -2.357742
 H   -4.318843   -6.434178   -0.913359
 H   -3.395962   -4.940405   -0.865040
 H   -6.457791   -0.765463   -0.544492
 H   -5.351998    1.433418   -2.101520
 H   -7.090686    2.820935   -1.279346
 H   -8.743720    2.380457    0.256026
 H   -7.236274    1.999717    1.066694
 H   -8.120506    0.074293   -2.129840
 H   -9.049121    1.572421   -2.189207
 H   -7.600611    1.392400   -3.173025
 H   -9.078146    0.429813    1.603390
 H   -9.203908   -0.047603   -0.076657
 H   -7.758127   -0.449459    0.854625
 H   -4.137864    3.056322   -1.414826
 H   -3.364137    3.127960    1.433714
 H   -3.429594    4.583198    0.402026
 H   -1.176771    4.970642    0.855345
 H    0.425366    3.760543   -1.225753
 H    0.979332    6.037151    0.751520
 H    0.268883    6.225830   -0.861998
 H    1.940950    4.616569   -2.618509
 H    3.056020    7.025282    0.730973
 H    4.183448    4.875373   -3.553985
 H    5.300150    7.310469   -0.224860
 H    5.884935    6.213872   -2.363635
 H    0.256438    1.731631   -0.013401
 H    2.085451    1.305409    2.215848
 H    1.499041   -1.060488    1.908698
 H    0.041244   -0.088277    1.836596
 H    1.159316   -0.388718   -0.874701
 H    0.895730   -1.952612   -0.117405
 H   -2.082950   -0.540246   -1.850848
 H    3.530617   -0.880666    1.654181
 H    5.030412   -0.570821   -0.766401
 H    7.182433   -0.948047    0.561398
 H    6.324848   -0.447872    2.008014
 H    6.276251    1.364511   -0.404597
 H    7.754154    1.288584    0.543185
 H    6.745550    2.138232    2.497401
 H    5.110091    1.821014    1.940670
 H    6.907830    3.768984    0.469760
 H    5.927669    4.280848    1.852761
 H    4.635928    2.779010   -0.340454
 H    3.937843    3.791809    0.740332
 H    4.892126    4.456621   -0.477179
 H    6.405713   -2.615909   -0.841069
 H    5.322520   -4.814745    0.794405
 H    6.531788   -6.237904   -1.057659
 H    6.342554   -4.805120   -2.072313
 H    4.112380   -6.380159   -0.710446
 H    3.547560   -7.094368   -3.010968
 H    5.197781   -7.560997   -2.612559
 H    4.902291   -6.167145   -3.652252
 H    3.958678   -3.970352   -2.575902
 H    3.395297   -4.052691   -0.900063
 H    2.589820   -4.994113   -2.149166
 H    8.700781   -5.722358    1.361259
