24 
3p9t_ligand_ani.xyz
 C   -3.522680    0.108511    0.859830
 C   -3.748915   -0.525575   -0.356128
 C   -2.280028    0.677669    1.107394
 C   -1.273301    0.579169    0.139838
 C   -1.512094   -0.051787   -1.072463
 C   -2.762865   -0.607593   -1.330039
 C    3.433332   -0.993684    0.123093
 C    3.368469    0.290033   -0.402946
 C    2.181835    1.006725   -0.300214
 C    1.068184    0.435337    0.316156
 C    2.334853   -1.573208    0.743963
 C    1.149301   -0.854676    0.834353
 O   -0.070414    1.189714    0.454357
Cl   -5.312070   -1.226186   -0.660703
Cl    4.920223   -1.887070   -0.000134
Cl    2.086811    2.612144   -0.940767
 O   -2.075804    1.316314    2.281671
 H   -4.298307    0.173356    1.615580
 H   -0.724271   -0.106270   -1.817799
 H   -2.967723   -1.103927   -2.272293
 H    4.231974    0.735695   -0.886167
 H    2.406376   -2.577457    1.147674
 H    0.273175   -1.286521    1.308935
 H   -1.182405    1.690295    2.266084
