20 
3pax_ligand_ani.xyz
 C    1.515291    0.228556    0.004907
 O    2.748695   -0.345467   -0.019570
 C    2.809120   -1.746809   -0.160100
 C    0.315071   -0.479203   -0.053307
 C   -0.897835    0.214975   -0.003079
 C   -2.223685   -0.492006   -0.051469
 O   -3.237151    0.057655   -0.443260
 N   -2.217040   -1.804783    0.352747
 C   -0.911350    1.603166    0.061725
 C    0.290010    2.302203    0.123921
 C    1.498617    1.623851    0.102008
 H    2.299153   -2.255050    0.668606
 H    2.368330   -2.074076   -1.110751
 H    3.868522   -2.006865   -0.146722
 H    0.308745   -1.559759   -0.171903
 H   -3.133714   -2.219236    0.443375
 H   -1.518267   -2.124959    1.005619
 H   -1.868961    2.113737    0.059336
 H    0.282771    3.386875    0.187251
 H    2.448912    2.146906    0.150967
