42 
3pb7_ligand_dft.xyz
 C    3.506455   -3.805225   -1.304657
 C    5.029032   -0.159810    2.363994
 S   -0.132681    4.253360   -0.314355
 C   -5.566235   -2.655108    0.913549
 C    1.787666    0.036527   -1.461483
 C    2.329492   -1.252896   -1.431095
 C   -4.895757   -1.560762    1.387930
 C   -5.497676   -1.269965   -0.699770
 C    3.106328    0.620057    0.474703
 C   -2.672866    0.454782    0.083796
 C   -1.968451    1.806808    0.070090
 C   -4.175400    0.610491    0.317094
 N   -5.940402   -2.465653   -0.393751
 N   -0.551952    1.618765   -0.171852
 N    1.626888    2.281929   -0.509701
 O    3.859832   -2.815083   -0.365074
 O    4.589115   -1.073330    1.383664
 C    0.319582    2.635262   -0.330804
 C    2.165843    0.966955   -0.506931
 C    3.268961   -1.605147   -0.472957
 C    3.670586   -0.646484    0.491161
 N   -4.861332   -0.666374    0.342276
 H    2.437311   -4.048081   -1.250144
 H    3.756659   -3.496082   -2.327682
 H    4.090006   -4.687764   -1.041821
 H    5.499174    0.721551    1.909246
 H    4.203953    0.162668    3.012070
 H    5.767605   -0.695413    2.960647
 H   -5.809250   -3.566660    1.441601
 H    1.084238    0.314722   -2.239526
 H    2.018818   -1.969166   -2.182415
 H   -4.458303   -1.329348    2.347812
 H   -5.611817   -0.776909   -1.656798
 H    3.373883    1.359283    1.220780
 H   -2.254809   -0.182629    0.873665
 H   -2.512896   -0.063493   -0.869424
 H   -2.119708    2.335532    1.020351
 H   -2.377756    2.451907   -0.715051
 H   -4.623854    1.215844   -0.476970
 H   -4.367160    1.126696    1.263608
 H   -0.182518    0.679610   -0.105463
 H    2.259992    3.067707   -0.540068
