22 
3pb9_ligand_xtb.xyz
 C   -2.459551    0.166481   -0.951742
 C   -3.324900    0.708422   -0.046114
 N   -1.523696   -0.510544   -0.222248
 C   -1.861852   -0.337092    1.077499
 N   -2.937979    0.385373    1.215099
 C   -0.369190   -1.210035   -0.721471
 C    0.915402   -0.500411   -0.359853
 C    1.016843    0.877196   -0.507463
 C    2.004775   -1.212411    0.121460
 C    2.189813    1.531156   -0.177242
 C    3.180604   -0.558521    0.446229
 C    3.274635    0.814419    0.299081
 H   -2.434256    0.196034   -2.022249
 H   -4.196829    1.306186   -0.220106
 H   -1.294210   -0.756019    1.884500
 H   -0.459641   -1.279656   -1.811094
 H   -0.356966   -2.227106   -0.314126
 H    0.171049    1.440502   -0.875282
 H    1.933723   -2.284294    0.241898
 H    2.256764    2.602663   -0.292440
 H    4.022343   -1.122647    0.819640
 H    4.190273    1.325309    0.557002
