42 
3pbb_ligand_ani.xyz
 C    3.583853   -3.536285   -1.749046
 C    4.334476   -0.709419    2.828129
 S    0.019210    4.319514   -0.144804
 C   -5.611461   -2.539527    1.050190
 C    2.085522    0.365442   -1.506272
 C    2.585633   -0.932950   -1.611089
 C   -5.016227   -1.357806    1.389379
 C   -5.175800   -1.559093   -0.785275
 C    2.957590    0.499199    0.734154
 C   -2.542675    0.444325   -0.074843
 C   -1.886110    1.807766   -0.238179
 C   -4.064544    0.551552    0.019582
 N   -5.708350   -2.659598   -0.314335
 N   -0.446063    1.643331   -0.354999
 N    1.773193    2.391548   -0.160552
 O    3.760356   -2.786023   -0.567595
 O    4.127849   -1.425875    1.631033
 C    0.513178    2.603620   -0.241075
 C    2.247609    1.079715   -0.323803
 C    3.255768   -1.528922   -0.553165
 C    3.451821   -0.791354    0.643463
 N   -4.736423   -0.726269    0.197172
 H    2.518996   -3.679809   -1.976700
 H    4.073339   -3.053958   -2.605822
 H    4.048946   -4.505214   -1.563433
 H    4.928030    0.197819    2.654461
 H    3.381745   -0.435913    3.300387
 H    4.885344   -1.380106    3.488889
 H   -1.251986    4.171522   -0.537733
 H   -5.979131   -3.312565    1.714380
 H    1.560252    0.816725   -2.343130
 H    2.428062   -1.475129   -2.535258
 H   -4.780647   -0.911249    2.345579
 H   -5.091654   -1.306023   -1.835927
 H    3.102082    1.098613    1.627505
 H   -2.151698   -0.035870    0.830773
 H   -2.270815   -0.188661   -0.928916
 H   -2.123670    2.451218    0.621931
 H   -2.274483    2.312384   -1.134524
 H   -4.466566    1.008562   -0.891718
 H   -4.347111    1.194798    0.860969
 H   -0.090336    0.695158   -0.346261
