16 
3pcb_ligand_ani.xyz
 C    2.051842   -0.159410   -0.000855
 O    2.449519   -1.447903    0.009493
 O    2.877111    0.716976   -0.008196
 C    0.572222    0.125286   -0.001959
 C   -0.416881   -0.858539   -0.005630
 C   -1.759443   -0.490166   -0.001531
 C   -2.120389    0.856643    0.004218
 C   -1.128967    1.832421    0.003965
 C    0.210946    1.473865    0.000681
 O   -2.676426   -1.497752   -0.003313
 H    1.691985   -2.045684    0.020699
 H   -0.208311   -1.928139   -0.014195
 H   -3.171299    1.141582    0.008798
 H   -1.409470    2.881805    0.006384
 H    1.002432    2.215833    0.000277
 H   -3.562939   -1.116554    0.000842
