19 
3pce_ligand_ani.xyz
 C    2.520238   -0.055868   -0.239658
 O    3.741904   -0.611428   -0.060415
 O    2.352671    0.761700   -1.101268
 C    1.452676   -0.542872    0.738513
 C    0.056974   -0.054655    0.433540
 C   -0.950240   -0.966405    0.141953
 C   -2.246423   -0.520057   -0.119101
 C   -2.533796    0.843250   -0.087074
 C   -1.518232    1.750272    0.199603
 C   -0.226194    1.312786    0.454363
 O   -3.191285   -1.461507   -0.394952
 H    3.723938   -1.244391    0.670197
 H    1.756705   -0.198664    1.738801
 H    1.473749   -1.640533    0.764341
 H   -0.754250   -2.035709    0.113400
 H   -3.545021    1.195080   -0.287339
 H   -1.743919    2.813230    0.218873
 H    0.569983    2.024857    0.648991
 H   -4.037512   -1.022692   -0.547020
