19 
3pcg_ligand_ani.xyz
 C    2.654742    0.044823   -0.193730
 O    3.750708    0.491730    0.008230
 O    2.222483   -0.185496   -1.448809
 C    1.694278   -0.345625    0.932702
 C    0.233797   -0.189222    0.595912
 C   -0.331727    1.083907    0.474546
 C   -1.664771    1.246938    0.128353
 C   -2.461442    0.125671   -0.107086
 C   -1.914269   -1.151755    0.004595
 C   -0.574361   -1.298053    0.354153
 O   -3.763190    0.342033   -0.442239
 H    1.307150   -0.505821   -1.428928
 H    1.979431    0.256189    1.799433
 H    1.911752   -1.391745    1.190604
 H    0.293343    1.958162    0.645880
 H   -2.107762    2.233662    0.032513
 H   -2.528834   -2.030506   -0.183212
 H   -0.151552   -2.297371    0.440369
 H   -4.201018   -0.508804   -0.570773
