16 
3pcj_ligand_ani.xyz
 N   -1.769109   -0.468432    0.032740
 C   -1.365572    0.864414   -0.087221
 C    0.062373    1.020776   -0.067250
 C    0.889074   -0.061882    0.027273
 C    0.381515   -1.375203    0.165934
 C   -0.974813   -1.544734    0.170460
 C    2.370331    0.219258    0.039540
 O    2.834208    1.253407    0.436267
 O    3.166923   -0.762946   -0.429308
 O   -2.249625    1.717499   -0.187784
 O   -3.125454   -0.657277    0.025484
 H    0.466743    2.022634   -0.130363
 H    1.031657   -2.229199    0.312683
 H   -1.503882   -2.485627    0.264221
 H    2.633015   -1.449042   -0.852817
 H   -3.429637    0.279010   -0.072591
