16 
3pcj_ligand_xtb.xyz
 N   -1.774890   -0.479561    0.038518
 C   -1.361745    0.857124   -0.090366
 C    0.052102    1.021013   -0.073897
 C    0.899117   -0.049886    0.037786
 C    0.385774   -1.360327    0.166239
 C   -0.969657   -1.532715    0.174902
 C    2.376029    0.220293    0.043136
 O    2.847260    1.238022    0.459629
 O    3.151384   -0.752293   -0.462116
 O   -2.249670    1.693226   -0.199321
 O   -3.134143   -0.641074    0.030489
 H    0.444863    2.022165   -0.154185
 H    1.026416   -2.215363    0.308743
 H   -1.452769   -2.491194    0.284659
 H    2.643441   -1.496021   -0.812772
 H   -3.446081    0.301277   -0.072323
