16 
3pck_ligand_dft.xyz
 N    1.292109   -0.687448    0.054531
 C   -0.026320   -0.919147    0.073072
 C   -0.898218    0.138955   -0.023030
 C   -0.349052    1.448096   -0.099507
 C    0.998059    1.659916   -0.124069
 C    1.923530    0.567171   -0.047586
 C   -2.377534   -0.021056    0.036314
 O   -2.878534   -1.234588   -0.291810
 O   -3.113895    0.870617    0.366990
 O    3.153944    0.566390   -0.048380
 O    2.145998   -1.748892    0.159980
 H   -0.302806   -1.959702    0.202784
 H   -1.041843    2.282410   -0.137829
 H    1.424144    2.653372   -0.190944
 H   -2.222187   -1.760153   -0.766672
 H    3.015031   -1.275619    0.125536
