16 
3pck_ligand_ani.xyz
 N    1.312417   -0.686403    0.006198
 C   -0.001677   -0.947049    0.011602
 C   -0.895409    0.100010    0.006146
 C   -0.363608    1.412475    0.004201
 C    0.973095    1.661800    0.000004
 C    1.918381    0.577245   -0.003518
 C   -2.387966   -0.021977   -0.000632
 O   -2.922648   -1.261388   -0.015703
 O   -3.111497    0.939795    0.005452
 O    3.150404    0.609631   -0.013534
 O    2.191356   -1.737725    0.005779
 H   -0.215502   -2.013795    0.023666
 H   -1.072987    2.236951    0.005344
 H    1.372780    2.668731   -0.002801
 H   -2.237536   -1.941747   -0.026196
 H    3.048504   -1.242837   -0.006171
