20 
3pcn_ligand_dft.xyz
 C   -0.495928    0.281133    0.607119
 C    0.316539   -0.860391    0.570687
 C    1.650180   -0.772281    0.195359
 C    2.187645    0.474969   -0.154191
 C    1.392060    1.609499   -0.123034
 C    0.053263    1.512239    0.253437
 C   -1.957189    0.161136    0.962098
 C   -2.898820   -0.132336   -0.212686
 O   -2.342161   -0.661780   -1.315565
 O   -4.082787    0.064935   -0.149886
 O    2.421367   -1.882921    0.171201
 O    3.508711    0.452326   -0.506264
 H   -0.074468   -1.834626    0.851628
 H    1.814314    2.574352   -0.394122
 H   -0.563835    2.405549    0.270244
 H   -2.331364    1.073550    1.432941
 H   -2.112809   -0.647754    1.686026
 H   -1.379948   -0.715241   -1.202510
 H    3.310985   -1.621477   -0.107244
 H    3.809575    1.341364   -0.725584
