45 
3pd2_ligand_ani.xyz
 O    0.261489    3.153165   -1.153224
 C    1.240626    3.046417   -0.137125
 C    1.163106    1.634955    0.403582
 O   -0.110191    1.449449    1.014617
 C   -0.671542    0.228854    0.612396
 N   -2.113904    0.389490    0.585595
 C   -3.029052   -0.533538    0.133715
 N   -2.798564   -1.715662   -0.443576
 C   -3.934772   -2.358038   -0.743022
 N   -5.188238   -1.952642   -0.550517
 C   -5.383105   -0.750205    0.014266
 N   -6.641817   -0.304024    0.201786
 C   -4.272647    0.027703    0.386376
 N   -4.148007    1.278083    0.972702
 C   -2.860642    1.451763    1.069764
 C   -0.071941   -0.082762   -0.764795
 O   -0.005964   -1.461604   -0.994139
 C    1.310698    0.573015   -0.716957
 N    2.354085   -0.398526   -0.437105
 N    6.021288   -0.464852   -0.633963
 C    4.722553   -1.103958   -0.261982
 C    4.830592   -1.522619    1.212212
 O    6.137972   -2.066456    1.346673
 C    3.653024   -0.023388   -0.449623
 O    4.003756    1.151178   -0.543811
 H    0.222899    4.070811   -1.444826
 H    2.257162    3.203691   -0.527800
 H    1.054459    3.754051    0.683119
 H    1.931498    1.484622    1.170804
 H   -0.400421   -0.573530    1.315667
 H   -3.819716   -3.329448   -1.209083
 H   -7.415663   -0.919514    0.011080
 H   -6.787518    0.555969    0.706821
 H   -2.363641    2.322182    1.477523
 H   -0.687507    0.425838   -1.519093
 H   -0.924685   -1.800060   -0.945250
 H    1.525736    1.075829   -1.669028
 H    2.082274   -1.373254   -0.468747
 H    6.320533   -0.707940   -1.588449
 H    5.815222    0.554190   -0.561365
 H    6.712436   -0.789220    0.063798
 H    4.528842   -1.979577   -0.882158
 H    4.700037   -0.644032    1.861823
 H    4.059393   -2.262610    1.466504
 H    6.316881   -2.226140    2.280441
