48 
3pd3_ligand_ani.xyz
 C    3.479273    0.236135   -0.544470
 N    5.838914   -0.167159   -0.832250
 O    3.817949    1.417913   -0.520683
 N   -5.287817   -1.925962   -0.773042
 C   -4.030397   -2.217994   -1.095237
 N   -2.911743   -1.571918   -0.742110
 C   -3.163404   -0.515577    0.035621
 C   -4.416411   -0.083611    0.446309
 C   -5.506689   -0.853705    0.005361
 N   -6.769585   -0.544321    0.362655
 N   -4.321059    1.055520    1.231831
 C   -3.041050    1.287408    1.291963
 N    2.184213   -0.152464   -0.590209
 N   -2.270884    0.375909    0.587215
 C    4.561858   -0.844660   -0.456105
 C    4.718940   -1.378633    0.983160
 O    6.056207   -1.880359    1.011653
 C   -0.821876    0.296258    0.552829
 C   -0.248545    0.141992   -0.859966
 O   -0.149799   -1.201813   -1.235933
 C    1.121139    0.823033   -0.766124
 C    0.964384    1.764531    0.457304
 O   -0.314503    1.514049    1.032465
 C    1.048172    3.224309    0.066974
 O    0.079489    3.439613   -0.942157
 C    3.718602   -2.463335    1.347439
 H    5.630032    0.841928   -0.677327
 H    6.563814   -0.532830   -0.191188
 H    6.097513   -0.341116   -1.813647
 H   -3.893265   -3.086362   -1.728260
 H   -7.535197   -1.061724   -0.037645
 H   -6.941368    0.308523    0.871559
 H   -2.565212    2.099170    1.826328
 H    1.934887   -1.121903   -0.744722
 H    4.359809   -1.677894   -1.130697
 H    4.626730   -0.532288    1.682764
 H    6.250522   -2.171050    1.910740
 H   -0.479078   -0.542045    1.180145
 H   -0.892395    0.712306   -1.543334
 H   -1.062013   -1.561796   -1.237756
 H    1.313689    1.420948   -1.666789
 H    1.727382    1.531232    1.210048
 H    0.855738    3.843945    0.954328
 H    2.068845    3.416988   -0.295109
 H    0.082955    4.375590   -1.171704
 H    3.889793   -2.812842    2.371726
 H    3.820685   -3.320413    0.674016
 H    2.693143   -2.087715    1.294773
