48 
3pd3_ligand_dft.xyz
 C    3.453401    0.343592   -0.681205
 N    5.766701   -0.263965   -0.890362
 O    3.903650    1.488519   -0.723900
 N   -5.075561   -1.816005   -0.842048
 C   -3.829122   -2.128179   -1.191824
 N   -2.686520   -1.573738   -0.775968
 C   -2.920542   -0.583215    0.103631
 C   -4.153640   -0.136712    0.554198
 C   -5.275557   -0.815447    0.035105
 N   -6.532545   -0.498005    0.377279
 N   -4.008299    0.918202    1.433232
 C   -2.716325    1.094346    1.506516
 N    2.177476   -0.005953   -0.782368
 N   -1.998920    0.215851    0.725815
 C    4.452054   -0.795088   -0.413936
 C    4.604396   -1.073808    1.094361
 O    5.823600   -1.797074    1.169254
 C   -0.568313    0.071680    0.535790
 C   -0.205498    0.109298   -0.970785
 O    0.015812   -1.168337   -1.499200
 C    1.082676    0.940634   -0.970953
 C    0.893797    1.861418    0.246616
 O    0.135365    1.090338    1.184100
 C    0.199131    3.173443   -0.077023
 O   -0.993733    2.888574   -0.771803
 C    3.420886   -1.835592    1.668041
 H    5.684774    0.769989   -0.794207
 H    6.508670   -0.660732   -0.294282
 H    5.957519   -0.482241   -1.870539
 H   -3.731703   -2.937073   -1.910968
 H   -7.297873   -1.023878   -0.014142
 H   -6.711403    0.232854    1.046851
 H   -2.212692    1.840270    2.103334
 H    1.900160   -0.978575   -0.898623
 H    4.231966   -1.721122   -0.949815
 H    4.708043   -0.104143    1.605838
 H    6.043687   -1.976337    2.092375
 H   -0.269323   -0.896811    0.958192
 H   -0.978207    0.656013   -1.515822
 H   -0.858031   -1.621205   -1.430057
 H    1.228759    1.500323   -1.897746
 H    1.850132    2.094400    0.721848
 H    0.005175    3.690267    0.872388
 H    0.882906    3.794711   -0.675067
 H   -1.521858    3.691073   -0.845801
 H    3.601693   -2.055191    2.724287
 H    3.273112   -2.783955    1.142299
 H    2.506575   -1.237740    1.611812
