41 
3pd4_ligand_dft.xyz
 C   -4.105115   -0.480642    0.003907
 N   -6.356750   -1.120632   -0.500789
 O   -4.705893    0.555279    0.304635
 N    4.586119   -1.780028    0.461070
 C    3.356259   -2.286674    0.522655
 N    2.200746   -1.705317    0.186147
 C    2.400025   -0.451914   -0.260143
 C    3.610831    0.214780   -0.368822
 C    4.750506   -0.520034    0.018365
 N    5.988543   -0.008304   -0.033748
 N    3.429010    1.499080   -0.841762
 C    2.138020    1.594576   -1.014374
 N   -2.805020   -0.689599    0.094340
 N    1.455265    0.445580   -0.680897
 C   -4.959457   -1.647210   -0.548358
 C    0.040334    0.134657   -0.754176
 C   -0.479947   -0.388284    0.607288
 O   -0.572695   -1.784614    0.649482
 C   -1.867362    0.258760    0.696439
 C   -1.699249    1.551710   -0.120974
 O   -0.700727    1.264878   -1.102118
 C   -1.294607    2.744692    0.729251
 O   -0.182019    2.371369    1.510504
 H   -6.199140   -0.132986   -0.129790
 H   -6.811449   -1.080757   -1.414859
 H   -6.965105   -1.634865    0.139263
 H    3.284701   -3.304068    0.897772
 H    6.142066    0.923760   -0.383483
 H    6.771284   -0.582210    0.237102
 H    1.611855    2.464117   -1.379100
 H   -2.399372   -1.613410   -0.053721
 H   -4.691715   -1.890249   -1.577432
 H   -4.877887   -2.543987    0.067147
 H   -0.095163   -0.641619   -1.519314
 H    0.145453    0.011807    1.409063
 H    0.356261   -2.103759    0.541704
 H   -2.168663    0.463554    1.726356
 H   -2.617071    1.809471   -0.656174
 H   -1.057618    3.574734    0.050665
 H   -2.152607    3.040402    1.352183
 H    0.188012    3.152814    1.935720
