22 
3pd9_ligand_ani.xyz
 N   -3.224783   -0.152542   -0.034695
 O   -2.482741   -1.320926    0.210713
 C   -1.196413   -0.940050    0.062445
 C   -0.097905   -1.954103    0.132368
 N    1.096116   -1.279671   -0.386547
 C    1.309821    0.054894    0.282815
 C    2.788615    0.306626    0.090213
 O    3.531036   -0.616584   -0.170859
 O    3.188085    1.567630    0.273448
 C    0.292318    1.073288   -0.221580
 C   -1.028881    0.380215   -0.112735
 C   -2.359251    0.962850   -0.075581
 O   -2.745819    2.114087   -0.091246
 H   -4.032055   -0.124427    0.578773
 H   -0.349888   -2.845967   -0.442931
 H    0.045184   -2.267063    1.172247
 H    0.919108   -1.092421   -1.399286
 H    2.015653   -1.751603   -0.310074
 H    1.150933   -0.078842    1.354930
 H    4.152461    1.578416    0.149406
 H    0.503083    1.367194   -1.256617
 H    0.321877    1.984231    0.378117
