37 
3pe1_ligand_ani.xyz
 C   -1.348971   -0.280223    0.084412
 C   -2.375855    0.679368   -0.012435
 C   -3.715957    0.250807   -0.014758
 C   -4.025655   -1.085424    0.068342
 C   -2.999590   -2.049047    0.138454
 C   -1.683501   -1.645764    0.161895
 C   -0.607111    2.380337   -0.104790
 C   -1.979847    2.075395   -0.108518
 N    0.001057    0.031375    0.101152
 C    0.362316    1.271851    0.049446
 C   -1.236136    4.685771   -0.366718
 N   -2.553233    4.412451   -0.333859
 C   -2.892833    3.144415   -0.211830
 C   -0.250828    3.735248   -0.264394
 N    1.690134    1.626129    0.145398
 C    2.833065    0.814883    0.239997
 C    2.895240   -0.477604   -0.286120
 C    4.088468   -1.181329   -0.187665
 C    5.221915   -0.650399    0.412405
 C    5.148134    0.640407    0.924893
 C    3.972448    1.371537    0.835592
Cl    4.155790   -2.795648   -0.837669
 C   -3.421339   -3.488861    0.231556
 O   -2.506399   -4.415742   -0.125868
 O   -4.513328   -3.829220    0.602779
 H   -4.522852    0.975702   -0.079707
 H   -5.055552   -1.427741    0.083510
 H   -0.850406   -2.335185    0.282310
 H   -0.974984    5.736775   -0.477544
 H   -3.964210    2.948093   -0.194131
 H    0.786128    4.053595   -0.335526
 H    1.841093    2.587316    0.402483
 H    2.028886   -0.928087   -0.756000
 H    6.133903   -1.234810    0.472018
 H    6.020523    1.084658    1.395922
 H    3.933663    2.382583    1.235053
 H   -1.736287   -3.995096   -0.530730
