69 
3peq_ligand_ani.xyz
 C   -1.564883    6.867125   -0.603697
 C   -1.527083    5.650697    0.316659
 C   -0.566298    4.576495   -0.186910
 C   -0.533224    3.350422    0.726311
 N    0.231803    2.206034    0.191955
 C   -0.451386    1.414195   -0.802472
 C   -0.213440    1.585486   -2.161303
 C   -0.994839    0.884235   -3.076491
 C   -2.017438    0.060687   -2.632428
 C   -2.269962   -0.101634   -1.268058
 C   -1.406642    0.497842   -0.333170
 C   -1.419671    0.140038    1.142663
 C   -3.462716   -0.887696   -0.846695
 C   -3.719329   -2.138750   -1.411996
 C   -4.836757   -2.871683   -1.044404
 C   -5.751236   -2.359629   -0.116849
 S   -7.153368   -3.367245    0.268326
 C   -8.098908   -2.322568    1.391420
 C   -5.509494   -1.104011    0.441162
 C   -4.379949   -0.384745    0.078939
 S    1.894623    2.466482    0.048269
 O    2.270945    3.246485    1.218676
 O    2.232652    2.973233   -1.277094
 C    2.590280    0.838474    0.176304
 C    3.175322    0.305624   -0.943224
 C    3.719532   -0.991432   -0.933120
 C    3.657566   -1.742059    0.212720
 O    4.182277   -3.007132    0.332917
 C    4.508902   -3.710868   -0.853125
 C    5.897570   -3.337082   -1.386263
 O    6.206167   -3.464931   -2.538640
 O    6.756008   -2.887208   -0.456310
 C    3.075859   -1.213947    1.412666
 C    3.028624   -1.996029    2.597816
 C    2.476045   -1.484693    3.742742
 C    1.958261   -0.174886    3.750943
 C    1.996076    0.601980    2.618234
 C    2.544717    0.101020    1.406916
 H   -0.574050    7.328774   -0.687407
 H   -1.883754    6.583672   -1.613515
 H   -2.259334    7.629416   -0.235387
 H   -2.537233    5.226674    0.404632
 H   -1.227993    5.958620    1.328184
 H    0.445890    4.994747   -0.269914
 H   -0.857595    4.256182   -1.198953
 H   -1.546919    2.973162    0.894145
 H   -0.105649    3.598343    1.703018
 H    0.562838    2.265617   -2.493824
 H   -0.812213    0.999821   -4.141024
 H   -2.656823   -0.449853   -3.349714
 H   -0.395189    0.015153    1.515137
 H   -1.891636    0.922791    1.750614
 H   -1.968552   -0.789009    1.321341
 H   -3.022598   -2.554222   -2.137342
 H   -5.014145   -3.846470   -1.490781
 H   -7.549604   -2.121312    2.314654
 H   -8.390235   -1.382602    0.915539
 H   -9.003222   -2.884764    1.637285
 H   -6.187920   -0.671482    1.166765
 H   -4.208284    0.592774    0.523284
 H    3.223309    0.896402   -1.851607
 H    4.195909   -1.369501   -1.834008
 H    3.763451   -3.558486   -1.638168
 H    4.509884   -4.772366   -0.586322
 H    6.286525   -2.824607    0.391285
 H    3.438503   -2.999991    2.568613
 H    2.439013   -2.085341    4.648632
 H    1.529802    0.229894    4.662845
 H    1.597751    1.608719    2.644646
