31 
3pgu_ligand_ani.xyz
 C   -3.536130    0.743513    0.152414
 O   -2.491811    1.542282   -0.146707
 O   -4.573384    1.200988    0.546944
 C   -3.305886   -0.746347   -0.088678
 C   -1.873217   -1.134604    0.130685
 C   -1.044633   -1.487425   -0.850796
 C    0.443234   -1.685416   -0.754477
 C    1.017575   -1.445851    0.643532
 C    2.521011   -1.714687    0.751995
 C    3.420410   -0.804662   -0.101588
 C    3.336978    0.647632    0.283120
 C    2.794912    1.603316   -0.466651
 C    2.680587    3.046808   -0.080087
 H   -1.741385    0.988072   -0.419497
 H   -3.612264   -0.969501   -1.122459
 H   -3.983684   -1.282580    0.579789
 H   -1.530606   -1.016490    1.157896
 H   -1.468517   -1.640571   -1.845886
 H    0.921690   -1.019327   -1.485082
 H    0.681949   -2.704366   -1.088540
 H    0.498733   -2.100137    1.355856
 H    0.801860   -0.413242    0.951898
 H    2.715400   -2.760755    0.475203
 H    2.824660   -1.618979    1.803248
 H    3.172928   -0.922427   -1.165858
 H    4.457478   -1.148732    0.011943
 H    3.726253    0.907393    1.271195
 H    2.389274    1.335814   -1.445218
 H    1.630875    3.362987   -0.050047
 H    3.120219    3.233188    0.905422
 H    3.187642    3.689818   -0.808582
