57 
3piy_ligand_ani.xyz
 N   -4.733692    0.861516   -0.147505
 N    1.475189    2.271946    0.001141
 C   -3.371616    0.800143   -0.414663
 C    0.635183    3.282783   -0.145697
 C   -5.533216   -0.244100    0.008776
 N   -2.668132    1.918020   -0.326604
 C    2.756166    2.567370    0.254100
 O   -3.653361   -1.522465   -0.929037
 C   -4.798822   -1.592483   -0.063734
 N   -0.693156    3.050339   -0.403882
 C    1.102733    4.604197   -0.024212
 C    2.759767   -2.613752    0.356586
 C   -2.838001   -0.443453   -0.771295
 C   -1.354297    1.832287   -0.533681
 C    3.955846   -2.114024   -0.175795
 C    1.823165   -1.716305    0.879003
 N    3.300650    3.783498    0.351727
 C    3.283721    0.138720    0.389240
 C    4.234406   -0.751187   -0.130554
 C    2.076124   -0.345336    0.896751
 N    3.610787    1.507208    0.410213
 C    2.440140    4.804155    0.214642
 O   -6.717864   -0.166340    0.259902
 C   -1.477247   -0.508418   -1.022720
 F    0.235281    5.629217   -0.154341
 C   -0.707816    0.637739   -0.896413
 O    2.526577   -3.959639    0.399487
 O    0.668608   -2.276481    1.325796
 O    4.780259   -3.047210   -0.717586
 C   -4.344538   -1.970668    1.342528
 C   -5.725146   -2.638199   -0.658625
 C    1.862834   -4.446295   -0.754712
 C   -0.157580   -1.498108    2.165303
 C    6.014010   -2.599971   -1.236638
 H   -5.151245    1.767918    0.025551
 H   -1.313387    3.844741   -0.313745
 H    5.170437   -0.362830   -0.515420
 H    1.348343    0.346891    1.295921
 H    4.586241    1.763359    0.455874
 H    2.838186    5.813361    0.300049
 H   -1.025839   -1.466242   -1.278810
 H    0.354776    0.635337   -1.096142
 H   -3.802964   -2.920867    1.308443
 H   -3.681707   -1.205457    1.761505
 H   -5.218877   -2.074648    1.991372
 H   -5.994255   -2.364854   -1.683112
 H   -5.221406   -3.609302   -0.674558
 H   -6.635579   -2.705626   -0.059289
 H    0.902540   -3.932874   -0.897325
 H    2.486214   -4.312260   -1.647754
 H    1.684111   -5.511428   -0.590067
 H    0.404535   -1.091706    3.017435
 H   -0.626628   -0.674766    1.613159
 H   -0.932811   -2.172539    2.535289
 H    5.868313   -1.895851   -2.066113
 H    6.628235   -2.124496   -0.460720
 H    6.525077   -3.489995   -1.605724
