59 
3pj3_ligand_ani.xyz
 C  -18.017930    5.702585  -20.459727
 N  -18.910171    4.652097  -20.522372
 N  -17.965007    6.247685  -19.272634
 C  -19.447960    4.511218  -19.263127
 C  -20.235360    5.557744  -14.326627
 C  -18.855663    5.532203  -18.497200
 C  -20.816315    5.190711  -12.982773
 N  -20.328020    3.616893  -18.841604
 N  -20.555437    4.690217  -15.343240
 C  -19.212762    5.653103  -17.156584
 C  -23.141664    8.222926  -10.757771
 C  -23.937192    8.965039   -9.741778
 N  -22.747779    6.971065  -10.342059
 C  -20.130714    4.719183  -16.684468
 C  -24.429960   10.174358  -10.020096
 C  -21.459188    6.219349  -12.297633
 C  -17.228966    6.146060  -21.620740
 O  -19.585222    6.578616  -14.479705
 C  -20.697221    3.905858  -12.422947
 C  -22.064588    5.976183  -11.068455
 O  -22.878850    8.692871  -11.854289
 C  -20.651457    3.738600  -17.557578
 C  -21.304133    3.690420  -11.184169
 C  -21.982540    4.697339  -10.513011
 C  -25.272522   11.011368   -9.149115
 C  -19.936542    2.772259  -13.062950
 C  -17.536596    5.734845  -22.920128
 C  -16.148224    7.007563  -21.414597
 C  -25.651063   12.279520   -9.605666
 C  -25.717161   10.591842   -7.890117
 C  -16.765541    6.165094  -23.992662
 C  -15.376047    7.433070  -22.487228
 C  -26.450211   13.109175   -8.829658
 C  -26.517634   11.421398   -7.113753
 C  -15.680533    7.012019  -23.778994
 C  -26.886887   12.680342   -7.578301
 H  -21.200105    3.951300  -15.111170
 H  -18.813089    6.419782  -16.503437
 H  -24.099842    8.488687   -8.777662
 H  -23.056142    6.686106   -9.425347
 H  -24.196174   10.595737  -10.997830
 H  -21.494814    7.215030  -12.723405
 H  -21.371054    3.013041  -17.183458
 H  -21.231725    2.703254  -10.732590
 H  -22.442791    4.489506   -9.549282
 H  -18.989558    3.105985  -13.498104
 H  -19.715429    2.001152  -12.318282
 H  -20.510638    2.280894  -13.857579
 H  -18.393126    5.090289  -23.104074
 H  -15.928731    7.334044  -20.401637
 H  -25.311728   12.617082  -10.583177
 H  -25.446069    9.610716   -7.508884
 H  -17.012468    5.836112  -24.998870
 H  -14.533677    8.097608  -22.314115
 H  -26.734815   14.091165   -9.200172
 H  -26.854982   11.079071   -6.138554
 H  -15.075800    7.346471  -24.617461
 H  -27.513527   13.324703   -6.967588
 H  -19.000678    3.969455  -21.260606
