49 
3pjc_ligand_ani.xyz
 C    6.833308   -5.027259    8.544208
 C    7.849581   -4.452365    9.336453
 C    6.531985   -4.770364   11.193301
 C    5.655084   -5.373664    9.197543
 N    6.408433   -4.637135   12.557652
 C    7.634504   -4.622231   13.346476
 C    5.637566   -6.771402   13.531198
 C   10.304557   -3.851689    9.499057
 F    6.337487   -4.479225    6.292909
 C    6.937550   -5.373075    7.081117
 F    8.209409   -5.515356    6.677364
 F    6.329483   -6.559292    6.855339
 N    7.705011   -4.411715   10.671792
 N    5.473584   -5.225257   10.502444
 C    8.103185   -6.051594   13.641101
 C    6.982242   -6.887310   14.236120
 C    5.301169   -5.304859   13.229230
 O    7.151071   -7.612748   15.192073
 C    9.081630   -3.893791    8.831277
 C   11.143478   -2.821889    8.823153
 N   10.397800   -2.400948    7.726117
 C    9.131684   -2.984012    7.663037
 O    8.291525   -2.733090    6.832555
 O   12.240876   -2.396188    9.109948
 C   10.802737   -4.646500   10.578613
 C   11.677749   -4.222663   11.552683
 N   11.924196   -5.230547   12.439378
 C   11.252724   -6.362464   12.045817
 C   10.535852   -6.054014   10.877420
 C    9.792235   -7.076534   10.257039
 C    9.766438   -8.334683   10.830167
 C   10.469806   -8.609746   12.019065
 C   11.218906   -7.628029   12.641971
 H    4.827763   -5.799137    8.638640
 H    8.393952   -4.058321   12.803149
 H    7.410919   -4.092397   14.281221
 H    4.872848   -7.244400   14.154649
 H    5.691294   -7.325356   12.583391
 H    8.404977   -6.528074   12.699060
 H    8.958842   -6.067686   14.321756
 H    5.119705   -4.761158   14.164845
 H    4.410530   -5.224754   12.605442
 H   10.701079   -1.679718    7.087785
 H   12.141422   -3.249761   11.650813
 H    9.226550   -6.885457    9.347774
 H    9.186408   -9.125031   10.361272
 H   10.416744   -9.604698   12.453378
 H   11.752332   -7.824328   13.567920
 H   12.533810   -5.166085   13.237302
