67 
3pka_ligand_ani.xyz
 N    0.491102   -3.065664   -0.539135
 O    2.574957    0.690824   -1.710838
 O    4.902236   -1.761193    0.822254
 O    4.524996    0.855057    0.318326
 O    1.910265   -2.063553   -1.993784
 O    1.987044   -2.286268    1.486749
 O   -1.986370   -1.816147   -0.035596
 C    0.832624    4.302622   -0.125637
 C    1.369402    2.962815   -0.575444
 C    1.803642    1.964602    0.188329
 C    2.208052    0.613654   -0.341884
 C    3.374197    0.032339    0.459126
 C    3.773783   -1.391589    0.053316
 C    2.697221   -2.453738    0.275509
 C    0.596182    4.359119    1.387285
 C   -0.489175    4.569963   -0.861921
 C    1.857016    5.378351   -0.520474
 C    1.668419   -2.493415   -0.865270
 C   -0.607072   -3.119061   -1.485109
 C   -1.533896   -1.916624   -1.384067
 C    2.646040   -2.853436    2.605462
 C   -3.071071   -0.977771    0.116722
 C   -2.867318    0.392280    0.307530
 C   -3.989720    1.198627    0.498505
 C   -5.280700    0.676099    0.502189
 C   -5.441078   -0.697281    0.307837
 C   -4.352228   -1.541079    0.103817
 C   -1.479314    0.974400    0.284105
 C   -6.475413    1.572261    0.709437
 C   -4.532148   -3.018471   -0.145009
 H    0.261322   -3.138128    0.441270
 H    2.391480   -0.184479   -2.095093
 H    5.442579   -0.955693    0.865645
 H    4.558043    1.078755   -0.626097
 H    1.424964    2.848943   -1.660386
 H    1.846544    2.040334    1.273103
 H    1.346225   -0.063699   -0.217945
 H    3.113596    0.027312    1.520432
 H    4.038446   -1.398028   -1.014243
 H    3.209837   -3.428805    0.289921
 H    1.525404    4.186096    1.941319
 H    0.214070    5.344983    1.675777
 H   -0.135122    3.607754    1.708011
 H   -1.241531    3.808088   -0.624996
 H   -0.899902    5.547936   -0.586278
 H   -0.332955    4.560195   -1.946638
 H    2.812117    5.216195   -0.008244
 H    1.491934    6.378548   -0.258902
 H    2.043766    5.354794   -1.600272
 H   -0.184991   -3.176198   -2.491788
 H   -1.180618   -4.034293   -1.295291
 H   -1.008252   -0.995680   -1.670977
 H   -2.388125   -2.038512   -2.064285
 H    3.623582   -2.388514    2.780249
 H    1.997693   -2.689624    3.469601
 H    2.785814   -3.934948    2.465738
 H   -3.854428    2.268126    0.650231
 H   -6.443563   -1.125752    0.316553
 H   -1.157149    1.203846   -0.740868
 H   -1.432450    1.905515    0.861286
 H   -0.754824    0.267870    0.705293
 H   -7.066633    1.255881    1.577143
 H   -7.141450    1.558749   -0.161973
 H   -6.168698    2.609193    0.876358
 H   -5.521565   -3.354476    0.178951
 H   -3.769172   -3.593065    0.388772
 H   -4.433403   -3.267325   -1.210420
