67 
3pka_ligand_xtb.xyz
 N    0.440466   -2.987469   -0.550823
 O    2.450318    0.467643   -1.755207
 O    4.829085   -1.799964    0.979367
 O    4.404700    0.823190    0.181762
 O    2.064855   -2.275134   -1.947919
 O    1.801982   -2.230763    1.537083
 O   -2.197120   -1.962669   -0.099427
 C    1.090320    4.231117   -0.329336
 C    1.531700    2.845772   -0.716522
 C    1.643140    1.792619    0.072995
 C    2.090984    0.434578   -0.395085
 C    3.303568   -0.015259    0.448948
 C    3.725406   -1.471474    0.164560
 C    2.598087   -2.491210    0.401154
 C    0.752578    4.352273    1.156346
 C   -0.149109    4.585022   -1.161928
 C    2.229027    5.200111   -0.672174
 C    1.675440   -2.552511   -0.823559
 C   -0.612559   -3.007271   -1.537079
 C   -1.564237   -1.824919   -1.357751
 C    2.409858   -2.588621    2.762467
 C   -3.178819   -1.002857    0.136271
 C   -2.838684    0.195770    0.764958
 C   -3.835689    1.130570    0.998367
 C   -5.152432    0.899769    0.626462
 C   -5.467051   -0.306642    0.020999
 C   -4.497980   -1.266894   -0.231815
 C   -1.425329    0.476207    1.177930
 C   -6.209253    1.926271    0.903277
 C   -4.867084   -2.563851   -0.888639
 H    0.168316   -3.050861    0.420448
 H    2.416141   -0.439273   -2.105430
 H    5.407468   -1.023892    0.978122
 H    4.322540    1.084704   -0.748314
 H    1.772838    2.726861   -1.764445
 H    1.425586    1.830993    1.129169
 H    1.270480   -0.277598   -0.217435
 H    3.074789    0.082708    1.515454
 H    4.022314   -1.557466   -0.893925
 H    3.082202   -3.477764    0.497233
 H    1.618791    4.112160    1.767679
 H    0.445811    5.371161    1.383654
 H   -0.062492    3.683416    1.422221
 H   -0.965063    3.900795   -0.937595
 H   -0.477178    5.598499   -0.940595
 H    0.070999    4.518687   -2.224925
 H    3.121483    4.947003   -0.104297
 H    1.943225    6.222241   -0.432718
 H    2.470258    5.148727   -1.731418
 H   -0.143031   -2.957520   -2.521368
 H   -1.171681   -3.940734   -1.435705
 H   -1.003366   -0.880808   -1.405373
 H   -2.307704   -1.825538   -2.166308
 H    3.370144   -2.087387    2.895260
 H    1.716588   -2.281390    3.543129
 H    2.567749   -3.671899    2.812500
 H   -3.576331    2.061332    1.483153
 H   -6.489684   -0.510723   -0.263788
 H   -0.917379    1.067262    0.414232
 H   -1.408337    1.042437    2.106697
 H   -0.873717   -0.450249    1.319616
 H   -6.475236    1.913033    1.960376
 H   -7.106868    1.727149    0.323530
 H   -5.847967    2.924123    0.663004
 H   -5.845262   -2.896241   -0.548710
 H   -4.130261   -3.328437   -0.655787
 H   -4.911287   -2.443074   -1.971928
