67 
3pka_ligand_dft.xyz
 N    0.590050   -2.825348   -0.815088
 O    2.744232    0.722105   -1.628478
 O    4.720426   -1.632364    1.299324
 O    4.294017    0.982585    0.714306
 O    2.356983   -2.064117   -2.025953
 O    1.767938   -2.347245    1.427350
 O   -2.049384   -2.027804   -0.389925
 C    0.667791    4.262940   -0.421266
 C    1.302118    2.933393   -0.764196
 C    1.599014    1.948446    0.077841
 C    2.152826    0.615222   -0.348365
 C    3.185361    0.097881    0.659558
 C    3.729788   -1.302227    0.344196
 C    2.676776   -2.411462    0.348789
 C    0.418707    4.427785    1.081061
 C   -0.674533    4.352166   -1.171510
 C    1.598900    5.385421   -0.913210
 C    1.859064   -2.405205   -0.951353
 C   -0.377929   -2.749606   -1.888331
 C   -1.410780   -1.674077   -1.607596
 C    2.268121   -2.828842    2.662996
 C   -3.022889   -1.138062    0.025750
 C   -2.666922   -0.017505    0.777713
 C   -3.686792    0.839775    1.195673
 C   -5.023548    0.599264    0.890541
 C   -5.338521   -0.540262    0.147432
 C   -4.355419   -1.421336   -0.293656
 C   -1.229348    0.276273    1.115129
 C   -6.111059    1.523708    1.378897
 C   -4.696787   -2.656667   -1.085777
 H    0.253954   -2.955618    0.130193
 H    2.731862   -0.170331   -2.019374
 H    5.238771   -0.818744    1.399972
 H    4.434858    1.263298   -0.204403
 H    1.518697    2.780135   -1.821373
 H    1.406885    2.045329    1.144453
 H    1.313547   -0.097688   -0.366736
 H    2.742916    0.079866    1.661036
 H    4.172624   -1.287834   -0.660994
 H    3.223227   -3.368831    0.374465
 H    1.354105    4.368012    1.648326
 H   -0.036881    5.403564    1.283114
 H   -0.262689    3.656457    1.458919
 H   -1.366365    3.573879   -0.829335
 H   -1.146862    5.327777   -1.004898
 H   -0.532255    4.226523   -2.251037
 H    2.561706    5.348821   -0.392384
 H    1.147364    6.368810   -0.735633
 H    1.792351    5.291571   -1.988002
 H    0.164059   -2.528510   -2.809921
 H   -0.878341   -3.717440   -1.996848
 H   -0.924301   -0.693094   -1.515249
 H   -2.142008   -1.621442   -2.425885
 H    3.080226   -2.200242    3.036381
 H    1.428514   -2.816642    3.360658
 H    2.639803   -3.857410    2.556734
 H   -3.422029    1.718909    1.780633
 H   -6.379417   -0.748650   -0.092743
 H   -0.780851    0.945004    0.370613
 H   -1.152563    0.780071    2.084009
 H   -0.624698   -0.634542    1.153662
 H   -6.585587    1.128617    2.285082
 H   -6.896216    1.647520    0.625931
 H   -5.713548    2.514395    1.618839
 H   -5.779810   -2.794734   -1.146422
 H   -4.257114   -3.549205   -0.630470
 H   -4.311597   -2.597589   -2.110565
