48 
3pkb_ligand_dft.xyz
 N   -2.572564    1.029697    1.122587
 O    0.261893    0.676950   -1.086116
 N   -1.981876    3.179269   -1.223785
 O   -1.878423   -2.944311   -1.310064
 O    0.662768   -2.054623   -1.583509
 O   -3.457646    0.715923   -0.943279
 O   -0.344059    3.034040    0.353239
 O   -2.153599   -1.508983    1.484020
 C    4.346959    0.136635    0.235377
 C    2.887937    0.217004   -0.154413
 C    1.850699   -0.333130    0.468228
 C    0.422246   -0.222003   -0.005204
 C   -0.100590   -1.578986   -0.483732
 C   -1.577913   -1.616084   -0.916885
 C   -2.591802   -1.220211    0.172390
 C    4.566936   -0.638560    1.537921
 C    4.886555    1.569262    0.395300
 C    5.101802   -0.564978   -0.909040
 C   -2.924623    0.265187    0.064578
 C   -2.591244    2.475717    1.026588
 C   -1.522168    2.935358    0.026276
 C   -2.364568   -2.853636    1.874024
 H   -2.117542    0.569509    1.897315
 H    0.390482    1.572645   -0.725932
 H   -2.820636    2.678353   -1.498541
 H   -1.276612    3.294433   -1.939278
 H   -1.122914   -3.214446   -1.854877
 H    0.823501   -1.283903   -2.147966
 H    2.690434    0.787514   -1.063264
 H    1.985970   -0.919435    1.375863
 H   -0.195847    0.093020    0.845024
 H    0.037920   -2.308826    0.319721
 H   -1.712521   -0.929615   -1.763548
 H   -3.522505   -1.759179   -0.052997
 H    4.044375   -0.164864    2.376640
 H    5.634719   -0.670586    1.781818
 H    4.212564   -1.671761    1.450919
 H    4.744206    2.147512   -0.525017
 H    5.959379    1.554954    0.621792
 H    4.369861    2.093250    1.206717
 H    4.969854   -0.028489   -1.855942
 H    4.733094   -1.587034   -1.047018
 H    6.176267   -0.610004   -0.694375
 H   -2.347321    2.894726    2.003075
 H   -3.588452    2.812238    0.729012
 H   -3.438959   -3.079129    1.922097
 H   -1.927564   -2.964599    2.868307
 H   -1.889494   -3.550488    1.176071
