48 
3pkb_ligand_ani.xyz
 N   -2.703559    1.165884    0.738991
 O    0.320374    0.144308   -1.361325
 N   -1.532465    4.552993   -0.138731
 O   -1.987803   -3.275065   -0.886240
 O    0.637953   -2.645465   -1.250892
 O   -2.784823    0.606184   -1.452121
 O   -0.459576    2.584462   -0.298800
 O   -2.282708   -1.290471    1.500184
 C    4.311672    0.209113    0.290381
 C    2.864218    0.166146   -0.144872
 C    1.881179   -0.568474    0.363564
 C    0.450977   -0.520000   -0.116713
 C   -0.120062   -1.919960   -0.295059
 C   -1.573256   -1.926519   -0.776846
 C   -2.577669   -1.199840    0.121996
 C    4.574168   -0.632345    1.542667
 C    4.679998    1.671289    0.575755
 C    5.167370   -0.318390   -0.870066
 C   -2.688286    0.275118   -0.278399
 C   -2.792132    2.572819    0.454218
 C   -1.477251    3.206588   -0.029635
 C   -2.743345   -2.498382    2.081152
 H   -2.546074    0.831101    1.675928
 H   -0.002322    1.042964   -1.166400
 H   -2.362005    5.080327    0.074257
 H   -0.705856    5.040880   -0.446379
 H   -1.239706   -3.726993   -1.307345
 H    0.760460   -2.032476   -1.993989
 H    2.641193    0.810441   -0.999852
 H    2.036531   -1.255624    1.194291
 H   -0.136484   -0.004446    0.655365
 H   -0.056755   -2.469121    0.648149
 H   -1.609399   -1.429882   -1.756538
 H   -3.559484   -1.658474   -0.076243
 H    3.975818   -0.278493    2.390510
 H    5.631268   -0.568633    1.824646
 H    4.335798   -1.688110    1.370032
 H    4.497369    2.294279   -0.307206
 H    5.739334    1.763107    0.842668
 H    4.080733    2.070897    1.401725
 H    4.993292    0.274090   -1.775615
 H    4.919356   -1.361868   -1.096092
 H    6.234903   -0.263153   -0.626317
 H   -3.135369    3.096468    1.352481
 H   -3.538800    2.725221   -0.334467
 H   -3.839664   -2.557420    2.027625
 H   -2.438431   -2.484998    3.129984
 H   -2.316353   -3.376842    1.581655
