58 
3pke_ligand_ani.xyz
 N    1.790881    0.046985   -0.176576
 O   -2.385658    0.358390   -1.710169
 O   -1.018908    3.925442    0.001042
 O   -3.289702    2.548436   -0.152049
 O    0.424840    0.548072   -1.907235
 O    0.575808    1.775580    1.366146
 C   -5.343142   -2.011389    0.319020
 C   -4.225199   -1.183026   -0.274028
 C   -3.452794   -0.296492    0.345284
 C   -2.258390    0.366074   -0.297203
 C   -2.116843    1.813131    0.181523
 C   -0.926926    2.576838   -0.415642
 C    0.456582    2.071918   -0.009327
 C   -5.491919   -1.802047    1.828699
 C   -5.035852   -3.490192    0.041335
 C   -6.651839   -1.620281   -0.383078
 C    0.874438    0.816424   -0.791476
 C    2.379939   -1.113854   -0.836657
 C    3.616931   -0.720765   -1.687645
 C    4.767952   -0.848561   -0.712821
 C    4.389348   -1.631365    0.380704
 C    2.950889   -2.082186    0.221778
 C    6.050390   -0.325490   -0.798555
 C    6.954677   -0.590741    0.231218
 C    6.577193   -1.371471    1.321052
 C    5.288576   -1.902110    1.402353
 C    0.821805    2.913164    2.173832
 H    2.074747    0.279558    0.763780
 H   -1.480358    0.363648   -2.067151
 H   -1.970186    4.119668   -0.006430
 H   -3.492492    2.294195   -1.067188
 H   -4.069663   -1.349163   -1.343124
 H   -3.608984   -0.018545    1.386288
 H   -1.358653   -0.190640    0.007613
 H   -2.031093    1.826982    1.270805
 H   -0.991869    2.527795   -1.512580
 H    1.168240    2.873218   -0.269284
 H   -4.572445   -2.077146    2.358451
 H   -5.725128   -0.757279    2.063989
 H   -6.305845   -2.424520    2.217086
 H   -4.110239   -3.797811    0.541101
 H   -5.849402   -4.131927    0.399058
 H   -4.914047   -3.664065   -1.033985
 H   -7.484132   -2.239760   -0.028871
 H   -6.564147   -1.756249   -1.467200
 H   -6.901388   -0.570046   -0.192570
 H    1.599730   -1.563222   -1.456079
 H    3.518770    0.277710   -2.125282
 H    3.734184   -1.434128   -2.515347
 H    2.915008   -3.114822   -0.151619
 H    2.378119   -2.058944    1.155959
 H    6.352612    0.279943   -1.651691
 H    7.962634   -0.185649    0.179400
 H    7.292587   -1.572209    2.115191
 H    5.002905   -2.517563    2.254141
 H   -0.024997    3.608693    2.164406
 H    1.722726    3.443883    1.833848
 H    0.990708    2.546664    3.189232
