77 
3pma_ligand_ani.xyz
 C    0.005987   -0.076086   -1.671868
 C    0.166962   -1.550750   -1.319775
 C    1.269014   -1.690210   -0.290879
 C    2.535125   -1.200507   -0.958993
 C    2.387232    0.267948   -1.370180
 C    3.562469    0.677069   -2.270845
 C   -0.843458    2.809658   -1.310872
 C   -1.359286    1.628749   -0.503488
 C   -2.799493    1.249069   -0.880948
 C   -3.376071    0.658095    0.400668
 C   -2.420544    1.141811    1.504439
 C   -1.710060   -0.023770    2.185191
 O   -0.444374    0.556934   -0.491607
 O   -1.079643   -1.985755   -0.754389
 O   -0.920822   -4.008300   -2.182357
 O   -3.113500   -2.884385   -1.830264
 O   -2.119612   -4.047913    0.008617
 O    1.451562   -3.078996    0.011378
 O    0.039209   -4.416752    1.529542
 O    1.453534   -2.603551    2.455016
 O    2.441756   -4.675632    1.513657
 O    3.613308   -1.271767   -0.011761
 O    5.064110   -2.430218   -1.660294
 O    4.669994   -3.435969    0.585948
 O    5.970036   -1.410100    0.425704
 O    1.200498    0.474413   -2.148218
 O    3.988937    2.043172   -2.083098
 O    3.951429    2.628296    0.312555
 O    5.691875    1.177564   -0.486126
 O    5.663097    3.572961   -1.219611
 O   -1.514797    2.015686    0.840981
 O   -1.162751    0.371838    3.461566
 O    1.172908   -0.048463    2.686015
 O    0.674534    0.746557    4.978997
 O    0.432187    2.230900    2.981713
 O   -4.681576    1.226192    0.593036
 O   -5.055995   -0.032578    2.715326
 O   -6.907851    1.208755    1.549720
 O   -5.948828   -0.901732    0.633176
 O    0.476123    3.133274   -0.848731
 O    0.124480    5.607535   -0.807520
 O    2.110551    4.521776    0.242840
 O   -0.145547    4.330744    1.245866
 O   -2.803015    0.330347   -1.965366
 O   -5.187249   -0.257382   -1.855234
 O   -4.386418    1.267258   -3.653867
 O   -3.721895   -1.085339   -3.665450
 S   -1.821169   -3.284683   -1.318681
 S    1.267281   -3.659642    1.482522
 S    4.845262   -2.263301   -0.244094
 S    4.965745    2.374402   -0.859846
 S    0.692995    4.517086   -0.068604
 S   -4.164852    0.134034   -2.804705
 S   -5.718366    0.404793    1.512530
 S    0.328755    0.925449    3.599672
 H   -0.724413    0.041625   -2.473052
 H    0.398137   -2.143125   -2.209221
 H    1.054421   -1.113616    0.618853
 H    2.760461   -1.820483   -1.832891
 H    2.349449    0.885419   -0.458176
 H    4.427070    0.015230   -2.147129
 H    3.234636    0.632358   -3.308304
 H   -0.741078    2.543189   -2.365757
 H   -1.520551    3.662558   -1.205702
 H   -3.338892    2.165409   -1.133749
 H   -3.431280   -0.436193    0.335775
 H   -2.962235    1.722681    2.256743
 H   -0.948467   -0.451549    1.529022
 H   -2.440428   -0.796411    2.446721
 H   -1.273952   -4.266422    0.470327
 H    3.278182   -4.201344    1.289070
 H    5.978688   -0.516554    0.010992
 H    3.337037    3.372530    0.107760
 H    1.213730   -0.960761    3.049080
 H   -6.068905   -0.641112   -0.307067
 H    0.043315    3.459458    1.674880
 H   -3.432633   -1.824526   -3.065649
