61 
3pp7_ligand_xtb.xyz
 C    8.069268    2.878014    1.737960
 C    7.671091    1.633041    1.290350
 C    7.118745    3.812350    2.115487
 C    5.772570    3.493146    2.049771
 C    5.369492    2.250808    1.592527
 C    6.318983    1.312271    1.198559
 C    5.977892   -0.057411    0.712177
 O    6.717286   -1.005053    0.883042
 N    4.793393   -0.137237    0.039204
 C    4.192986   -1.311472   -0.455132
 C    2.876817   -1.549781   -0.082338
 C    4.852868   -2.177453   -1.335403
 C    6.232749   -1.894780   -1.825649
 C    4.165108   -3.307199   -1.769117
 C    2.858039   -3.548784   -1.401324
 C    2.185465   -2.648843   -0.575422
 C    0.762063   -2.911810   -0.268894
 O    0.261346   -4.012279   -0.326942
 N    0.044529   -1.763795    0.037642
 C   -1.307078   -1.696944    0.294184
 C   -1.934153   -2.774393    0.905713
 C   -3.281609   -2.733356    1.247064
 C   -4.013164   -1.609464    0.986730
 S   -5.725283   -1.597730    1.472062
 O   -6.016489   -2.783498    2.217823
 O   -6.554261   -1.252493    0.368122
 O   -5.723553   -0.373507    2.528381
 C   -2.065299   -0.525401   -0.038786
 C   -3.450980   -0.494571    0.345110
 C   -4.244621    0.644141    0.081554
 C   -1.587037    0.603300   -0.750327
 S    0.052906    0.841569   -1.431846
 O    0.062157    1.981860   -2.287357
 O    0.268123   -0.454092   -2.358011
 O    1.038929    0.792672   -0.389515
 C   -2.386248    1.681138   -1.020488
 C   -3.706875    1.703107   -0.579648
 S   -4.650433    3.179042   -0.889121
 O   -6.007683    2.993799   -0.515310
 O   -4.333966    3.701667   -2.181885
 O   -3.931369    4.150144    0.184610
 H    9.119930    3.119245    1.797282
 H    8.396437    0.886586    1.003552
 H    7.425647    4.785141    2.469669
 H    5.031210    4.214804    2.359447
 H    4.313437    2.018202    1.577904
 H    4.163078    0.649635    0.109705
 H    2.415768   -0.862624    0.609994
 H    6.315602   -0.857983   -2.150273
 H    6.948920   -2.037529   -1.016176
 H    6.492638   -2.552196   -2.650770
 H    4.667484   -3.998449   -2.429733
 H    2.329998   -4.418596   -1.760005
 H    0.538140   -0.887908   -0.079673
 H   -1.355126   -3.657437    1.117784
 H   -3.761467   -3.566984    1.734085
 H   -5.996648   -0.683298    3.393944
 H   -5.278902    0.663734    0.383121
 H    0.174369   -0.233216   -3.287102
 H   -1.997590    2.506704   -1.593438
 H   -3.570025    4.921592   -0.256377
