45 
3ppk_ligand_ani.xyz
 C    1.256869    4.124152   -0.566398
 N    0.145742    4.829308   -0.306724
 C   -0.988573    4.179065   -0.093357
 C   -1.017191    2.787361   -0.132051
 C    0.134497    2.033672   -0.359895
 C    1.317012    2.742423   -0.613727
 O   -2.104955    1.997267    0.024499
 C   -1.648956    0.705650   -0.102845
 C   -0.292480    0.654265   -0.286186
 C   -2.610923   -0.401593   -0.072755
 N    0.389868   -0.536923   -0.414033
 C    1.756755   -0.788987   -0.282078
 C    2.277534   -1.884350   -1.021685
 C    3.607865   -2.201712   -0.964847
 C    4.494303   -1.451656   -0.145238
 C    3.979132   -0.376240    0.619629
 C    2.590493   -0.070350    0.543271
 C    5.887208   -1.744657   -0.061053
 C    6.715517   -0.996307    0.741082
 C    6.186666    0.074199    1.496408
 C    4.853678    0.380296    1.442168
 O   -2.244184   -1.567928   -0.220544
 O    6.333141   -2.790684   -0.811862
 N   -3.903564   -0.007488    0.120503
 C   -5.046497   -0.795678    0.188653
 N   -6.174788   -0.098044    0.344389
 C   -7.294316   -0.812418    0.415952
 N   -7.418095   -2.131842    0.353234
 C   -6.268949   -2.800582    0.198590
 C   -5.031708   -2.189971    0.106770
 H    2.157849    4.707516   -0.744751
 H   -1.884813    4.760849    0.107212
 H    2.247979    2.241473   -0.855314
 H   -0.242764   -1.323764   -0.520761
 H    1.598722   -2.461295   -1.646390
 H    4.004728   -3.030231   -1.539915
 H    2.203152    0.753924    1.133576
 H    7.779526   -1.221900    0.799507
 H    6.857932    0.654211    2.124236
 H    4.442865    1.203855    2.020970
 H    7.284036   -2.896723   -0.675041
 H   -4.069782    0.987595    0.209435
 H   -8.216393   -0.245949    0.541196
 H   -6.350247   -3.884361    0.145647
 H   -4.106563   -2.739024   -0.020388
