46 
3ppm_ligand_dft.xyz
 N    6.954968   -0.126997    0.732604
 C    5.875438    0.422480    0.168584
 C    5.889265    1.640514   -0.512742
 C    7.097429    2.320634   -0.609326
 C    8.228505    1.762371   -0.028149
 C    8.100995    0.539156    0.629172
 C    4.623430   -0.336374    0.299483
 N    4.406002   -1.472284    0.892542
 N    3.064296   -1.737294    0.722535
 C    2.573028   -0.749640    0.044331
 O    3.506246    0.176676   -0.258829
 C    1.165729   -0.548555   -0.406296
 C    0.194115   -1.636051   -0.017142
 O    0.876362    0.441459   -1.040779
 C   -1.224566   -1.371263   -0.507705
 C   -2.190468   -2.480885   -0.088848
 C   -3.607271   -2.312328   -0.645525
 C   -4.330635   -1.059533   -0.149942
 C   -5.782220   -0.981388   -0.643493
 C   -6.484288    0.263537   -0.157403
 C   -6.389548    1.460315   -0.871531
 C   -6.992452    2.623070   -0.401915
 C   -7.702700    2.606485    0.795551
 C   -7.804232    1.420433    1.517154
 C   -7.198698    0.260615    1.042467
 H    4.981010    2.038466   -0.950927
 H    7.150482    3.271034   -1.130849
 H    9.191906    2.258269   -0.079067
 H    8.964251    0.071228    1.096253
 H    0.226376   -1.742397    1.075819
 H    0.581829   -2.589283   -0.401570
 H   -1.219884   -1.275343   -1.600440
 H   -1.559537   -0.403389   -0.119914
 H   -2.235384   -2.530056    1.008374
 H   -1.791653   -3.448134   -0.422840
 H   -4.200054   -3.195901   -0.373566
 H   -3.566067   -2.296704   -1.743955
 H   -3.800806   -0.156761   -0.478363
 H   -4.323717   -1.038402    0.948626
 H   -6.326677   -1.872196   -0.305206
 H   -5.789155   -1.007977   -1.740772
 H   -5.837206    1.478689   -1.808602
 H   -6.910200    3.543073   -0.973593
 H   -8.176517    3.512075    1.162698
 H   -8.358964    1.396840    2.450850
 H   -7.282900   -0.663754    1.609795
