20 
3ppp_ligand_ani.xyz
 N   -0.059099   36.116519   32.990321
 C    0.412878   36.578878   31.641053
 C    0.617855   35.484008   30.609169
 O    0.445768   34.297588   30.752210
 O    1.036407   36.031564   29.457928
 C   -0.202458   37.309499   33.859202
 C   -1.393006   35.447328   32.898260
 C    0.933103   35.196572   33.626272
 H   -0.317666   37.290827   31.248395
 H    1.358909   37.110284   31.773009
 H    1.156320   35.303103   28.824387
 H   -0.545769   36.989730   34.845664
 H    0.765592   37.809570   33.950364
 H   -0.933425   37.992843   33.418481
 H   -1.729413   35.208916   33.911689
 H   -2.094104   36.143610   32.431465
 H   -1.298317   34.543840   32.303859
 H    0.585098   34.959500   34.636092
 H    1.016903   34.294259   33.028470
 H    1.894425   35.713561   33.679711
