24 
3ppr_ligand_ani.xyz
 O   -1.689379   -1.681510   -0.432337
 C   -1.797335   -0.531036   -0.062071
 O   -2.841220    0.246221   -0.357189
 C   -0.748342    0.098974    0.844431
 C   -0.464051    1.577798    0.601632
 C    0.500040    1.777779   -0.556360
 N    1.730536    1.007752   -0.277270
 C    1.486312   -0.460791   -0.327417
 C    2.769009   -1.234317   -0.098346
 N    0.439126   -0.820082    0.695991
 H   -3.440491   -0.287987   -0.906234
 H   -1.124733   -0.029259    1.859565
 H   -0.021975    2.000077    1.510953
 H   -1.404878    2.097365    0.420744
 H    0.749424    2.827499   -0.692769
 H    0.047054    1.406781   -1.479428
 H    2.060352    1.250332    0.688210
 H    2.479377    1.231710   -0.953868
 H    1.071414   -0.690056   -1.305361
 H    3.542486   -0.904778   -0.799796
 H    2.616632   -2.306091   -0.258721
 H    3.146245   -1.092018    0.923631
 H    0.879365   -1.006828    1.615244
 H   -0.016929   -1.698570    0.351769
