35 
3prf_ligand_dft.xyz
 C   -4.038054   -0.409922   -0.419800
 C   -3.130064    0.380422   -1.108681
 C   -1.775373    0.352791   -0.797549
 C   -1.323473   -0.460945    0.243519
 C   -2.239349   -1.255515    0.939130
 C   -3.592048   -1.246717    0.610450
 N    0.026957   -0.545969    0.616286
 C    0.290672    4.113346    0.458067
 N    1.532042    4.537006    0.145937
 C    2.475184    3.633212   -0.081182
 C    2.178785    2.275733   -0.003570
 C    0.893225    1.823849    0.300653
 C   -0.093200    2.785990    0.551401
 O    3.042418    1.253941   -0.174161
 C    2.310995    0.107854    0.008606
 C    0.993531    0.380694    0.295014
 C    2.999797   -1.164598   -0.097222
 N    4.276784   -1.160870   -0.501386
 C    4.866297   -2.348481   -0.593915
 C    4.214129   -3.542045   -0.298732
 C    2.893868   -3.430270    0.113555
 N    2.277734   -2.255234    0.224842
 O   -4.503836   -2.004477    1.260279
Cl   -5.729224   -0.371996   -0.831724
 H   -3.488106    1.011583   -1.914957
 H   -1.077069    0.947138   -1.374980
 H   -1.887198   -1.872850    1.762651
 H    0.409281   -1.481898    0.721904
 H   -0.435448    4.900303    0.643707
 H    3.474989    3.982997   -0.324808
 H   -1.111290    2.514647    0.805087
 H    5.904375   -2.343053   -0.919635
 H    4.708479   -4.502295   -0.382218
 H    2.305224   -4.308128    0.369592
 H   -4.059230   -2.517171    1.945809
