35 
3prf_ligand_ani.xyz
 C   -4.111794   -0.450502   -0.332719
 C   -3.299245    0.379251   -1.091073
 C   -1.915949    0.337283   -0.961531
 C   -1.332520   -0.538542   -0.044382
 C   -2.149720   -1.393107    0.696077
 C   -3.534589   -1.351480    0.570145
 N    0.044363   -0.636276    0.139114
 C    0.142652    4.070543    0.424057
 N    1.391535    4.541292    0.276434
 C    2.381588    3.680934    0.100354
 C    2.123159    2.311787    0.064888
 C    0.832009    1.805638    0.191486
 C   -0.200992    2.730595    0.396078
 O    3.034524    1.325708   -0.077368
 C    2.331801    0.156756   -0.033968
 C    0.983007    0.372123    0.085375
 C    3.078039   -1.096015   -0.091179
 N    4.395560   -1.017520   -0.273959
 C    5.058983   -2.169917   -0.320916
 C    4.431936   -3.401751   -0.184230
 C    3.059220   -3.372579    0.005257
 N    2.371485   -2.233344    0.052627
 O   -4.354073   -2.158557    1.286929
Cl   -5.834765   -0.389151   -0.501426
 H   -3.758389    1.064861   -1.795818
 H   -1.296692    0.995166   -1.563343
 H   -1.686484   -2.094508    1.389852
 H    0.476254   -1.550870    0.247537
 H   -0.630765    4.821227    0.571541
 H    3.393490    4.061610   -0.010935
 H   -1.231589    2.419108    0.532062
 H    6.132904   -2.092230   -0.472360
 H    4.984023   -4.334084   -0.223438
 H    2.489398   -4.291341    0.121212
 H   -3.810865   -2.725735    1.849630
