35 
3prf_ligand_xtb.xyz
 C   -4.055392   -0.346656   -0.342464
 C   -3.207544    0.537789   -0.983900
 C   -1.843854    0.489046   -0.766263
 C   -1.310963   -0.448450    0.116817
 C   -2.168975   -1.356159    0.739973
 C   -3.536808   -1.315468    0.522861
 N    0.044832   -0.544665    0.380543
 C    0.339934    4.112255    0.456973
 N    1.583576    4.524902    0.213320
 C    2.531085    3.641829   -0.007028
 C    2.246812    2.279701    0.001397
 C    0.922069    1.833259    0.218561
 C   -0.061264    2.792082    0.473704
 O    3.094948    1.250121   -0.148437
 C    2.346379    0.111977   -0.033165
 C    1.001741    0.400740    0.171028
 C    2.971077   -1.175374   -0.101815
 N    4.275415   -1.238583   -0.378871
 C    4.823411   -2.432905   -0.437889
 C    4.097418   -3.600497   -0.225161
 C    2.750194   -3.431973    0.058738
 N    2.182721   -2.242280    0.124430
 O   -4.390902   -2.179478    1.120478
Cl   -5.758065   -0.282695   -0.613415
 H   -3.621437    1.262569   -1.666338
 H   -1.192257    1.159588   -1.301537
 H   -1.756809   -2.101425    1.407133
 H    0.444679   -1.473111    0.515326
 H   -0.369051    4.905419    0.649778
 H    3.528012    4.017601   -0.185718
 H   -1.081858    2.517873    0.686373
 H    5.882245   -2.454365   -0.663472
 H    4.552068   -4.575301   -0.275261
 H    2.095703   -4.275425    0.243484
 H   -3.904271   -2.785560    1.691808
