98 
3prs_ligand_ani.xyz
 C    5.513271   -0.445480    1.908220
 C    5.730693    0.325339    0.809433
 S    7.015592   -0.361181   -0.109838
 C    7.149696   -1.622855    1.070017
 N    6.315454   -1.549547    2.059006
 C    4.972452    1.539343    0.378089
 O    3.875916    1.207063   -0.497757
 C    2.790362    0.713984    0.126182
 O    2.685613    0.678762    1.346739
 N    1.870997    0.284304   -0.774926
 C    0.782104   -0.627745   -0.408402
 C   -0.217862   -0.033388    0.606042
 C   -0.503007    1.459491    0.409889
 C   -0.759875    1.942147   -1.025081
 C    1.323057   -1.981913    0.083893
 C    2.282337   -2.615037   -0.897018
 C    1.814789   -3.217167   -2.069251
 C    2.706378   -3.740256   -3.002216
 C    4.076179   -3.665791   -2.777270
 C    4.552101   -3.072966   -1.610407
 C    3.661042   -2.556707   -0.675859
 O    0.184836   -0.246497    1.944476
 C   -0.804958    3.481522   -1.095210
 C    0.516068    4.110829   -0.714155
 C    0.639490    4.908368    0.426643
 C    1.874081    5.432262    0.806234
 C    3.008470    5.171535    0.044508
 C    2.897546    4.387479   -1.101237
 C    1.663697    3.864132   -1.474393
 N   -1.935198    1.331693   -1.636636
 N   -4.201653   -0.710027   -1.375656
 C   -4.239907    0.638586   -1.932084
 C   -3.197334    1.498410   -1.179618
 O   -3.497568    2.230086   -0.242546
 C   -5.644116    1.247680   -1.864858
 C   -6.677424    0.329166   -2.516754
 C   -5.654302    2.627836   -2.526672
 C   -3.196259   -1.568581   -1.784404
 N   -3.156347   -2.793942   -1.157566
 C   -4.033735   -3.174393   -0.059835
 O   -2.395669   -1.275792   -2.677608
 C   -3.627122   -2.607976    1.280300
 C   -3.102572   -3.289320    2.331302
 S   -2.741812   -2.206352    3.624411
 C   -3.348275   -0.888362    2.663745
 N   -3.780155   -1.251229    1.494820
 C   -3.417037    0.539411    3.135848
 C   -4.751714    0.790144    3.845820
 C   -2.224676    0.924986    4.002108
 C   -2.141750   -3.749116   -1.569530
 H    4.748746   -0.240735    2.648367
 H    7.884079   -2.413398    0.961900
 H    4.576287    2.063211    1.254006
 H    5.590573    2.217307   -0.214410
 H    2.286290    0.091789   -1.677852
 H    0.224845   -0.791216   -1.342558
 H   -1.153674   -0.598271    0.496086
 H   -1.375453    1.704839    1.030062
 H    0.349391    2.010304    0.823603
 H    0.074714    1.616965   -1.652604
 H    1.821554   -1.820464    1.043667
 H    0.467662   -2.646780    0.267836
 H    0.742041   -3.279322   -2.254166
 H    2.328798   -4.204606   -3.909257
 H    4.771538   -4.070943   -3.508469
 H    5.621983   -3.011912   -1.426959
 H    4.046112   -2.103624    0.239617
 H    1.080873    0.134109    2.018003
 H   -1.612019    3.845827   -0.452809
 H   -1.068651    3.758940   -2.124049
 H   -0.240211    5.109289    1.036351
 H    1.947581    6.042939    1.702524
 H    3.972919    5.576545    0.343031
 H    3.779079    4.168862   -1.701156
 H    1.592769    3.256084   -2.375105
 H   -1.790053    0.544434   -2.263071
 H   -4.403294   -0.742855   -0.375221
 H   -3.926919    0.552713   -2.980478
 H   -5.896724    1.375275   -0.802781
 H   -6.446064    0.178022   -3.579481
 H   -6.703876   -0.650489   -2.030715
 H   -7.676577    0.774314   -2.456880
 H   -5.372816    2.552812   -3.585256
 H   -4.960101    3.313344   -2.032408
 H   -6.657553    3.065601   -2.480515
 H   -4.043670   -4.268251   -0.007974
 H   -5.062114   -2.868265   -0.294347
 H   -2.906775   -4.348851    2.406983
 H   -3.397806    1.139745    2.213943
 H   -4.829743    1.840801    4.144891
 H   -4.833328    0.169646    4.744643
 H   -5.594582    0.557606    3.187646
 H   -1.286141    0.769819    3.456931
 H   -2.197994    0.328203    4.920123
 H   -2.296753    1.981623    4.281862
 H   -1.457981   -3.977042   -0.740980
 H   -1.580850   -3.317476   -2.398950
 H   -2.604605   -4.687273   -1.900633
