32 
3prz_ligand_dft.xyz
 C   45.077908   11.590320   28.151252
 N   47.064052   12.939102   28.513192
 C   47.695315   13.922013   29.134510
 N   48.990881   14.123578   28.779282
 C   47.063851   14.717597   30.151485
 C   45.702867   14.417104   30.406483
 C   44.995855   15.187343   31.381582
 N   45.080932   13.401295   29.736320
 C   45.778480   12.717973   28.856646
 C   47.029818   16.463205   31.811184
 C   45.673532   16.185712   32.050190
 C   47.719563   15.737267   30.872743
 C   43.535020   15.031245   31.786687
 O   43.057780   15.770132   32.629357
 N   42.852169   14.039085   31.148926
 C   41.519300   13.679138   31.325135
 C   40.906294   12.604945   30.630207
 C   39.611911   12.599850   31.091981
 N   39.524833   13.609823   31.983893
 N   40.677845   14.289864   32.148056
 H   45.755841   11.097665   27.453332
 H   44.713516   10.860567   28.881137
 H   44.208772   11.971441   27.605613
 H   49.303131   13.606182   27.970964
 H   49.440035   15.006549   28.954099
 H   47.526807   17.246763   32.373599
 H   45.113429   16.753420   32.785826
 H   48.774049   15.940386   30.710112
 H   43.394371   13.502068   30.469820
 H   41.355230   11.942425   29.905289
 H   38.768305   11.967654   30.857615
 H   38.723308   13.897291   32.519481
