32 
3prz_ligand_ani.xyz
 C   45.137770   11.531674   28.184041
 N   47.092507   12.925844   28.513024
 C   47.686350   13.939247   29.115809
 N   48.979111   14.209954   28.757912
 C   47.050474   14.705129   30.150614
 C   45.698879   14.386537   30.420603
 C   44.997202   15.157489   31.402679
 N   45.108867   13.355309   29.743677
 C   45.814454   12.679330   28.869711
 C   47.029920   16.424245   31.844795
 C   45.677147   16.147763   32.086983
 C   47.711092   15.709935   30.887737
 C   43.544269   14.998128   31.787649
 O   43.040700   15.713272   32.634170
 N   42.856604   14.011621   31.125399
 C   41.516693   13.684256   31.306945
 C   40.867477   12.641298   30.602267
 C   39.579382   12.667189   31.079574
 N   39.533810   13.664037   31.987881
 N   40.703453   14.307865   32.151903
 H   45.843835   11.033423   27.518460
 H   44.763664   10.823500   28.927864
 H   44.284808   11.898702   27.606758
 H   49.275622   13.714146   27.926743
 H   49.267029   15.177213   28.785256
 H   47.531332   17.204379   32.410701
 H   45.122971   16.711044   32.831877
 H   48.768032   15.901987   30.718812
 H   43.403036   13.477598   30.447462
 H   41.302015   11.984356   29.861289
 H   38.705858   12.070833   30.853688
 H   38.740638   13.961697   32.533721
