44 
3pty_ligand_ani.xyz
 C    2.045411    0.454098    0.707628
 O    0.820506    0.336852    0.054303
 C    2.805344    1.625089    0.056697
 O    2.884946    2.798081    0.835779
 C    4.199344    1.067735   -0.175188
 O    4.880873    1.617420   -1.277230
 C    3.904933   -0.399672   -0.407597
 O    2.858042   -0.693226    0.537693
 C    5.051432   -1.355457   -0.134361
 O    4.647935   -2.695229   -0.288069
 C    0.008055   -0.737916    0.504319
 C   -1.391635   -0.544439   -0.059781
 C   -2.356200   -1.639240    0.397161
 C   -3.761947   -1.530363   -0.202290
 C   -4.513879   -0.255673    0.181376
 C   -5.951209   -0.234972   -0.334842
 C   -6.715226    1.030459    0.050156
 C   -8.157947    1.025287   -0.450099
 H    1.881971    0.603784    1.789280
 H    2.336671    1.809125   -0.919799
 H    2.026240    3.237008    0.799546
 H    4.777383    1.180546    0.756473
 H    5.063571    2.542042   -1.064707
 H    3.524654   -0.540747   -1.430035
 H    5.440923   -1.164320    0.879464
 H    5.861059   -1.174753   -0.848250
 H    3.861543   -2.799509    0.266976
 H   -0.019162   -0.747042    1.606466
 H    0.435270   -1.698071    0.178406
 H   -1.329375   -0.528981   -1.155331
 H   -1.758578    0.442106    0.248707
 H   -2.429984   -1.617291    1.495380
 H   -1.932708   -2.619698    0.136770
 H   -4.351479   -2.399877    0.119441
 H   -3.697456   -1.592012   -1.298956
 H   -4.521955   -0.153400    1.277149
 H   -3.982667    0.625846   -0.204183
 H   -5.947590   -0.338179   -1.430305
 H   -6.489621   -1.113491    0.051161
 H   -6.188729    1.906894   -0.351997
 H   -6.703850    1.139344    1.143550
 H   -8.685136    1.942095   -0.166622
 H   -8.714074    0.176560   -0.034806
 H   -8.194201    0.941225   -1.542668
