29 
3pwd_ligand_xtb.xyz
 C    2.828477    2.135285    0.001045
 N    2.849338   -1.595474    0.001419
 C    3.288698    0.794778   -0.001727
 O    2.093491   -2.541411    0.016844
 C    2.360881   -0.265417    0.000266
 O    4.076590   -1.763412   -0.012794
 C    1.504377    2.420475    0.002901
 C    0.535324    1.388488    0.002433
 C    0.947423    0.021540    0.002093
 C   -0.067544   -0.941742    0.001497
 C   -0.822148    1.723111    0.001999
 C   -1.820805    0.766317    0.001036
 C   -1.405877   -0.588745    0.000886
 O   -2.285864   -1.609154   -0.000209
 C   -3.641014   -1.403938   -0.002604
 C   -4.085980   -0.022749   -0.002857
 C   -3.243693    1.033387   -0.000677
 O    4.601066    0.657774   -0.004849
 O   -4.364084   -2.365791   -0.004262
 C   -3.799713    2.422923   -0.000122
 H    3.584542    2.903649    0.000942
 H    1.167635    3.446293    0.004418
 H    0.148783   -1.995652    0.001626
 H   -1.071289    2.772565    0.001815
 H   -5.156527    0.112361   -0.004751
 H    4.825506   -0.312439   -0.009206
 H   -4.428486    2.564939   -0.877418
 H   -4.425917    2.565043    0.879028
 H   -3.029636    3.185235   -0.001230
