29 
3pwd_ligand_ani.xyz
 C    2.827332    2.145686    0.000431
 N    2.903844   -1.602991    0.001423
 C    3.303842    0.805629   -0.001463
 O    2.156297   -2.558653    0.015486
 C    2.376555   -0.248907    0.000225
 O    4.132805   -1.763666   -0.011932
 C    1.499393    2.418207    0.002234
 C    0.523693    1.381924    0.002220
 C    0.942717    0.020451    0.001585
 C   -0.088538   -0.951943    0.001102
 C   -0.840239    1.717345    0.002186
 C   -1.838060    0.763001    0.001118
 C   -1.412449   -0.588004    0.000826
 O   -2.306790   -1.612875    0.000223
 C   -3.668870   -1.416282   -0.002449
 C   -4.120329   -0.026087   -0.002603
 C   -3.281109    1.021699   -0.000450
 O    4.633314    0.700028   -0.003805
 O   -4.379825   -2.387232   -0.004294
 C   -3.836795    2.427887    0.000087
 H    3.578331    2.928913   -0.000016
 H    1.151375    3.449625    0.003318
 H    0.150387   -2.004390    0.000935
 H   -1.102178    2.770879    0.002549
 H   -5.196596    0.112480   -0.004583
 H    4.868448   -0.250959   -0.008480
 H   -4.463157    2.590131   -0.882904
 H   -4.461345    2.590356    0.884329
 H   -3.061463    3.189463   -0.000822
