40 
3pwh_ligand_ani.xyz
 C    4.521065   -0.600017    1.379140
 C    5.481785   -1.596869    1.288540
 C    6.190280   -1.764596    0.099694
 O    7.119732   -2.759550    0.054777
 C    5.928749   -0.924649   -0.980310
 C    4.962310    0.070594   -0.868796
 C    4.237433    0.253696    0.308493
 C    3.191710    1.336580    0.471692
 C    2.360122    1.620668   -0.787118
 N    1.215213    2.472901   -0.520854
 C   -0.040826    2.027816   -0.310177
 N   -0.284348    0.723957   -0.488032
 N   -0.926691    3.008069    0.059833
 C   -2.153924    2.604340    0.254901
 N   -3.158283    3.402917    0.624650
 N   -2.491151    1.284629    0.082764
 N   -3.713650    0.714174    0.228408
 C   -1.545685    0.354027   -0.293486
 N   -2.149074   -0.826093   -0.397014
 C   -3.432415   -0.543920   -0.075062
 C   -4.444687   -1.579076   -0.072728
 C   -4.373801   -2.900800   -0.384843
 C   -5.695371   -3.415869   -0.200010
 C   -6.451645   -2.363620    0.207742
 O   -5.707924   -1.234870    0.290312
 H    3.974734   -0.479907    2.313297
 H    5.694739   -2.254927    2.126403
 H    7.524017   -2.772776   -0.821804
 H    6.476463   -1.047222   -1.913794
 H    4.776417    0.708992   -1.730025
 H    3.666678    2.272509    0.799713
 H    2.502633    1.042452    1.273128
 H    1.980535    0.688403   -1.211895
 H    2.977959    2.113786   -1.546571
 H    1.348643    3.455293   -0.332055
 H   -2.984312    4.385345    0.766556
 H   -4.081860    3.013198    0.748939
 H   -3.477893   -3.416963   -0.705518
 H   -6.034109   -4.431948   -0.351341
 H   -7.493824   -2.254573    0.469940
