24 
3pwk_ligand_ani.xyz
 O   -3.479433    0.633847   -0.873503
 O    3.603939   -0.834943   -0.794943
 O   -3.620669   -0.799816    0.803886
 O    3.498887    0.661356    0.829474
 C   -0.737718    1.288645   -0.186467
 C    0.740486    1.286561    0.196944
 C   -0.747907   -1.240617   -0.147550
 C    0.744244   -1.240228    0.172663
 C   -2.929495   -0.073497    0.138933
 C    2.927934   -0.080911   -0.145390
 C   -1.423936    0.038939    0.370364
 C    1.419940    0.033163   -0.359346
 H   -2.808524    1.160031   -1.327972
 H    2.837824    1.204708    1.278151
 H   -0.809503    1.308027   -1.285570
 H   -1.223589    2.198475    0.187120
 H    0.815598    1.306848    1.295687
 H    1.228349    2.194373   -0.179243
 H   -1.240757   -2.116251    0.288190
 H   -0.895675   -1.299449   -1.235045
 H    1.235862   -2.120756   -0.254159
 H    0.893062   -1.287464    1.260606
 H   -1.314491    0.053801    1.462009
 H    1.298768    0.041764   -1.449991
