100 
3pww_ligand_ani.xyz
 C   -3.653477    0.010201    0.362826
 O   -2.854798    0.733104    0.964495
 N   -5.906715   -0.515903   -0.316655
 C   -5.140765    0.243493    0.432353
 C   -5.623699    1.256200    1.293806
 C   -6.974094    1.464781    1.356012
 C   -9.254037    0.824480    0.555195
 C  -10.034576    0.030873   -0.243956
 C   -9.442121   -0.951049   -1.075973
 C   -8.082262   -1.121655   -1.091496
 C   -7.842494    0.673182    0.558482
 C   -7.252232   -0.312117   -0.272641
 N   -3.282486   -1.032786   -0.399571
 C   -1.908009   -1.491535   -0.492798
 C   -1.109602   -0.620577   -1.475519
 O   -0.682169   -1.084067   -2.536490
 C   -1.866230   -2.952037   -0.912425
 C   -0.479662   -3.552473   -0.765264
 O    0.405457   -3.004691   -0.119268
 N   -0.301692   -4.754892   -1.363140
 C    1.293243    1.350245   -2.096995
 O    1.545093    0.385186   -3.113075
 C   -0.224787    1.628125   -1.948860
 N   -0.912922    0.657687   -1.102327
 C   -0.546029    3.063126   -1.494917
 C    0.165351    3.555895   -0.250263
 C    1.356698    4.281653   -0.361486
 C   -0.332642    3.291781    1.028947
 C    2.040634    4.718365    0.769621
 C    0.349823    3.728755    2.162501
 C    1.538902    4.440137    2.037494
 N    3.223043    0.112503   -1.168545
 C    1.997086    0.889558   -0.795468
 C    3.341270   -1.192426   -0.421587
 C    3.222213   -0.991076    1.103629
 O    3.811021   -0.116582    1.725431
 C    4.584484   -1.986338   -0.846803
 C    5.892839   -1.191007   -0.947699
 C    6.582024   -0.946568    0.403375
 C    7.889493   -0.170814    0.225010
 C    7.636214    1.161992   -0.486265
 C    6.939506    0.943268   -1.834839
 C    5.648335    0.120611   -1.719392
 C    4.496388    0.917999   -1.103836
 N    2.393264   -1.891670    1.691252
 C    1.992557   -1.842672    3.104358
 C    3.209474   -2.018941    4.017703
 C    1.288698   -0.517035    3.421907
 C    1.020493   -3.005261    3.311686
 H   -4.912598    1.833356    1.876681
 H   -7.394434    2.229640    2.006070
 H   -9.699857    1.581317    1.197395
 H  -11.115170    0.148547   -0.246540
 H  -10.075249   -1.571576   -1.705021
 H   -7.595675   -1.864405   -1.716557
 H   -4.018632   -1.513492   -0.902040
 H   -1.450499   -1.381659    0.497099
 H   -2.557234   -3.521391   -0.278716
 H   -2.197666   -3.050000   -1.951018
 H   -1.006538   -5.163909   -1.954652
 H    0.614681   -5.176132   -1.350789
 H    1.772718    2.275146   -2.448582
 H    0.801817   -0.256037   -3.098418
 H   -0.625593    1.505744   -2.963444
 H   -1.345913    0.968286   -0.236058
 H   -0.299973    3.734506   -2.327726
 H   -1.634150    3.133539   -1.366627
 H    1.762271    4.502765   -1.349170
 H   -1.270058    2.750883    1.149576
 H    2.964510    5.280251    0.659340
 H   -0.056042    3.511797    3.147797
 H    2.069582    4.782103    2.922090
 H    3.028213   -0.106665   -2.174479
 H    2.261666    1.730390   -0.149549
 H    1.347262    0.230208   -0.218298
 H    2.466256   -1.777198   -0.726727
 H    4.361043   -2.405803   -1.835828
 H    4.701895   -2.836788   -0.165576
 H    6.592585   -1.791662   -1.548576
 H    5.908167   -0.389235    1.060931
 H    6.777563   -1.911204    0.890458
 H    8.590121   -0.773339   -0.372217
 H    8.368328   -0.005841    1.197764
 H    7.008501    1.802149    0.151939
 H    8.578207    1.703812   -0.634629
 H    7.629093    0.408834   -2.503624
 H    6.723472    1.905110   -2.317619
 H    5.320357   -0.143773   -2.737124
 H    4.351346    1.857552   -1.652980
 H    4.685254    1.161547   -0.054888
 H    1.793577   -2.438513    1.081098
 H    2.882462   -2.066901    5.063367
 H    3.903570   -1.183291    3.908957
 H    3.737947   -2.947363    3.776944
 H    0.417447   -0.375958    2.770743
 H    1.971692    0.323385    3.281345
 H    0.942648   -0.519233    4.462372
 H    0.152380   -2.909205    2.649033
 H    1.512071   -3.961518    3.096812
 H    0.658275   -3.033777    4.345280
