34 
3pxq_ligand_ani.xyz
 C   -0.018582    1.107114   -0.455734
 C    0.317621    2.446078   -0.537629
 C   -0.637011    3.465858   -0.371009
 C   -1.937197    3.144044   -0.108338
 C   -2.327967    1.781771    0.011993
 C   -3.690692    1.488979    0.281409
 C   -4.114462    0.203439    0.433934
 C   -3.199083   -0.858853    0.336805
 N    0.971521    0.175159   -0.743340
 S   -0.776209   -2.048714    0.024563
 C   -1.866121   -0.621700    0.071199
 C   -1.376777    0.724710   -0.134092
 C    2.276773    0.201253   -0.266814
 C    2.631977    0.869721    0.910666
 C    3.953634    0.857128    1.344557
 C    4.933518    0.179993    0.625806
 C    4.574884   -0.503877   -0.532450
 C    3.257885   -0.505816   -0.971793
 O    0.149101   -2.009418    1.132565
 O   -0.291722   -2.246188   -1.344082
 O   -1.783774   -3.287396    0.303647
 H    1.348565    2.716561   -0.746452
 H   -0.325170    4.503941   -0.453201
 H   -2.692427    3.915670    0.016834
 H   -4.387282    2.319914    0.365675
 H   -5.157857   -0.017347    0.640402
 H   -3.565605   -1.869002    0.482966
 H    0.711454   -0.654989   -1.269131
 H    1.872386    1.394354    1.485980
 H    4.216549    1.389899    2.254729
 H    5.964572    0.180122    0.967974
 H    5.325534   -1.047048   -1.100372
 H    2.976753   -1.051982   -1.870851
 H   -1.928004   -3.761825   -0.532274
