28 
3pxy_ligand_xtb.xyz
 N    3.538454   -0.706898    0.005451
 C    2.545332   -1.596347    0.005209
 N    2.881024   -2.902247   -0.031199
 N    1.245997   -1.302361    0.010478
 C    0.953756   -0.001910    0.001482
 C   -0.469015    0.354338    0.004915
 C   -0.920061    1.685967    0.006696
 O   -0.041079    2.715607    0.013252
 C   -2.288774    1.923280    0.002413
 C   -3.213045    0.892768   -0.001772
 C   -2.771749   -0.424853   -0.000994
 O   -3.583395   -1.524532   -0.003421
 C   -1.404249   -0.672244    0.001831
 N    1.858351    0.963307   -0.009611
 C    3.131290    0.561740   -0.006876
 N    4.070777    1.523067   -0.019554
 C   -4.974550   -1.326092   -0.007924
 H    3.843383   -3.151389    0.105178
 H    2.155030   -3.580329    0.110428
 H   -0.527142    3.550817    0.009209
 H   -2.644153    2.946481    0.001902
 H   -4.263654    1.136643   -0.005902
 H   -1.049479   -1.689272   -0.000024
 H    5.040007    1.269206    0.010031
 H    3.772792    2.480246   -0.001050
 H   -5.309035   -0.785942    0.884475
 H   -5.303413   -0.786670   -0.902823
 H   -5.414375   -2.322353   -0.008900
