28 
3pxz_ligand_xtb.xyz
 N   -3.539105    0.705157    0.015357
 C   -2.547199    1.595896   -0.006249
 N   -2.885708    2.900388   -0.053484
 N   -1.247378    1.303685   -0.010334
 C   -0.953588    0.003604   -0.003850
 C    0.469364   -0.352027   -0.003331
 C    0.919463   -1.683999   -0.009836
 O    0.040026   -2.713212   -0.013494
 C    2.287912   -1.922604   -0.012679
 C    3.213021   -0.892882   -0.006498
 C    2.772852    0.425076    0.001892
 O    3.585509    1.524007    0.010244
 C    1.405544    0.673749    0.002004
 N   -1.857155   -0.962720    0.005694
 C   -3.130514   -0.562922    0.013020
 N   -4.069010   -1.526070    0.007114
 C    4.976391    1.323829    0.018512
 H   -3.847895    3.149949    0.082850
 H   -2.159847    3.582881    0.065208
 H    0.525684   -3.548634   -0.024008
 H    2.642482   -2.946095   -0.019692
 H    4.263338   -1.137943   -0.008837
 H    1.052229    1.691224    0.005633
 H   -5.036166   -1.272769    0.082196
 H   -3.767780   -2.480436    0.071479
 H    5.300990    0.777879    0.910981
 H    5.313767    0.788889   -0.875817
 H    5.417927    2.319291    0.027676
