28 
3pxz_ligand_ani.xyz
 N   -3.561483    0.727277   -0.002821
 C   -2.542339    1.588567   -0.026617
 N   -2.850878    2.908405   -0.069235
 N   -1.240790    1.271126   -0.029207
 C   -0.971675   -0.038192   -0.004575
 C    0.472298   -0.403018   -0.002901
 C    0.976241   -1.720195   -0.016879
 O    0.141595   -2.784704   -0.033274
 C    2.355868   -1.918357   -0.015921
 C    3.249785   -0.853237   -0.002440
 C    2.756269    0.445663    0.010399
 O    3.525100    1.568015    0.022683
 C    1.381266    0.651143    0.010324
 N   -1.897864   -0.993146    0.018596
 C   -3.163548   -0.547734    0.016401
 N   -4.126233   -1.495930    0.023575
 C    4.923737    1.390209    0.018995
 H   -3.797739    3.170502    0.153199
 H   -2.107005    3.557940    0.129689
 H    0.682627   -3.583861   -0.040019
 H    2.747863   -2.936311   -0.026715
 H    4.315506   -1.053778   -0.002698
 H    1.007445    1.668847    0.019877
 H   -5.086731   -1.216688    0.136566
 H   -3.858020   -2.456800    0.153068
 H    5.261402    0.839776    0.907078
 H    5.259074    0.858656   -0.881399
 H    5.355345    2.392010    0.029012
