38 
3pyy_ligand_dft.xyz
 C   -5.596817   -2.109604    0.249752
 C   -4.513376   -2.813411    0.769993
 C   -5.384143   -0.887902   -0.381209
 C    2.843962   -0.584794    0.538745
 C    1.983036   -2.412892   -0.781007
 C   -3.225712   -2.300615    0.674220
 C   -4.098565   -0.369622   -0.497172
 C    4.112667   -1.154497    0.504365
 C    3.242468   -2.995330   -0.813792
 C   -1.331224    0.741970   -0.166402
 C    1.770274   -1.201512   -0.112621
 C    0.044445    0.757615   -0.207527
 C   -3.025205   -1.075763    0.041582
 C    4.290825   -2.350017   -0.172732
 C    0.422135   -0.607630   -0.093413
 C    1.177056    2.711844    0.940158
 C    0.045008    4.158396   -0.484842
 C    0.915305    1.965936   -0.385110
 N   -0.650716   -1.385758   -0.003565
 N   -1.707950   -0.554905   -0.052312
 N    0.614889    3.953910    0.786349
 N    0.301142    3.010411   -1.182522
 O    1.753523    2.286179    1.912508
 O   -0.536530    5.151181   -0.850750
 F    5.512122   -2.904899   -0.206434
 H   -6.600600   -2.514010    0.332513
 H   -4.669516   -3.768464    1.261754
 H   -6.219990   -0.337413   -0.801463
 H    2.682019    0.326334    1.108734
 H    1.147203   -2.895906   -1.276576
 H   -2.372166   -2.832357    1.077185
 H   -3.936830    0.566635   -1.021538
 H    4.953576   -0.691695    1.008865
 H    3.422121   -3.932954   -1.328041
 H   -2.049043    1.548092   -0.197803
 H    1.885947    1.663568   -0.796996
 H    0.612332    4.667912    1.499395
 H   -0.134493    2.846826   -2.075777
