67 
3pz1_ligand_ani.xyz
 C   -0.079141    2.279503   -0.190597
 N   -0.316304   -0.801926    0.101442
 O   -0.737732   -2.815823    1.647477
 S   -0.988213   -2.332290    0.295589
 C   -1.055648    1.509217    0.453468
 N    1.255642    1.767252   -0.210785
 O   -0.568922   -3.135539   -0.843835
 C   -2.375874    1.929739    0.438950
 N    5.879054    2.029361   -0.149173
 O   -6.748240   -1.046649    0.112360
 C   -2.755747    3.114116   -0.191638
 N    4.062304    2.218239    1.125321
 C   -1.782734    3.896188   -0.812131
 N   -5.260540    3.805723   -0.221380
 C   -0.457667    3.482616   -0.805649
 C   -0.687011    0.204294    1.107668
 C    1.067230   -0.771008   -0.405978
 C    1.394754    0.572215   -1.073133
 C    2.255062    2.784634   -0.544549
 C    3.649258    2.408269   -0.177925
 C    4.789362    2.285388   -0.933780
 C    5.410234    1.997163    1.073358
 C    3.269780    2.246317    2.339926
 C    2.119130   -1.182267    0.649752
 C    5.374644   -3.389740   -1.117464
 C    5.562861   -2.063729   -0.739456
 C    4.514517   -1.350317   -0.165691
 C    3.271401   -1.945785    0.039432
 C    3.086402   -3.272503   -0.359329
 C    4.133643   -3.991349   -0.926331
 C   -5.416615   -1.319253    0.067435
 C   -4.543969   -0.821392   -0.902010
 C   -3.192808   -1.153822   -0.852820
 C   -2.719207   -1.966186    0.168753
 C   -3.588524   -2.479679    1.127136
 C   -4.933308   -2.159937    1.076163
 C   -7.248878   -0.114530   -0.819705
 C   -4.142685    3.496834   -0.207288
 H   -3.142498    1.313420    0.899579
 H   -2.059731    4.826662   -1.299394
 H    0.277364    4.099702   -1.311009
 H   -1.537774   -0.163296    1.686691
 H    0.148366    0.334330    1.808026
 H    1.065879   -1.515807   -1.207528
 H    0.752425    0.673367   -1.960874
 H    2.433956    0.517238   -1.416318
 H    2.247568    3.027699   -1.620917
 H    1.988570    3.702367   -0.007550
 H    4.886983    2.367445   -2.010784
 H    6.003843    1.809014    1.962835
 H    3.510516    1.368598    2.951082
 H    3.476737    3.150318    2.924783
 H    2.209573    2.219201    2.080588
 H    2.483512   -0.290280    1.174484
 H    1.619797   -1.813824    1.396387
 H    6.190829   -3.952850   -1.562756
 H    6.526115   -1.581154   -0.887425
 H    4.662505   -0.312867    0.119474
 H    2.107367   -3.736677   -0.234340
 H    3.977510   -5.024433   -1.226356
 H   -4.904580   -0.172125   -1.692510
 H   -2.507324   -0.748844   -1.594619
 H   -3.192191   -3.120809    1.909975
 H   -5.636610   -2.539797    1.810632
 H   -8.305723    0.016723   -0.581658
 H   -6.731091    0.850954   -0.735535
 H   -7.153189   -0.484060   -1.849778
