85 
3q0z_ligand_ani.xyz
 N    1.268478    2.461638   -0.100174
 C    2.433805    3.335976   -0.113830
 C    3.731750    2.576206    0.244771
 N    3.791107    1.277529   -0.176099
 C    4.875810    0.382443   -0.071275
 O    4.643805    3.155068    0.810869
 C    5.954613    0.595095    0.790690
 C    6.965623   -0.351434    0.851320
 C    6.947695   -1.512483    0.072228
 C    5.862416   -1.707160   -0.787854
 C    4.839054   -0.775388   -0.852909
 C    8.066096   -2.460695    0.202901
 C    8.231198   -3.601384   -0.472411
 C    9.351209   -4.578063   -0.343166
 O   10.357151   -4.311666    0.519120
 C    2.319125    4.563449    0.809744
 C    2.619354    3.985496   -1.492471
 C    3.259832    5.626543    0.206707
 C    3.578593    5.155814   -1.232809
 O    9.368261   -5.591680   -0.991699
 C    0.832587    1.880944    1.064995
 C   -0.485512    1.178422    0.994777
 C   -1.101540    0.858891    2.224864
 C   -2.341635    0.268333    2.275067
 C   -1.103967    0.846344   -0.198902
 N   -3.189072   -0.141706   -1.165566
 C   -2.366603    0.251490   -0.140158
 C   -3.021541   -0.029194    1.074809
 C   -4.295126   -0.596582    0.748878
 C   -4.332791   -0.699682   -0.638812
 C   -5.382400   -0.917303    1.747138
 C   -5.349234   -1.337037   -1.486894
 C   -5.032387   -2.130681    2.633252
 C   -6.180011   -2.486123    3.579090
 C   -6.580205   -1.288989    4.444700
 C   -6.927278   -0.078632    3.575811
 C   -5.771246    0.281681    2.641890
 O    1.491777    1.931051    2.092283
 C   -5.965110   -2.519488   -1.054629
 C   -6.991805   -3.122797   -1.760927
 C   -7.448339   -2.531998   -2.935361
 C   -6.849470   -1.369930   -3.393787
 C   -5.784366   -0.783426   -2.711809
 C   -2.889135   -0.038716   -2.570300
 N   -5.228255    0.382830   -3.274013
 C   -3.914056    0.790953   -3.336248
 O   -3.595017    1.754714   -4.002557
 H    0.588670    2.619907   -0.829328
 H    2.955596    0.907191   -0.605623
 H    5.996402    1.490218    1.398760
 H    7.799994   -0.175382    1.527297
 H    5.801094   -2.593765   -1.413610
 H    4.005126   -0.948598   -1.529355
 H    8.803673   -2.145486    0.945349
 H    7.504829   -3.921050   -1.212008
 H   10.221108   -3.465002    0.962020
 H    2.562237    4.303247    1.840402
 H    1.279187    4.908961    0.788071
 H    1.644304    4.365937   -1.826908
 H    2.984897    3.277498   -2.244659
 H    4.176366    5.700228    0.793678
 H    2.777642    6.610378    0.217930
 H    3.460617    5.952452   -1.974457
 H    4.613524    4.806598   -1.284202
 H   -0.567109    1.102380    3.137211
 H   -2.788108    0.035461    3.238681
 H   -0.615825    1.002672   -1.159407
 H   -6.303133   -1.168980    1.195143
 H   -4.128937   -1.897952    3.213944
 H   -4.775205   -2.991092    2.001929
 H   -5.903482   -3.339532    4.210020
 H   -7.048606   -2.805147    2.983424
 H   -5.740813   -1.026836    5.105682
 H   -7.422268   -1.549842    5.097293
 H   -7.187476    0.783346    4.201801
 H   -7.818223   -0.308474    2.973004
 H   -6.040879    1.137384    2.012164
 H   -4.909101    0.596096    3.243403
 H   -5.613594   -2.989559   -0.139158
 H   -7.441947   -4.037829   -1.389821
 H   -8.265295   -2.976703   -3.496471
 H   -7.195271   -0.907190   -4.317001
 H   -2.817794   -1.040208   -3.015889
 H   -1.925531    0.456089   -2.688640
 H   -5.820314    0.905311   -3.908320
