69 
3q2h_ligand_xtb.xyz
 C   -5.074709    2.794617   -1.421153
 F   -8.713191   -1.373055    1.244304
 N    1.259154    0.345733   -0.233051
 O   -0.431988    0.557929   -2.042982
 S   -0.243687    0.879286   -0.658718
 C   -4.652470    1.328636   -1.285437
 N    9.635370   -0.774241   -0.202797
 O   -0.333669    2.254592   -0.267323
 C   -3.277853    1.257195   -0.602596
 N   -3.683555   -0.605817    0.934206
 O    9.601653    0.243478    0.692167
 C   -2.831912   -0.153078   -0.177334
 N   -6.059765    0.956144    0.676901
 O   -3.755871    0.295989    1.994768
 C   -2.887805   -1.126590   -1.346861
 N   -6.300856   -0.421770   -1.216715
 O   -4.350728   -2.733555    0.399526
 C   -1.404868   -0.078956    0.381887
 C    1.737203    0.685047    1.085086
 C    3.264688    0.681527    1.079719
 C    3.776483   -0.688824    0.627612
 C    5.304501   -0.800842    0.685778
 C    6.063901    0.125944   -0.271489
 C    7.533330   -0.002776   -0.055356
 C    8.422525   -0.940713   -0.657482
 C    8.098037   -1.978247   -1.666744
 C    8.343192    0.709985    0.787965
 C    8.080104    1.840981    1.711942
 C    3.205295   -0.990586   -0.760196
 C    1.678962   -0.950191   -0.707049
 C   -4.295798   -1.785881    1.139768
 C   -5.722507    0.572282   -0.553837
 C   -7.048658    0.313101    1.276489
 C   -7.705933   -0.727797    0.641217
 C   -7.278494   -1.083299   -0.631991
 H   -5.234748    3.233719   -0.439622
 H   -5.996641    2.873784   -1.992186
 H   -4.296646    3.352815   -1.934011
 H   -4.582226    0.883556   -2.280055
 H   -2.536219    1.637373   -1.303898
 H   -3.263424    1.916865    0.266685
 H   -4.509626    0.901706    1.804895
 H   -3.906443   -1.252902   -1.700153
 H   -2.265757   -0.731669   -2.145656
 H   -2.514091   -2.103687   -1.055346
 H   -0.985252   -1.076598    0.484166
 H   -1.398513    0.434472    1.340772
 H    1.345475    1.675802    1.316358
 H    1.368089   -0.034160    1.833907
 H    3.632287    0.915523    2.080042
 H    3.605467    1.453027    0.390066
 H    3.379249   -1.438751    1.324316
 H    5.628103   -0.585453    1.707338
 H    5.586634   -1.833117    0.466485
 H    5.766892    1.161511   -0.103419
 H    5.832785   -0.138172   -1.303792
 H    7.631000   -1.521627   -2.538030
 H    9.009231   -2.485126   -1.968998
 H    7.403988   -2.706452   -1.249898
 H    7.010423    1.978431    1.837993
 H    8.538755    1.644305    2.678722
 H    8.513498    2.758749    1.315645
 H    3.532323   -1.973090   -1.103476
 H    3.542621   -0.238086   -1.472036
 H    1.312841   -1.751166   -0.044069
 H    1.243634   -1.079905   -1.697970
 H   -4.789503   -1.772143    2.132187
 H   -7.312409    0.632555    2.276121
 H   -7.724986   -1.900186   -1.181022
