76 
3q3t_ligand_dft.xyz
 C    4.674891    0.133633   -0.251970
 C    5.402540   -1.059237   -0.330136
 C    4.823435    1.083441   -1.267764
 C    6.243187   -1.303710   -1.410569
 C    5.664615    0.837140   -2.351246
 C    6.373818   -0.357277   -2.425168
 C   -2.592799   -1.656091   -0.566677
 O   -2.509533   -0.747139   -1.420967
 N   -1.560858   -2.480076   -0.350909
 C   -0.583470   -3.024597    1.846524
 C    0.733988   -2.384048    1.382259
 C    0.438418   -1.317858    0.317104
 C   -0.252820   -2.041253   -0.853928
 C   -1.438468   -3.519089    0.674393
 C    1.630246   -0.459477   -0.161719
 O    2.379944   -1.372564   -0.941542
 C    2.430123    0.154862    1.007625
 C    1.752412    0.551782    2.168438
 C    3.810038    0.426358    0.935609
 C    2.398361    1.161045    3.236320
 C    4.453433    1.034193    2.020092
 C    3.765142    1.398860    3.168244
 C    1.126746    0.699268   -1.070311
 C    0.208003    1.732201   -0.407645
 C   -0.588483    2.554203   -1.421179
 C   -1.401587    3.661290   -0.772303
 O   -2.379921    3.100527    0.109024
 C   -2.968466    4.068685    0.959333
 C   -5.135330   -1.683090   -0.598135
 C   -5.928458   -0.426504   -0.181053
 C   -4.867301    0.532575    0.368776
 C   -3.909011   -0.388052    1.119516
 C   -3.856487   -1.709048    0.283195
 O   -6.597852    0.233110   -1.230710
 N   -4.193941    1.188223   -0.793592
 H    5.289798   -1.800382    0.455107
 H    4.287622    2.026429   -1.197222
 H    6.797419   -2.235774   -1.461313
 H    5.771034    1.584361   -3.131696
 H    7.030828   -0.549804   -3.267509
 H   -1.162896   -2.282819    2.414378
 H   -0.388685   -3.863551    2.522395
 H    1.249962   -1.958524    2.245870
 H    1.403493   -3.139829    0.955055
 H   -0.314829   -0.639222    0.734506
 H   -0.416072   -1.415621   -1.724155
 H    0.321934   -2.916765   -1.162607
 H   -2.420775   -3.855937    1.005709
 H   -0.957057   -4.376837    0.192070
 H    3.133583   -0.917097   -1.338942
 H    0.683959    0.380632    2.252189
 H    1.833250    1.443024    4.119642
 H    5.520226    1.223483    1.943135
 H    4.288950    1.866805    3.995597
 H    0.620879    0.256532   -1.934588
 H    2.011333    1.208618   -1.471895
 H    0.798883    2.401061    0.229346
 H   -0.512083    1.241341    0.255137
 H    0.086489    3.026246   -2.146027
 H   -1.247733    1.890984   -1.997051
 H   -0.743060    4.315284   -0.184008
 H   -1.908842    4.281627   -1.525116
 H   -3.710478    3.554511    1.575189
 H   -2.212743    4.517219    1.614936
 H   -3.460298    4.863716    0.383233
 H   -5.725551   -2.594692   -0.481742
 H   -4.869283   -1.589751   -1.655329
 H   -6.620630   -0.662211    0.638530
 H   -5.295625    1.321122    0.989967
 H   -4.335169   -0.590692    2.106172
 H   -2.926450    0.067570    1.277390
 H   -3.864554   -2.563344    0.957136
 H   -7.289506   -0.334858   -1.590004
 H   -3.570628    1.974274   -0.501511
 H   -4.908342    1.504576   -1.455617
 H   -3.566150    0.468579   -1.257050
