61 
3q44_ligand_dft.xyz
 C   -8.253478    0.426076    1.582374
 N   -4.450085   -0.164251   -0.612353
 O   -3.618387   -0.169868    1.512502
 C   -7.217766    0.185925    0.480831
 N   -1.134132   -0.265976   -0.801794
 O   -2.978820   -2.221772   -1.328165
 C   -7.893472    0.096229   -0.890122
 O    4.871183   -0.108429    0.317376
 C   -6.151151    1.287133    0.541470
 O   -2.756679    1.993304   -0.529796
 C   -5.056861    1.148731   -0.533967
 O   -4.436535    3.403109   -0.154615
 C   -3.711365   -0.663109    0.401276
 C   -2.800585   -1.841262    0.025452
 C   -1.358543   -1.350645    0.218988
 C   -0.287698   -2.428057    0.037820
 C    1.105731   -1.844813    0.082741
 C    1.633134   -1.348253    1.285286
 C    2.888278   -0.774110    1.328389
 C    3.664824   -0.677089    0.161944
 C    5.771784   -0.074984   -0.791413
 C    7.086408    0.473274   -0.310108
 C    7.645074    1.605813   -0.897578
 C    8.872198    2.095530   -0.455855
 C    9.540865    1.458375    0.583658
 C    8.983887    0.327170    1.178303
 C    7.765038   -0.165645    0.730065
 C    3.151269   -1.157610   -1.045102
 C    1.881064   -1.734292   -1.070216
 C   -3.951897    2.196726   -0.393037
 H   -8.785923    1.370318    1.417651
 H   -7.781062    0.473562    2.569016
 H   -8.996220   -0.377288    1.601197
 H   -4.441642   -0.668915   -1.486563
 H   -6.724386   -0.773829    0.684834
 H   -0.145893    0.014352   -0.786743
 H   -1.745080    0.574176   -0.653433
 H   -1.342516   -0.645233   -1.731757
 H   -3.132423   -3.170848   -1.393895
 H   -7.194701   -0.196079   -1.683515
 H   -8.692844   -0.650822   -0.877663
 H   -8.342154    1.057239   -1.170256
 H   -6.625448    2.264762    0.401521
 H   -5.681320    1.288542    1.528131
 H   -5.512769    1.339990   -1.512407
 H   -3.694681    4.029085   -0.099420
 H   -2.987404   -2.663804    0.722228
 H   -1.278406   -0.871724    1.196714
 H   -0.430349   -3.166793    0.835014
 H   -0.454580   -2.946013   -0.914304
 H    1.058266   -1.430063    2.205329
 H    3.306281   -0.399707    2.256501
 H    5.355715    0.553371   -1.589561
 H    5.892563   -1.094958   -1.181708
 H    7.121213    2.111413   -1.705259
 H    9.301003    2.977758   -0.920742
 H   10.494461    1.842147    0.932880
 H    9.503241   -0.171901    1.990600
 H    7.329362   -1.046032    1.194423
 H    3.725003   -1.100407   -1.962354
 H    1.505665   -2.128150   -2.013018
