96 
3q4j_ligand_xtb.xyz
 C   -3.642867   -0.639138    2.684714
 O   -2.652338    0.064655    2.891107
 C   -4.839778   -0.623685    3.603712
 N   -3.752209   -1.479090    1.657558
 C   -2.796293   -1.557556    0.565939
 C   -3.146775   -0.412706   -0.401213
 O   -4.156681   -0.417486   -1.086276
 C   -2.821045   -2.954776   -0.067161
 C   -3.840680   -3.159972   -1.189325
 C   -5.263834   -2.811611   -0.790961
 O   -5.687187   -2.887349    0.350035
 N   -6.078627   -2.524111   -1.826399
 N   -2.285875    0.608346   -0.355382
 C   -2.439227    1.817792   -1.136828
 C   -1.201841    1.920151   -2.028983
 O   -1.210664    1.518803   -3.182714
 C   -2.658882    3.039591   -0.240994
 C   -3.877055    2.904360    0.683167
 C   -3.981140    4.153626    1.556468
 C   -5.173113    2.693639   -0.095849
 N   -0.093657    2.446119   -1.470134
 C    1.138607    2.520166   -2.231718
 C    1.947336    1.241547   -1.968292
 O    3.019744    1.284174   -1.382058
 C    1.968650    3.739066   -1.828797
 C    2.568329    3.545098   -0.452053
 O    1.961199    3.173544    0.519520
 O    3.844149    3.925744   -0.407258
 N    1.333944    0.132957   -2.392750
 C    1.699557   -1.235892   -2.027019
 C    1.391460   -1.400522   -0.528948
 O    0.417245   -2.024624   -0.144017
 C    3.139344   -1.555338   -2.445599
 C    3.577954   -3.014132   -2.249221
 C    2.629363   -3.999506   -2.929523
 C    3.754713   -3.381221   -0.777568
 N    2.246224   -0.773253    0.288901
 C    1.950121   -0.625322    1.696376
 C    0.530088   -0.079853    1.836697
 O   -0.113855   -0.551575    2.864915
 C    2.939825    0.365855    2.326188
 C    4.346682   -0.126604    2.135314
 C    4.872906   -1.083423    2.994754
 C    5.122188    0.320103    1.072089
 C    6.146615   -1.584419    2.797021
 C    6.396081   -0.183823    0.871383
 C    6.910993   -1.137522    1.731943
 O    0.084411    0.723248    1.043956
 H   -5.714151   -0.275923    3.058199
 H   -4.647573    0.039830    4.441967
 H   -5.040164   -1.627671    3.969318
 H   -4.623380   -1.982588    1.484169
 H   -1.795415   -1.393748    0.972165
 H   -1.823359   -3.152733   -0.460693
 H   -3.017834   -3.670523    0.733570
 H   -3.834604   -4.216607   -1.472976
 H   -3.562369   -2.574381   -2.064623
 H   -5.688256   -2.233808   -2.705576
 H   -7.002494   -2.187223   -1.604330
 H   -1.489692    0.592817    0.277971
 H   -3.297330    1.660727   -1.798989
 H   -1.779101    3.190534    0.387097
 H   -2.779566    3.917757   -0.879487
 H   -3.715299    2.041459    1.336880
 H   -3.068025    4.299807    2.128526
 H   -4.809288    4.061372    2.254866
 H   -4.148752    5.035357    0.940641
 H   -6.023694    2.726652    0.581647
 H   -5.301238    3.474861   -0.842968
 H   -5.179267    1.727510   -0.592794
 H    0.010201    2.514534   -0.464387
 H    0.856755    2.574768   -3.290194
 H    2.779182    3.896941   -2.538729
 H    1.329097    4.622924   -1.804727
 H    4.215108    3.790110    0.479171
 H    0.436999    0.258468   -2.847734
 H    1.008741   -1.888215   -2.566610
 H    3.216362   -1.310639   -3.508875
 H    3.832407   -0.905572   -1.911625
 H    4.558465   -3.098643   -2.733504
 H    1.682072   -4.050379   -2.398697
 H    2.441580   -3.708898   -3.960884
 H    3.065730   -4.995555   -2.930321
 H    2.795287   -3.413606   -0.269381
 H    4.393937   -2.662445   -0.269413
 H    4.211890   -4.364849   -0.694421
 H    2.912505   -0.122835   -0.113229
 H    2.000894   -1.600916    2.193536
 H   -1.076332   -0.236322    2.901803
 H    2.792917    1.336430    1.847439
 H    2.706122    0.459090    3.388041
 H    4.278281   -1.436189    3.825342
 H    4.731550    1.062980    0.391509
 H    6.543933   -2.326740    3.473481
 H    6.986390    0.169258    0.038480
 H    7.904301   -1.530865    1.574831
