103 
3q4k_ligand_ani.xyz
 C    1.002275    1.585706   -3.545851
 O    1.838461    0.925013   -4.165002
 C   -0.252473    2.118102   -4.198592
 N    1.137254    1.878960   -2.233584
 C    2.290935    1.428605   -1.481165
 C    2.006980   -0.005213   -1.007480
 O    1.555372   -0.243379    0.106527
 C    2.617171    2.362745   -0.322851
 C    3.277635    3.681100   -0.753173
 C    2.389143    4.536165   -1.643704
 O    1.437301    5.174331   -1.197116
 N    2.707909    4.584764   -2.955195
 N    2.290862   -0.960771   -1.930665
 C    1.945740   -2.375400   -1.772469
 C    0.432406   -2.545635   -2.016256
 O    0.009865   -3.075899   -3.036860
 C    2.409124   -3.017493   -0.454323
 C    3.924420   -3.177887   -0.249969
 C    4.152081   -4.084996    0.972328
 C    5.633508   -4.289186    1.293276
 C    6.328738   -2.944179    1.504880
 C    6.140526   -2.049286    0.280363
 C    4.657184   -1.845333   -0.040843
 N   -0.396651   -2.058458   -1.059282
 C   -1.817213   -1.976685   -1.312682
 C   -2.421246   -1.010457   -0.283557
 O   -1.874719   -0.820148    0.801556
 C   -2.469885   -3.368800   -1.248770
 C   -3.838469   -3.426607   -1.874334
 O   -4.432150   -2.503966   -2.398592
 O   -4.359811   -4.659630   -1.820402
 N   -3.563994   -0.412540   -0.670304
 C   -4.413089    0.462587    0.137907
 C   -3.818697    1.846217    0.443359
 O   -4.485559    2.850663    0.241661
 C   -4.913328   -0.177726    1.444354
 C   -5.624444   -1.527026    1.287474
 C   -6.124202   -1.996098    2.653411
 C   -6.774515   -1.475324    0.281088
 N   -2.590831    1.874609    1.019663
 C   -1.992218    3.118716    1.422804
 C   -0.981896    3.610590    0.383990
 O   -0.986807    3.258598   -0.776952
 O   -0.140402    4.512882    0.876841
 C   -1.461298    3.061019    2.867025
 C   -0.363189    2.051225    3.104092
 C    0.982818    2.420129    3.024181
 C   -0.664693    0.721420    3.413399
 C    1.997176    1.495269    3.239269
 C    0.338310   -0.218510    3.626812
 C    1.664030    0.178309    3.529125
Cl    2.930841   -1.006387    3.757141
 H    0.028163    2.664882   -5.103110
 H   -0.876865    1.271425   -4.501217
 H   -0.824577    2.769097   -3.530814
 H    0.360556    2.303287   -1.730069
 H    3.131894    1.391786   -2.184264
 H    3.297398    1.836000    0.355288
 H    1.705067    2.566410    0.249728
 H    4.228929    3.477441   -1.258738
 H    3.504564    4.275904    0.137843
 H    3.391208    3.966848   -3.361463
 H    2.081206    5.078264   -3.574178
 H    2.373357   -0.623658   -2.887337
 H    2.417679   -2.896552   -2.610900
 H    2.006566   -2.450039    0.390574
 H    1.951992   -4.015765   -0.415792
 H    4.358014   -3.676639   -1.133397
 H    3.653498   -3.620595    1.839783
 H    3.661719   -5.054474    0.810697
 H    6.114621   -4.818019    0.457449
 H    5.748458   -4.929306    2.176321
 H    7.394897   -3.087855    1.719374
 H    5.893067   -2.447071    2.385548
 H    6.633436   -2.514767   -0.585784
 H    6.627264   -1.078237    0.432268
 H    4.557505   -1.211550   -0.927867
 H    4.175286   -1.311218    0.792980
 H   -0.026374   -1.515073   -0.283172
 H   -1.982749   -1.582472   -2.322700
 H   -1.836158   -4.060967   -1.811189
 H   -2.513044   -3.744554   -0.220818
 H   -5.220959   -4.617209   -2.269162
 H   -3.985512   -0.785521   -1.513412
 H   -5.274306    0.693075   -0.491971
 H   -5.600747    0.541249    1.911054
 H   -4.065492   -0.298112    2.129329
 H   -4.888709   -2.259397    0.922593
 H   -6.600713   -2.979998    2.582776
 H   -6.863784   -1.292142    3.055529
 H   -5.302069   -2.069455    3.374020
 H   -7.321061   -2.424813    0.275761
 H   -6.415464   -1.299708   -0.739685
 H   -7.489868   -0.682682    0.536649
 H   -2.079423    1.000130    1.118018
 H   -2.797983    3.863449    1.378984
 H    0.473678    4.804073    0.150392
 H   -2.321809    2.818110    3.500086
 H   -1.121409    4.062127    3.148417
 H    1.241220    3.445459    2.774333
 H   -1.703959    0.402894    3.482897
 H    3.042490    1.787202    3.176507
 H    0.094669   -1.252734    3.854051
