103 
3q4l_ligand_ani.xyz
 C    1.696959   -2.132416   -2.590945
 O    2.879453   -2.325524   -2.883904
 C    0.670708   -3.239200   -2.541879
 N    1.229200   -0.907269   -2.269010
 C    2.097540    0.251470   -2.200035
 C    2.848510    0.267917   -0.846363
 O    2.608530    1.101222    0.026053
 C    1.324908    1.546615   -2.457786
 C    0.130648    1.847295   -1.522511
 C   -1.226241    1.351649   -2.008030
 O   -1.470969    0.147437   -2.152562
 N   -2.142691    2.296490   -2.280229
 N    3.785820   -0.700100   -0.714725
 C    4.373937   -1.120202    0.563338
 C    3.329549   -1.901275    1.387355
 O    3.464162   -3.098958    1.579894
 C    5.048358   -0.004859    1.373335
 C    6.301355    0.644291    0.756361
 C    6.003925    1.650663   -0.362757
 C    7.281134    2.381033   -0.784899
 C    8.353813    1.386325   -1.240229
 C    8.639179    0.341293   -0.157683
 C    7.353367   -0.365697    0.280402
 N    2.261670   -1.187903    1.865263
 C    1.041327   -1.885837    2.206190
 C   -0.007139   -1.636127    1.106498
 O   -0.041554   -0.578434    0.493861
 C    0.489319   -1.443791    3.582677
 C   -0.856113   -2.106717    3.761656
 O   -1.874006   -1.238710    3.701109
 O   -1.002239   -3.310641    3.801498
 N   -0.882362   -2.654735    0.870483
 C   -1.997444   -2.486761   -0.042847
 C   -3.141629   -1.686630    0.604566
 O   -3.603890   -1.988105    1.707488
 C   -2.528882   -3.855886   -0.490499
 C   -3.638210   -3.818239   -1.552733
 C   -3.185910   -3.170498   -2.865704
 C   -4.156893   -5.234160   -1.809917
 N   -3.653831   -0.699235   -0.158931
 O   -4.759768    0.822948   -2.115002
Cl   -0.164454    4.692956    1.149024
 C   -1.462118    2.486160    2.009249
 C   -2.714670    3.918381    0.535017
Cl   -2.841937    5.318289   -0.480481
 C   -2.542523    1.618810    2.074958
 C   -3.792723    3.040770    0.600108
 C   -4.851005    0.886089    1.390149
 C   -5.390524    0.672907   -1.092167
 C   -1.537897    3.639053    1.234587
 C   -3.714637    1.877367    1.362430
 C   -4.908900   -0.047649    0.152756
 O   -6.638511    1.140630   -0.944352
 H   -0.209735   -2.996145   -3.149759
 H    1.131565   -4.158254   -2.906555
 H    0.331266   -3.380801   -1.508330
 H    0.258818   -0.780583   -1.987641
 H    2.851670    0.120934   -2.986526
 H    0.993400    1.542050   -3.503443
 H    2.043501    2.366315   -2.366805
 H    0.295655    1.398216   -0.540817
 H    0.078702    2.933946   -1.380362
 H   -3.096064    1.991566   -2.445605
 H   -1.982434    3.268540   -2.059782
 H    3.810438   -1.386994   -1.466718
 H    5.116845   -1.883639    0.311877
 H    4.315793    0.776926    1.584733
 H    5.334727   -0.452815    2.334455
 H    6.757085    1.219324    1.579197
 H    5.237679    2.363611   -0.031355
 H    5.595387    1.125550   -1.234817
 H    7.664220    2.964546    0.065626
 H    7.061419    3.100285   -1.583098
 H    8.001237    0.873240   -2.147603
 H    9.275036    1.912919   -1.518602
 H    9.373057   -0.390802   -0.515824
 H    9.090752    0.836916    0.714152
 H    6.951620   -0.932189   -0.574081
 H    7.567942   -1.095117    1.073714
 H    2.141355   -0.243175    1.504974
 H    1.277651   -2.954218    2.252870
 H    0.386666   -0.353376    3.620474
 H    1.182018   -1.778448    4.358152
 H   -2.659928   -1.720402    3.355513
 H   -0.982382   -3.369636    1.582425
 H   -1.612994   -1.919474   -0.895438
 H   -1.683066   -4.447395   -0.868851
 H   -2.908597   -4.373742    0.401794
 H   -4.471120   -3.224136   -1.148944
 H   -4.010816   -3.153860   -3.586755
 H   -2.844889   -2.135977   -2.733770
 H   -2.363876   -3.740630   -3.320272
 H   -4.979960   -5.226415   -2.532961
 H   -3.360999   -5.871319   -2.216386
 H   -4.521548   -5.698565   -0.887035
 H   -3.169662   -0.426250   -1.012406
 H   -0.545624    2.266754    2.552601
 H   -2.469777    0.722751    2.689335
 H   -4.697718    3.285141    0.050265
 H   -4.750145    0.236798    2.263151
 H   -5.816717    1.397266    1.463969
 H   -5.663885   -0.812357    0.377278
 H   -6.875687    1.573442   -1.781741
