50 
3q77_ligand_ani.xyz
 C   -0.913076   -1.088834   -1.321809
 F   -6.702686   -1.397685    0.085002
 N   -1.146025   -0.042945   -0.423597
 O   -1.719237   -1.979863   -1.507922
 C    1.438406   -0.241843   -1.574007
 F   -6.908402    0.738028    0.331076
 N    0.285990   -1.032674   -1.979921
 O    2.983033    2.099818   -1.346054
 C    0.982313    0.950511   -0.790630
 F   -6.007731   -0.062085   -1.474358
 N    6.259190   -3.907481    1.787927
 O    1.933621    2.651275    0.562233
 C   -0.296921    1.071200   -0.352979
 C   -2.344229   -0.123922    0.373517
 C   -3.583790   -0.173078   -0.250834
 C   -4.740121   -0.166858    0.520173
 C   -4.668782   -0.147126    1.910722
 C   -3.424636   -0.122255    2.531892
 C   -2.264412   -0.101892    1.766811
 C   -6.087958   -0.220144   -0.141909
 C    2.498157   -1.078577   -0.845398
 C    3.807963   -1.117299   -1.324269
 C    4.786350   -1.843590   -0.657356
 C    4.451303   -2.545492    0.503663
 C    3.136882   -2.517134    0.982591
 C    2.168559   -1.786849    0.307503
 C    5.455898   -3.300936    1.213959
 C    2.048133    1.953830   -0.572335
 C    2.952736    3.631596    0.853475
 C    4.363742    3.055512    1.041730
 C   -0.912990    2.320459    0.199415
 O    5.177193    3.196555   -0.092111
 H    1.934615    0.118622   -2.484323
 H    0.476540   -1.878810   -2.496508
 H   -3.633906   -0.218179   -1.333083
 H   -5.582942   -0.152356    2.495603
 H   -3.357164   -0.106779    3.614883
 H   -1.286923   -0.063328    2.240844
 H    4.068436   -0.564586   -2.224475
 H    5.806904   -1.868949   -1.027074
 H    2.882910   -3.066971    1.883577
 H    1.151383   -1.767696    0.688882
 H    2.590796    4.091672    1.776165
 H    2.979743    4.386626    0.058609
 H    4.857478    3.618326    1.842522
 H    4.288326    2.006267    1.373802
 H   -1.991976    2.329151    0.011193
 H   -0.775779    2.364460    1.286087
 H   -0.463484    3.216942   -0.231490
 H    4.712265    2.747007   -0.814282
