81 
3qaa_ligand_xtb.xyz
 C    5.057253    0.224702   -1.247121
 C    5.230731   -1.143143   -1.040559
 C    4.348924   -1.830127   -0.224094
 C    3.304517   -1.167056    0.388759
 C    3.123229    0.192751    0.197351
 C    3.995395    0.883171   -0.616970
 S    2.155071   -2.119542    1.371854
 O    1.684325   -1.333018    2.485707
 O    2.757005   -3.387476    1.658998
 N    0.840891   -2.392458    0.402178
 C    1.076704   -3.226544   -0.752762
 C   -0.023299   -4.278772   -0.946577
 C   -0.031859   -5.245531    0.233091
 C    0.199139   -5.023567   -2.260086
 C   -0.167401   -1.357038    0.307336
 C   -1.339758   -1.653103    1.261510
 O   -1.088530   -1.162619    2.555719
 C   -2.689496   -1.041939    0.815433
 N   -2.615329    0.404278    0.708826
 C   -2.042705    1.104953   -0.282572
 O   -1.612863    0.687128   -1.329840
 O   -2.051134    2.435043    0.044050
 C   -1.278937    3.265565   -0.796372
 C   -1.743306    4.726892   -0.754685
 O   -0.609075    5.460482   -1.171387
 C    0.533980    4.857483   -0.641191
 O    0.919321    5.469554    0.571534
 C    1.245649    4.478676    1.518839
 C    0.334287    3.278129    1.198734
 C    0.182422    3.387581   -0.325084
 C   -3.258403   -1.678859   -0.460534
 C   -5.721080   -1.835102    0.005727
 C   -7.024187   -1.406413   -0.171985
 C   -7.298192   -0.359453   -1.035705
 C   -6.263251    0.252864   -1.721291
 C   -4.960514   -0.179708   -1.544724
 C   -4.676222   -1.227789   -0.679801
 O    5.851485    0.998521   -2.022598
 C    6.956363    0.409923   -2.670425
 O    0.869105    2.027812    1.541048
 C    0.844908    1.749995    2.928195
 H    6.043791   -1.678159   -1.504105
 H    4.474604   -2.884963   -0.038332
 H    2.319362    0.709332    0.694530
 H    3.882426    1.942879   -0.781809
 H    1.171452   -2.609213   -1.657530
 H    2.025000   -3.734804   -0.572569
 H   -0.986639   -3.761169   -0.995200
 H   -0.877390   -5.926517    0.166854
 H    0.885804   -5.828431    0.246830
 H   -0.089593   -4.696293    1.169064
 H    0.170293   -4.337702   -3.103777
 H   -0.573722   -5.774657   -2.402519
 H    1.165624   -5.522369   -2.253232
 H   -0.513667   -1.289761   -0.723467
 H    0.265206   -0.392478    0.585429
 H   -1.472208   -2.747541    1.302804
 H   -0.136171   -1.262070    2.737389
 H   -3.386212   -1.237169    1.638387
 H   -2.795522    0.920624    1.554714
 H   -1.312002    2.875198   -1.820289
 H   -2.040143    4.994167    0.267385
 H   -2.554946    4.951981   -1.444660
 H    1.334283    4.985790   -1.383206
 H    2.297371    4.171753    1.414278
 H    1.085539    4.905698    2.509280
 H   -0.641945    3.413378    1.688667
 H    0.839077    2.666037   -0.808717
 H   -3.227987   -2.763154   -0.339524
 H   -2.647551   -1.395240   -1.315229
 H   -5.511315   -2.654564    0.678881
 H   -7.828307   -1.890794    0.362692
 H   -8.315388   -0.024547   -1.175865
 H   -6.471890    1.068482   -2.398196
 H   -4.154563    0.294800   -2.084232
 H    6.641956   -0.365944   -3.374934
 H    7.663573   -0.013313   -1.950917
 H    7.439076    1.218136   -3.217084
 H   -0.179336    1.789077    3.312617
 H    1.467905    2.457457    3.483638
 H    1.237632    0.741333    3.044789
