15 
3qbc_ligand_ani.xyz
 O    1.362544    2.621155    0.000334
 C    1.335783    1.401674    0.000601
 C    0.054137    0.640499    0.002486
 N   -1.237404    1.041877    0.000262
 N    2.475105    0.649310   -0.001267
 C    2.470566   -0.708431   -0.000888
 N    3.511520   -1.454019   -0.007558
 N    1.244841   -1.427379    0.007636
 C    0.076757   -0.765909    0.005003
 N   -1.173409   -1.262648    0.004209
 C   -1.905962   -0.120796    0.000995
 S   -3.667498   -0.109879   -0.002612
 H    4.330659   -0.851939   -0.014016
 H    1.303209   -2.431578    0.005202
 H   -3.786512   -1.439868   -0.024217
