79 
3qbh_ligand_ani.xyz
 S   -2.161190    3.515219   -1.220618
 C   -0.549356    2.742796   -1.127539
 C   -0.206600    2.425803    0.327708
 C   -1.227958    1.482042    0.979961
 C   -2.651475    2.054482    1.066788
 C   -3.188019    2.341050   -0.341235
 C   -3.627510    1.137723    1.840821
 C   -3.915614   -0.196337    1.183239
 C   -3.020211   -1.266767    1.273711
 C   -3.228095   -2.485295    0.628030
 C   -4.405164   -2.634955   -0.115394
 C   -5.328310   -1.597881   -0.204765
 C   -5.079734   -0.392188    0.438668
 O   -4.599260   -3.830373   -0.755908
 C   -2.194949   -3.587140    0.717900
 C   -0.981504   -3.421834   -0.215660
 N   -0.236901   -2.196061    0.000540
 C   -0.093607   -1.453581   -1.131973
 O   -0.720941   -2.068249   -2.163167
 C   -1.326250   -3.291558   -1.714615
 O    0.499550   -0.397158   -1.226565
 C    0.554092   -1.925416    1.186385
 C    2.055367   -2.089805    0.953654
 C    2.890824   -1.657219    2.153641
 O   -0.665439    1.218231    2.267119
 N    1.107764    1.745385    0.446927
 C    2.306445    2.568455    0.195845
 C    3.556588    1.738872    0.405612
 C    3.924157    0.773264   -0.535773
 C    5.044985   -0.042972   -0.354387
 C    5.801577    0.117771    0.809457
 C    5.446576    1.071364    1.756682
 C    4.331143    1.879329    1.556702
 C    5.417743   -1.079706   -1.401450
 C    5.374979   -2.502207   -0.831349
 C    6.791092   -0.790597   -2.021330
 O   -2.100594    4.730893   -0.408197
 O   -2.584659    3.561914   -2.613769
 H   -0.543963    1.836979   -1.745137
 H    0.134755    3.479844   -1.560886
 H   -0.181191    3.357560    0.901984
 H   -1.236580    0.552281    0.385260
 H   -2.593097    3.004775    1.613060
 H   -3.246492    1.435413   -0.958405
 H   -4.178857    2.805337   -0.313963
 H   -3.242965    0.984631    2.858550
 H   -4.570339    1.683979    1.962743
 H   -2.106449   -1.143990    1.856730
 H   -6.240554   -1.732362   -0.785693
 H   -5.802970    0.417424    0.349502
 H   -5.451837   -3.804116   -1.206973
 H   -1.815402   -3.640395    1.746389
 H   -2.659250   -4.552716    0.500674
 H   -0.327680   -4.292415   -0.049988
 H   -0.913029   -4.111622   -2.305498
 H   -2.400834   -3.221012   -1.896450
 H    0.329842   -0.908780    1.528927
 H    0.221280   -2.605324    1.978781
 H    2.263217   -3.139711    0.703302
 H    2.335982   -1.497012    0.073385
 H    3.960629   -1.768405    1.946592
 H    2.720363   -0.600962    2.398740
 H    2.655132   -2.253024    3.043670
 H   -1.220644    0.565394    2.706976
 H    1.132463    1.383110    1.419852
 H    1.123598    0.913406   -0.179277
 H    2.301755    3.437823    0.862441
 H    2.279017    2.943791   -0.833382
 H    3.319451    0.631152   -1.433160
 H    6.677057   -0.503964    0.989716
 H    6.045172    1.184191    2.657223
 H    4.055676    2.622835    2.301484
 H    4.666402   -1.011273   -2.199081
 H    6.093091   -2.616189   -0.010800
 H    5.629317   -3.235580   -1.605181
 H    4.381668   -2.752345   -0.440424
 H    7.577471   -0.804009   -1.257522
 H    6.814011    0.190087   -2.508143
 H    7.041263   -1.550593   -2.770496
