42 
3qbn_ligand_dft.xyz
 N    3.116073   -2.437991    0.072592
 C    2.127688   -1.523988    0.055063
 N    2.265914   -0.198134    0.107326
 C    3.505796    0.292620    0.165374
 C    4.611759   -0.583582    0.187537
 C    4.346671   -1.937654    0.141850
 C   -7.900644    1.563297    0.879922
 C   -0.643168   -0.099435   -0.049293
 C   -1.488557   -2.343322   -0.207199
 C   -1.942097    0.376737   -0.127352
 C   -2.792899   -1.864480   -0.284856
 C   -6.620939    0.120775   -0.428843
 C   -5.384839   -0.748391   -0.406893
 C    1.728086    2.817945   -0.937023
 C    2.668767    3.862276   -0.401007
 N    0.876473   -2.066005   -0.019841
 N    3.652939    1.640761    0.191643
 O   -6.808990    0.684089    0.840768
 O   -4.255957    0.091426   -0.320535
 C   -0.398535   -1.479310   -0.090390
 C   -3.028772   -0.491132   -0.246186
 C    2.542531    2.536190    0.293653
Cl    6.247974    0.020251    0.271428
 H    5.166934   -2.651971    0.160390
 H   -7.764969    2.409790    0.188588
 H   -8.843633    1.054326    0.622233
 H   -7.971742    1.945955    1.900146
 H    0.186709    0.586317    0.043217
 H   -1.323029   -3.417840   -0.239738
 H   -2.136940    1.443997   -0.093937
 H   -3.605521   -2.576041   -0.374513
 H   -7.488105   -0.500246   -0.713893
 H   -6.502234    0.903178   -1.195927
 H   -5.347222   -1.351737   -1.326235
 H   -5.432092   -1.426894    0.455798
 H    2.014279    2.292038   -1.841167
 H    0.660002    2.963508   -0.811502
 H    2.255740    4.733890    0.096062
 H    3.581782    4.047993   -0.959180
 H    0.905025   -3.074803   -0.051374
 H    4.573852    1.999729    0.393823
 H    2.010310    2.508722    1.242875
