60 
3qc4_ligand_dft.xyz
 C   -1.466314   -2.485901    1.471815
 F    2.467703    0.549108   -2.532313
 N    0.179946   -3.678095    0.182039
 O   -1.101124   -2.126487   -0.872068
 C   -1.089098   -3.218136    2.564248
 C   -0.085017   -4.207805    2.482956
 C    0.531368   -4.393230    1.285023
 C   -0.834848   -2.709350    0.186323
 C    0.923651   -3.852009   -1.075662
 C    2.010314   -2.812685   -1.238533
 C    3.293734   -3.048409   -0.745791
 C    4.292153   -2.083383   -0.851568
 C    3.997571   -0.877066   -1.460586
 C    2.721359   -0.641323   -1.957281
 C    1.724921   -1.589259   -1.850903
 F    4.923430    0.077457   -1.582802
 C    2.162593    3.150547    1.550198
 C    1.989496    2.465564    0.333850
 C    0.753830    1.990806   -0.059200
 C   -0.332589    2.226244    0.794841
 C   -0.172085    2.924028    1.993694
 C    1.089795    3.388471    2.383568
 N    3.516616    3.459996    1.637780
 N    3.238168    2.395011   -0.262109
 O   -1.524087    1.734355    0.357580
 C   -2.603815    1.643915    1.265077
 C   -3.569365    0.567542    0.750493
 C   -4.271144    0.945282   -0.538104
 C   -5.638784    1.218789   -0.522750
 C   -6.307511    1.583087   -1.688061
 C   -5.612194    1.672488   -2.889186
 C   -4.246675    1.399578   -2.915436
 C   -3.579189    1.041658   -1.749271
 C    4.209848    3.002737    0.525474
 O    5.395973    3.110666    0.293586
 N   -2.857178   -0.690428    0.609824
 C   -2.473379   -1.388538    1.700313
 O   -2.882129   -1.149135    2.833850
 H   -1.582787   -2.996928    3.505629
 H    0.207564   -4.794135    3.344360
 H    1.328049   -5.114751    1.141336
 H    1.353254   -4.856656   -1.063727
 H    0.200100   -3.792515   -1.888799
 H    3.526185   -3.998025   -0.271537
 H    5.292938   -2.250977   -0.469993
 H    0.729251   -1.371602   -2.218751
 H    0.606375    1.451679   -0.987100
 H   -1.022639    3.122088    2.634491
 H    1.209674    3.922756    3.320500
 H    3.979023    3.957659    2.379266
 H    3.457813    1.971063   -1.148654
 H   -2.248106    1.331003    2.253283
 H   -3.117275    2.610710    1.355086
 H   -4.318441    0.430478    1.536733
 H   -6.188845    1.141036    0.411911
 H   -7.373257    1.789830   -1.656116
 H   -6.130519    1.952098   -3.801648
 H   -3.696766    1.470007   -3.849363
 H   -2.510987    0.851789   -1.777645
 H   -2.384481   -0.908135   -0.262780
