60 
3qc4_ligand_xtb.xyz
 C   -1.314813   -2.537599    1.575638
 F    3.166074    0.340673   -1.587745
 N    0.348622   -3.734866    0.335791
 O   -0.886144   -2.185730   -0.746252
 C   -0.948418   -3.243529    2.688796
 C    0.070680   -4.207171    2.636730
 C    0.695276   -4.415570    1.447067
 C   -0.652951   -2.762347    0.314535
 C    1.062915   -3.981924   -0.910712
 C    2.301512   -3.126892   -0.996643
 C    3.563454   -3.664413   -0.783542
 C    4.691728   -2.865108   -0.843672
 C    4.558751   -1.515119   -1.111720
 C    3.296855   -0.970944   -1.320838
 C    2.171983   -1.768867   -1.265071
 F    5.649822   -0.738602   -1.173548
 C    1.463282    4.170978    1.133830
 C    1.587728    3.160621    0.161436
 C    0.549842    2.298865   -0.111456
 C   -0.637706    2.457547    0.609686
 C   -0.757636    3.457706    1.571961
 C    0.293510    4.325459    1.843446
 N    2.667995    4.845217    1.156783
 N    2.855905    3.264920   -0.360739
 O   -1.628418    1.578497    0.286323
 C   -2.790311    1.531744    1.083580
 C   -3.614728    0.296730    0.654032
 C   -4.275138    0.503667   -0.684367
 C   -5.656249    0.616175   -0.771163
 C   -6.269384    0.820483   -1.995223
 C   -5.506013    0.915232   -3.145785
 C   -4.127998    0.805914   -3.066116
 C   -3.514360    0.600509   -1.843395
 C    3.543537    4.298741    0.241298
 O    4.674150    4.656060    0.016464
 N   -2.756377   -0.865086    0.623615
 C   -2.374340   -1.488245    1.749317
 O   -2.843513   -1.249373    2.850722
 H   -1.466149   -3.031350    3.613079
 H    0.355985   -4.764316    3.512281
 H    1.493496   -5.134611    1.334019
 H    1.318621   -5.041239   -0.968466
 H    0.377389   -3.719990   -1.722107
 H    3.675715   -4.718505   -0.579783
 H    5.677514   -3.272332   -0.686606
 H    1.198230   -1.335486   -1.432902
 H    0.627031    1.522644   -0.853559
 H   -1.677373    3.577135    2.120444
 H    0.186064    5.096182    2.590188
 H    2.900958    5.625927    1.744828
 H    3.254148    2.665808   -1.063462
 H   -2.521336    1.416891    2.141431
 H   -3.394480    2.440389    0.956764
 H   -4.371458    0.129368    1.429994
 H   -6.255768    0.541169    0.124860
 H   -7.344880    0.904369   -2.050179
 H   -5.983604    1.074773   -4.101332
 H   -3.527966    0.882083   -3.961038
 H   -2.439546    0.529880   -1.785327
 H   -2.233296   -1.050212   -0.227584
