60 
3qc4_ligand_ani.xyz
 C   -1.242400   -2.438951    1.581589
 F    3.193366    0.336681   -2.023501
 N    0.390401   -3.714646    0.352996
 O   -0.847349   -2.164264   -0.761213
 C   -0.855459   -3.103304    2.719803
 C    0.168690   -4.073142    2.696347
 C    0.769378   -4.340072    1.507610
 C   -0.600458   -2.719515    0.315265
 C    1.156664   -3.960305   -0.877737
 C    2.371458   -3.055921   -1.012764
 C    3.631612   -3.484835   -0.599211
 C    4.737836   -2.642153   -0.674950
 C    4.573641   -1.359231   -1.162725
 C    3.319559   -0.925046   -1.572821
 C    2.219944   -1.759745   -1.513599
 F    5.615992   -0.519595   -1.246710
 C    1.555741    4.069965    1.083772
 C    1.646712    3.009498    0.172689
 C    0.561255    2.217235   -0.136779
 C   -0.641956    2.489695    0.517362
 C   -0.741506    3.542713    1.434448
 C    0.361549    4.348549    1.722256
 N    2.822620    4.644475    1.143053
 N    2.957761    2.975806   -0.282506
 O   -1.682589    1.681079    0.165904
 C   -2.810971    1.603631    1.026468
 C   -3.622791    0.343937    0.674006
 C   -4.431311    0.498443   -0.599868
 C   -5.824837    0.436687   -0.552698
 C   -6.584668    0.569297   -1.711673
 C   -5.953952    0.765660   -2.935729
 C   -4.563760    0.832041   -2.990931
 C   -3.806482    0.699939   -1.831731
 C    3.719305    3.975814    0.316629
 O    4.896768    4.214432    0.157111
 N   -2.775089   -0.824942    0.611207
 C   -2.312528   -1.407718    1.742383
 O   -2.744260   -1.120422    2.856720
 H   -1.366506   -2.844819    3.642814
 H    0.474670   -4.589430    3.600208
 H    1.576519   -5.060212    1.401320
 H    1.463559   -5.011406   -0.881523
 H    0.469038   -3.806430   -1.709957
 H    3.762116   -4.493839   -0.212560
 H    5.725779   -2.962771   -0.362525
 H    1.251874   -1.402042   -1.848833
 H    0.616911    1.402369   -0.852407
 H   -1.684845    3.746821    1.932864
 H    0.269747    5.162817    2.437000
 H    3.111600    5.418682    1.717504
 H    3.350184    2.267796   -0.888076
 H   -2.489022    1.522324    2.072296
 H   -3.436912    2.496798    0.910070
 H   -4.314220    0.181028    1.506601
 H   -6.322672    0.278228    0.402702
 H   -7.669475    0.517868   -1.656529
 H   -6.542155    0.868679   -3.844334
 H   -4.064413    0.984645   -3.944628
 H   -2.722683    0.769880   -1.880362
 H   -2.295313   -1.051212   -0.255654
