26 
3qce_ligand_ani.xyz
 C   -2.647334   -0.468230   -0.158408
 C   -3.771875    0.293848    0.063302
 S   -1.066976    0.253553   -0.479826
 C   -2.932404   -1.873425   -0.101028
 S   -5.162919   -0.701989    0.354309
 C   -3.800213    1.781594    0.041441
 C    0.014374   -1.212903   -0.457473
 C   -4.237727   -2.130062    0.165210
 O   -4.937796    2.412478    0.376887
 O   -2.826994    2.425415   -0.270485
 C    1.456789   -0.775285   -0.491148
 C    2.172218   -0.612002    0.691222
 C    2.085291   -0.494863   -1.703179
 C    3.493783   -0.176191    0.671920
 C    3.403563   -0.061550   -1.731964
 C    4.115578    0.099951   -0.546854
Cl    4.329624    0.011491    2.176116
Cl    5.758065    0.641112   -0.622657
 H   -2.200635   -2.657264   -0.258244
 H   -0.212085   -1.836382   -1.329349
 H   -0.186601   -1.790902    0.450478
 H   -4.702674   -3.101187    0.259229
 H   -5.658583    1.815438    0.627835
 H    1.714260   -0.819384    1.655217
 H    1.545734   -0.613171   -2.639794
 H    3.894251    0.155151   -2.675379
