26 
3qcf_ligand_xtb.xyz
 C   -2.635595   -0.489896   -0.026767
 C   -3.754220    0.326158    0.034706
 S   -1.070743    0.228100   -0.226678
 C   -2.976594   -1.860328    0.091686
 S   -5.213940   -0.600132    0.238897
 C   -3.653104    1.766173   -0.066610
 C   -0.000436   -1.296715   -0.225988
 C   -4.311746   -2.055840    0.238232
 O   -4.778804    2.495589    0.002836
 O   -2.570177    2.288937   -0.211911
 C    1.417038   -0.855716   -0.363831
 C    2.168634   -0.562940    0.767100
 C    1.992787   -0.691006   -1.618702
 C    3.477723   -0.127564    0.648829
 C    3.298368   -0.256549   -1.742936
 C    4.049013    0.025281   -0.611589
Cl    4.390447    0.221392    2.066741
Cl    5.677353    0.560422   -0.771806
 H   -2.271292   -2.669329    0.069303
 H   -0.304801   -1.915948   -1.067570
 H   -0.161953   -1.813013    0.718018
 H   -4.829189   -2.988728    0.348196
 H   -5.567439    1.949672    0.122502
 H    1.737221   -0.670190    1.750167
 H    1.415675   -0.902305   -2.505753
 H    3.744732   -0.131061   -2.716447
