33 
3qch_ligand_xtb.xyz
 C    1.273860    1.780271   -0.035903
 C    1.219368    3.192927   -0.125565
 C    2.450413    3.764303   -0.077173
 S    3.722763    2.625812    0.077506
 C    2.577562    1.321878    0.082027
 S   -0.029090    0.638385   -0.057297
 C   -1.476991    1.787763   -0.290803
 C   -2.703390    0.948857   -0.413832
 C   -3.517681    0.724460    0.688202
 C   -4.141738   -0.458975   -1.737600
 C   -3.023963    0.344369   -1.624995
 C   -4.641539   -0.078088    0.580443
 C   -4.958186   -0.673542   -0.636984
Cl   -6.352269   -1.673356   -0.782778
Cl   -5.640013   -0.333596    1.960404
 C    2.876147   -0.083859    0.174617
 N    4.179024   -0.475132    0.295071
 O    1.966813   -0.902931    0.179522
 S    4.629462   -2.085981   -0.063505
 C    3.770875   -3.028013    1.196743
 O    4.160859   -2.419053   -1.367297
 O    6.039180   -2.100747    0.176509
 H    0.315588    3.764512   -0.218993
 H    2.685967    4.809522   -0.123564
 H   -1.298451    2.355489   -1.201965
 H   -1.529860    2.444465    0.574909
 H   -3.283260    1.173379    1.640752
 H   -4.388936   -0.927145   -2.677005
 H   -2.390420    0.499849   -2.484481
 H    4.920400    0.205625    0.250384
 H    2.715725   -2.806080    1.099115
 H    3.969994   -4.074843    1.007083
 H    4.165499   -2.724387    2.156420
