29 
3qck_ligand_ani.xyz
 C   -2.789615   -0.443680   -0.189339
 S   -1.188040    0.311059   -0.338505
 C   -0.085712   -1.133172   -0.482400
 C    1.349044   -0.666965   -0.500628
 C    2.154094   -0.791867    0.626541
 C    3.195406    0.360499   -1.672139
 C    1.881695   -0.084778   -1.650074
 C    3.473766   -0.348342    0.613024
 C    3.999633    0.230405   -0.542873
Cl    5.634939    0.794380   -0.609828
Cl    4.427680   -0.532827    2.045922
 C   -3.001339   -1.814002   -0.379467
 C   -4.271715   -2.364409   -0.267106
 C   -5.365138   -1.562711    0.038716
 C   -5.163964   -0.205150    0.242927
 C   -3.893391    0.366716    0.133246
 C   -3.756404    1.857518    0.284255
 O   -4.544872    2.424584    1.226947
 O   -3.027674    2.545692   -0.380327
 H   -0.312704   -1.668559   -1.411165
 H   -0.252516   -1.805597    0.364869
 H    1.769316   -1.236116    1.540999
 H    3.611286    0.812722   -2.566752
 H    1.264021    0.028479   -2.537532
 H   -2.179399   -2.477391   -0.623834
 H   -4.401612   -3.431531   -0.424751
 H   -6.359449   -1.990462    0.128569
 H   -6.017173    0.438409    0.453152
 H   -4.955428    1.744117    1.777866
