39 
3qi3_ligand_xtb.xyz
 C   -4.130655   -0.204181    0.118580
 C   -4.896762   -1.361541    0.180732
 C   -4.345653   -2.612422   -0.029718
 C   -2.995037   -2.730866   -0.307538
 F    4.492950    0.061442    0.176118
 C   -2.211048   -1.596166   -0.383548
 F    4.544070   -1.681340   -1.081664
 C   -2.769541   -0.340462   -0.174408
 F    2.949654   -0.258199   -1.285204
 N   -1.931080    0.785743   -0.262431
 N   -2.354432    1.951449   -0.780910
 C   -1.351998    2.794523   -0.747162
 C   -0.634340    0.877869    0.109711
 C   -0.214305    2.185000   -0.182657
 N    0.124778   -0.081508    0.695146
 C    1.329953    0.280960    0.987502
 N    1.827869    1.520945    0.742011
 C    1.125988    2.588687    0.137015
 O    1.673256    3.653208   -0.023010
 C    2.236413   -0.718073    1.649084
 C    2.923474   -1.669733    0.650751
 C    1.935647   -2.588993   -0.060804
 C    3.718987   -0.885855   -0.386822
 C   -4.761594    1.127552    0.370788
 H   -5.950189   -1.275170    0.404537
 H   -4.968980   -3.492181    0.025177
 H   -2.553448   -3.701699   -0.473032
 H   -1.159583   -1.672754   -0.604749
 H   -1.461013    3.793925   -1.115904
 H    2.791573    1.732399    0.975723
 H    2.996174   -0.193895    2.231912
 H    1.631073   -1.327705    2.320238
 H    3.658821   -2.269062    1.199009
 H    2.455410   -3.225519   -0.773165
 H    1.426857   -3.215101    0.665810
 H    1.191949   -2.000289   -0.590488
 H   -5.755783    1.002036    0.792368
 H   -4.157908    1.719352    1.055772
 H   -4.838183    1.688672   -0.558120
