45 
3qk0_ligand_dft.xyz
 C    4.050681   -1.576831   -0.318344
 C    3.284971   -0.432982   -0.031030
 C    1.902468   -0.495587    0.103434
 C    5.678060   -0.114213   -0.238640
 C    8.894931    1.835688   -0.239470
 C   -0.897866   -1.083511    1.036131
 C   -2.920580   -2.019580    0.201342
 C   -5.113463    1.702428    0.050063
 C   -4.874598    1.635247   -2.325128
 C    7.401210    1.639816   -0.120369
 O    6.613814    2.534190    0.114052
 N    6.982743    0.335370   -0.299825
 N    5.413587   -1.365527   -0.429395
 S    4.331140    0.965385    0.097336
 C    3.411671   -2.810759   -0.468206
 C    2.036557   -2.876179   -0.332950
 C    1.269506   -1.729328   -0.049976
 C   -0.202563   -1.821700    0.078084
 C   -0.961275   -2.643105   -0.760058
 N   -2.287592   -2.751590   -0.685317
Cl   -4.667668   -2.174744    0.248820
 C   -2.285497   -1.150899    1.100240
 N   -2.987121   -0.354029    2.030910
 S   -3.019615    1.319532    1.775875
 O   -1.637886    1.756961    1.704423
 O   -3.951638    1.820830    2.766613
 C   -3.737760    1.514157    0.162277
 C   -5.691191    1.769962   -1.210175
 F   -5.429813    1.693620   -3.538622
 C   -3.502083    1.450144   -2.227281
 C   -2.926850    1.391281   -0.965269
 H    1.320997    0.399860    0.304929
 H    9.119131    2.892991   -0.101712
 H    9.422479    1.251745    0.522132
 H    9.252144    1.513866   -1.223328
 H   -0.377517   -0.448564    1.744168
 H   -5.719389    1.806488    0.943687
 H    7.656620   -0.393145   -0.494782
 H    4.001507   -3.696444   -0.678167
 H    1.539046   -3.837368   -0.421828
 H   -0.482852   -3.229621   -1.540236
 H   -3.923334   -0.683369    2.249849
 H   -6.756301    1.923224   -1.339483
 H   -2.905943    1.358361   -3.127692
 H   -1.855931    1.261659   -0.854607
