77 
3qkk_ligand_ani.xyz
 C    1.575784    2.739993   -2.315459
 C    1.458282    3.180219   -0.994859
 C    2.060073    2.465305    0.032146
 C    2.772914    1.298476   -0.248418
 C    2.851542    0.833519   -1.565318
 C    2.264649    1.571188   -2.595889
 O    3.382078    0.664515    0.799679
 C    3.664768   -0.746170    0.663127
 C    4.317016   -1.030336   -0.690984
 C    3.524559   -0.465816   -1.845809
 C    2.363439   -1.537595    0.821319
 N    1.743327   -1.278270    2.167347
 C    2.658634   -1.775902    3.235494
 C    3.976926   -1.011467    3.180203
 C    4.623050   -1.118899    1.796262
 O    0.986070    3.404414   -3.351270
 O    3.454303   -1.020832   -2.925462
 C    0.348717   -1.788410    2.257632
 C   -0.592659   -0.704919    1.738868
 O   -0.272608    0.469497    2.462336
 C   -2.070973   -1.068579    1.861152
 N   -2.866042   -0.167835    1.023638
 C   -3.588415    0.939461    1.657371
 C   -3.207211    2.294769    1.076306
 C   -2.243277   -1.550416   -1.248856
 C   -2.067824   -2.946755   -1.356205
 C   -0.900031   -3.411077   -1.966012
 C    0.049476   -2.540864   -2.482104
 C   -0.173307   -1.177332   -2.407076
 C   -1.313208   -0.643684   -1.799337
 C   -1.442948    0.852995   -1.731663
 C   -3.048573   -3.975146   -0.849607
 S   -3.623578   -0.861011   -0.313194
 O   -4.236895    0.209823   -1.088780
 O   -4.485568   -1.930201    0.169387
 O   -1.857669    2.580625    1.421487
 C   -1.970162    5.032325    1.609156
 C   -1.370599    3.818344    0.915322
 H    0.891103    4.089655   -0.791137
 H    2.006188    2.795439    1.066905
 H    2.329585    1.215200   -3.619251
 H    5.311012   -0.564347   -0.707247
 H    4.446678   -2.105166   -0.833779
 H    2.571520   -2.612161    0.733288
 H    1.654533   -1.274466    0.031436
 H    1.648851   -0.245340    2.274584
 H    2.175856   -1.654171    4.211194
 H    2.827147   -2.851266    3.081271
 H    3.789004    0.041681    3.419815
 H    4.656919   -1.399679    3.946077
 H    5.510851   -0.480391    1.736178
 H    4.948280   -2.154046    1.623597
 H    0.539889    4.179681   -2.988484
 H    0.121170   -2.009779    3.305847
 H    0.246219   -2.718555    1.684724
 H   -0.385656   -0.544333    0.666549
 H   -0.801263    1.199675    2.093729
 H   -2.384249   -0.972886    2.907881
 H   -2.238624   -2.105787    1.549290
 H   -4.669979    0.784465    1.575396
 H   -3.312383    0.938209    2.715987
 H   -3.876153    3.062777    1.489107
 H   -3.328567    2.272494   -0.013918
 H   -0.749427   -4.485080   -2.035123
 H    0.953457   -2.920345   -2.952401
 H    0.552132   -0.495161   -2.837678
 H   -1.230691    1.232250   -0.722772
 H   -2.446092    1.180211   -2.011767
 H   -0.715467    1.313914   -2.407093
 H   -3.107387   -3.964424    0.241059
 H   -2.732354   -4.974674   -1.162143
 H   -4.056645   -3.787414   -1.225403
 H   -3.038853    5.136601    1.396491
 H   -1.473886    5.943016    1.259966
 H   -1.835861    4.958284    2.692166
 H   -1.554390    3.861900   -0.170927
 H   -0.287748    3.790839    1.071212
