40 
3qnd_ligand_xtb.xyz
 C   -2.839787   -1.074296    0.942398
 C   -2.557715   -0.378730   -0.406344
 C   -2.569177    1.147202   -0.283876
 C   -1.327669    1.697566    0.434420
 C   -0.087702    1.112909   -0.263750
 C   -0.143417   -0.415933   -0.171879
 C    1.090974   -1.089886   -0.833765
 C    1.993190   -1.739680    0.227337
 C    3.251973   -2.316919   -0.424321
 C    1.694421    2.763890   -0.162039
 C    3.016043    3.108675    0.479416
 N    1.139905    1.622071    0.296988
 O   -2.321778   -0.783768    1.986030
 O   -3.672118   -2.105865    0.805621
 O   -3.482160   -0.727470   -1.369138
 O   -1.327485    3.098216    0.440442
 O   -1.296024   -0.894287   -0.843773
 O    0.736852   -2.087527   -1.752334
 O    2.349012   -0.790696    1.206852
 O    4.062893   -2.822729    0.619396
 O    1.152676    3.452226   -1.008350
 H   -3.472565    1.455372    0.241412
 H   -2.610783    1.548907   -1.298427
 H   -1.342416    1.381497    1.484974
 H   -0.120554    1.414980   -1.321915
 H   -0.185894   -0.701400    0.888285
 H    1.672505   -0.310454   -1.353016
 H    1.437784   -2.566569    0.695624
 H    2.960198   -3.098651   -1.131010
 H    3.778347   -1.518552   -0.965097
 H    2.827086    3.533390    1.463246
 H    3.529566    3.849529   -0.126333
 H    3.634356    2.222735    0.593201
 H    1.617084    1.040524    0.970957
 H   -3.807871   -2.551783    1.658210
 H   -3.570410   -1.688973   -1.405992
 H   -0.793529    3.422918   -0.302128
 H   -0.182913   -1.928845   -2.007625
 H    3.085410   -1.183457    1.696728
 H    4.823517   -3.269253    0.236439
