42 
3qpn_ligand_ani.xyz
 C   -7.167905   -1.071948   -0.644000
 C   -6.677545   -0.321354   -1.742475
 C   -5.451121    0.283668   -1.678994
 C   -4.654449    0.169102   -0.510430
 C   -5.140716   -0.581705    0.586293
 C   -6.415754   -1.199791    0.494227
 N   -3.441675    0.799025   -0.500116
 C   -2.704497    0.709607    0.579432
 C   -3.095704   -0.036297    1.727372
 C   -4.306080   -0.670958    1.729629
 C   -1.375438    1.421456    0.564259
 C   -0.203061    0.457461    0.406092
 O    0.971684    1.246789    0.325513
 C    2.144866    0.595315    0.146338
 C    2.284889   -0.766075    0.142535
 C    3.561448   -1.357443   -0.033087
 C    4.680423   -0.528083   -0.217211
 C    4.529058    0.885220   -0.222702
 C    3.293957    1.445966   -0.041731
 O    3.038102    2.776083   -0.023294
 C    4.136840    3.634054   -0.229796
 N    3.679582   -2.713584   -0.020462
 C    4.886076   -3.190795   -0.187871
 N    6.038036   -2.493591   -0.376163
 C    5.918627   -1.187500   -0.388546
 H   -8.144391   -1.543896   -0.714600
 H   -7.285397   -0.229185   -2.639384
 H   -5.047943    0.865348   -2.502550
 H   -6.782594   -1.774302    1.342800
 H   -2.430048   -0.085311    2.586904
 H   -4.639753   -1.243916    2.592572
 H   -1.228896    1.988391    1.491134
 H   -1.374184    2.124941   -0.272051
 H   -0.313049   -0.145260   -0.506700
 H   -0.141318   -0.222116    1.268593
 H    1.444101   -1.437708    0.271809
 H    5.414557    1.493257   -0.372395
 H    4.892859    3.512265    0.556609
 H    4.600074    3.460973   -1.209759
 H    3.737613    4.648516   -0.193021
 H    4.995545   -4.274428   -0.177659
 H    6.829464   -0.602894   -0.538882
