61 
3qpo_ligand_ani.xyz
 C    2.591477    2.808245    0.571338
 C    1.420103    2.094746    0.154832
 C    1.530742    0.782998   -0.237279
 C    3.810186    2.187021    0.546837
 C    3.940738    0.841211    0.125301
 C    2.787180    0.115043   -0.208489
 C    3.010205   -1.272192   -0.558884
 N    4.230185   -1.752002   -0.715100
 C    5.249428   -0.933938   -0.372730
 N    5.192525    0.299107    0.051745
 O    2.387283    4.090635    0.955109
 O    0.259813    2.792982    0.198721
 C    3.526985    4.822839    1.345646
 N    1.940729   -2.107686   -0.777458
 C    2.189079   -3.356614   -1.499820
 C    0.900866   -3.825677   -2.162155
 C   -0.220737   -3.972588   -1.135578
 C   -0.404804   -2.664224   -0.354052
 C    0.935712   -2.279822    0.274657
 C   -1.515984   -2.702771    0.674931
 C   -1.602911   -3.727320    1.619026
 C   -2.591511   -3.714037    2.598191
 C   -3.507805   -2.669229    2.655094
 C   -3.430977   -1.643617    1.718202
 C   -2.449898   -1.665719    0.731488
 C   -0.910584    2.121275   -0.245651
 C   -2.073499    3.092547   -0.103735
 C   -3.394488    2.505147   -0.555240
 N   -3.514131    1.178454   -0.505831
 C   -4.671743    0.634863   -0.885746
 C   -5.761290    1.371804   -1.331651
 C   -5.637040    2.756460   -1.379768
 C   -4.436972    3.332238   -0.986875
 H    0.669156    0.236222   -0.610238
 H    4.723820    2.697599    0.827197
 H    6.243012   -1.372359   -0.467007
 H    3.168705    5.817223    1.614641
 H    4.016939    4.365085    2.214805
 H    4.249192    4.906987    0.523061
 H    2.973458   -3.180457   -2.237884
 H    2.569621   -4.123883   -0.804052
 H    0.610990   -3.086258   -2.919837
 H    1.076801   -4.773054   -2.685696
 H   -1.160461   -4.251615   -1.624810
 H    0.027617   -4.788039   -0.441267
 H   -0.648221   -1.881600   -1.085724
 H    1.245780   -3.074495    0.978644
 H    0.843640   -1.366749    0.867876
 H   -0.886036   -4.547010    1.600695
 H   -2.642666   -4.523405    3.321998
 H   -4.275506   -2.655845    3.424064
 H   -4.131595   -0.811026    1.753543
 H   -2.430416   -0.861393   -0.000531
 H   -0.784987    1.807568   -1.291370
 H   -1.094553    1.225679    0.362435
 H   -1.858674    4.006303   -0.671303
 H   -2.146746    3.402673    0.947397
 H   -4.733751   -0.454516   -0.830531
 H   -6.677417    0.872539   -1.631007
 H   -6.463686    3.376667   -1.719277
 H   -4.300679    4.410971   -1.007290
