69 
3qps_ligand_ani.xyz
 C    4.191691   -0.031355   -1.706045
 C    4.337133    1.483358   -1.564850
 C    5.109344    1.824466   -0.292579
 O    5.192601    3.223593   -0.076938
 C    4.416873    1.219348    0.916026
 C    4.222542   -0.302213    0.792671
 C    3.534093   -0.890641    2.036686
 C    2.028779   -0.606045    2.120547
 O    1.759201    0.772324    2.371232
 C    1.305377   -0.994081    0.827902
 C    1.979013   -0.347331   -0.410842
 C    3.488458   -0.729300   -0.517405
 C    1.176631   -0.620931   -1.702419
 C   -0.329677   -0.303274   -1.606616
 O   -0.552867    1.102685   -1.610614
 C   -0.968531   -1.002179   -0.386592
 C   -0.161014   -0.578824    0.864773
 C   -1.020682   -1.031645    2.044381
 C   -2.474271   -0.855517    1.535270
 C   -2.382705   -0.503677    0.026943
 C   -0.970173   -2.522118   -0.596779
 C    3.665158   -2.243959   -0.723331
 C   -3.587388   -1.001322   -0.785670
 C   -3.482256   -0.613468   -2.267433
 C   -4.930096   -0.523707   -0.194999
 C   -5.143311    0.987334   -0.204914
 O   -6.684199    2.691737    0.376086
 C   -6.495468    1.356546    0.352930
 O   -7.334336    0.578859    0.741221
 H    3.686802   -0.291379   -2.642949
 H    5.200138   -0.463236   -1.780999
 H    3.353357    1.971047   -1.521249
 H    4.855248    1.896285   -2.440883
 H    6.123356    1.394066   -0.371486
 H    5.646237    3.610075   -0.836749
 H    3.454505    1.720060    1.056570
 H    5.010459    1.446054    1.811100
 H    5.232526   -0.737260    0.728301
 H    4.019866   -0.501627    2.942802
 H    3.673448   -1.978045    2.064303
 H    1.617941   -1.202565    2.952982
 H    2.331915    1.049057    3.098297
 H    1.363962   -2.087237    0.752640
 H    1.935658    0.739762   -0.238766
 H    1.575066   -0.013461   -2.523665
 H    1.291778   -1.667288   -2.006871
 H   -0.809820   -0.660659   -2.524488
 H    0.117891    1.507389   -1.045782
 H   -0.176061    0.520612    0.872512
 H   -0.822489   -2.081577    2.295386
 H   -0.813942   -0.440568    2.943401
 H   -3.046378   -1.779406    1.682893
 H   -3.005643   -0.069126    2.083720
 H   -2.336234    0.590692   -0.076176
 H   -1.517573   -2.786778   -1.508661
 H    0.039877   -2.926271   -0.702333
 H   -1.447312   -3.055053    0.233371
 H    4.731917   -2.494515   -0.756219
 H    3.212861   -2.839515    0.073713
 H    3.226062   -2.571194   -1.671913
 H   -3.613874   -2.098537   -0.713423
 H   -3.086474    0.402817   -2.385951
 H   -2.829953   -1.289127   -2.829194
 H   -4.465318   -0.651144   -2.751167
 H   -5.747547   -0.983612   -0.762371
 H   -5.052494   -0.889777    0.831187
 H   -5.074712    1.398609   -1.220153
 H   -4.383929    1.512731    0.386918
 H   -7.571430    2.829325    0.747528
