86 
3qs1_ligand_dft.xyz
 N   -0.359802   -2.271891   -0.310020
 C   -1.796312   -2.194104   -0.503505
 O   -1.708725   -0.111081   -1.744798
 C   -2.555547   -3.060563    0.522746
 O   -1.510923   -0.540505    1.735210
 C   -4.051827   -2.894599    0.423926
 C   -4.738840   -2.067417    1.316716
 C   -6.110111   -1.864868    1.187383
 C   -6.814497   -2.488071    0.160774
 C   -6.140045   -3.315463   -0.733487
 C   -4.769547   -3.515691   -0.601176
 C   -2.208128   -0.713669   -0.583154
 C   -1.846032    0.048490    0.706956
 N    0.208092    2.182014   -0.760283
 O    1.045710   -0.131520   -2.083156
 C    1.424559    2.230349   -1.526012
 C    2.659747    2.068182   -0.673510
 C    2.885495    2.511435    0.621956
 C    4.117738    2.237986    1.215067
 C    1.585542    1.083931   -2.567749
 C    3.635688    1.358959   -1.376353
 C    4.867149    1.102227   -0.789472
 C    5.101688    1.545671    0.511817
 C    3.112707    0.981814   -2.746017
 C    5.405904   -1.457667    2.518257
 O    0.024547   -3.946735   -1.809272
 C    4.123954   -1.044142    2.861651
 O    2.276903   -1.757118   -0.191421
 C    3.071774   -1.147183    1.954314
 C    1.684729   -0.682263    2.301958
 C    4.935288   -2.494264   -1.111297
 C    3.343816   -1.681676    0.691748
 C    4.632040   -2.053687    0.297400
 C    5.653937   -1.947025    1.242475
 C    0.426035   -3.128037   -0.999292
 C    1.919486   -3.044062   -0.691144
 C   -1.672429    2.064627    2.000173
 N   -1.921223    1.408668    0.711972
 O   -1.076833    3.198488   -2.329513
 S   -1.870502    3.845505    1.714137
 C   -2.901726    3.535730    0.215022
 C   -4.338016    3.165664    0.607813
 C   -2.904038    4.785773   -0.661954
 C   -2.219229    2.295343   -0.412627
 C   -0.978397    2.605076   -1.269105
 H    0.047912   -1.728672    0.437335
 H   -1.988129   -2.597363   -1.501939
 H   -0.739205   -0.247145   -1.808968
 H   -2.210764   -2.805059    1.525891
 H   -2.275074   -4.100666    0.322107
 H   -4.186331   -1.576746    2.114694
 H   -6.630205   -1.221180    1.891250
 H   -7.884120   -2.331102    0.058108
 H   -6.682258   -3.807071   -1.536030
 H   -4.245703   -4.162921   -1.301007
 H   -3.301149   -0.671659   -0.666145
 H    0.190042    1.567352    0.037448
 H    1.598107   -0.476950   -1.357432
 H    1.439880    3.188896   -2.058407
 H    2.115298    3.060595    1.158238
 H    4.311636    2.562518    2.232896
 H    1.047499    1.302150   -3.490514
 H    5.632484    0.547011   -1.325225
 H    6.051170    1.327794    0.989799
 H    3.407095   -0.016965   -3.083373
 H    3.455705    1.699558   -3.502348
 H    6.214347   -1.379869    3.238692
 H    3.931176   -0.631974    3.848397
 H    1.306564    0.016705    1.548344
 H    1.674310   -0.167551    3.266245
 H    0.970423   -1.509669    2.367125
 H    4.706676   -3.553317   -1.276062
 H    5.996718   -2.351536   -1.332381
 H    4.356911   -1.911010   -1.835184
 H    6.663112   -2.235183    0.959069
 H    2.439311   -3.264213   -1.625897
 H    2.177985   -3.812543    0.046777
 H   -0.660187    1.859193    2.360882
 H   -2.377583    1.682889    2.742871
 H   -4.800710    3.979456    1.172434
 H   -4.933458    2.989012   -0.296003
 H   -4.374516    2.258111    1.219035
 H   -3.415366    4.578374   -1.606129
 H   -3.437914    5.591011   -0.146548
 H   -1.895260    5.125032   -0.899729
 H   -2.918604    1.812030   -1.096377
