86 
3qs1_ligand_xtb.xyz
 N   -0.522262   -2.273990    0.000138
 C   -1.931861   -2.124388   -0.281553
 O   -1.854610   -0.102389   -1.638743
 C   -2.780932   -2.840008    0.787318
 O   -1.344079   -0.380507    1.812600
 C   -4.246867   -2.727216    0.488182
 C   -5.053451   -1.848247    1.200336
 C   -6.399268   -1.725668    0.901444
 C   -6.954265   -2.480332   -0.117595
 C   -6.158328   -3.359503   -0.832924
 C   -4.813977   -3.481634   -0.531973
 C   -2.280082   -0.627302   -0.411784
 C   -1.772192    0.165998    0.803027
 N    0.215038    1.986973   -0.881332
 O    0.880415   -0.412250   -2.018811
 C    1.402904    1.965228   -1.694788
 C    2.673224    1.899915   -0.895513
 C    2.976480    2.529244    0.294741
 C    4.230827    2.321832    0.850588
 C    1.501629    0.704238   -2.610374
 C    3.596031    1.067767   -1.524663
 C    4.846454    0.872816   -0.974479
 C    5.156504    1.508569    0.219193
 C    3.015484    0.498591   -2.787398
 C    5.635404   -1.242521    2.213315
 O   -0.123325   -4.032325   -1.371062
 C    4.424855   -0.718103    2.627237
 O    2.176819   -1.875852   -0.007903
 C    3.273162   -0.927868    1.885798
 C    1.963162   -0.338049    2.309156
 C    4.703361   -2.913563   -1.044020
 C    3.356723   -1.682721    0.713354
 C    4.577962   -2.176432    0.256251
 C    5.709137   -1.952136    1.031260
 C    0.248448   -3.227355   -0.546783
 C    1.687547   -3.210681   -0.016554
 C   -1.384702    2.232527    1.924821
 N   -1.832721    1.511259    0.746013
 O   -0.966199    3.323202   -2.256204
 S   -1.612861    3.999501    1.598989
 C   -2.769080    3.628782    0.207283
 C   -4.151567    3.316819    0.774549
 C   -2.839926    4.818487   -0.731735
 C   -2.150399    2.351026   -0.388526
 C   -0.914395    2.607546   -1.283020
 H   -0.178942   -1.744248    0.789624
 H   -2.111369   -2.591064   -1.256769
 H   -0.926646   -0.358752   -1.814242
 H   -2.556368   -2.406541    1.762448
 H   -2.480670   -3.890170    0.791631
 H   -4.621654   -1.260346    1.998766
 H   -7.015829   -1.040859    1.465614
 H   -8.004224   -2.385583   -0.351637
 H   -6.587569   -3.952514   -1.626952
 H   -4.195346   -4.170408   -1.088468
 H   -3.376482   -0.532724   -0.410868
 H    0.169235    1.282592   -0.161877
 H    1.447817   -0.774253   -1.314181
 H    1.373223    2.865621   -2.319414
 H    2.255126    3.173272    0.776390
 H    4.488384    2.803107    1.781923
 H    0.974076    0.859550   -3.554080
 H    5.570395    0.237170   -1.460968
 H    6.129777    1.362790    0.662295
 H    3.258322   -0.554014   -2.935211
 H    3.375539    1.055335   -3.655108
 H    6.524437   -1.083182    2.804695
 H    4.368256   -0.140538    3.537778
 H    1.564692    0.283568    1.508530
 H    2.089928    0.276944    3.195789
 H    1.228082   -1.111082    2.530747
 H    4.630390   -3.990550   -0.886861
 H    5.673288   -2.711562   -1.493726
 H    3.925112   -2.612301   -1.741218
 H    6.659202   -2.337190    0.690675
 H    2.290281   -3.862754   -0.655393
 H    1.690349   -3.621946    1.002604
 H   -0.327985    2.046365    2.139535
 H   -1.970130    1.920662    2.795057
 H   -4.508151    4.159048    1.362870
 H   -4.853220    3.139205   -0.038514
 H   -4.131873    2.434847    1.411389
 H   -3.407048    4.554051   -1.620812
 H   -3.330846    5.648297   -0.228174
 H   -1.850533    5.137024   -1.044237
 H   -2.885839    1.858444   -1.031243
