28 
3qs8_ligand_dft.xyz
 O   -2.112514   -2.790831   -0.195094
 O    0.007765   -2.181797   -0.293429
 C    3.901792    0.404426   -0.893745
 C    3.811211   -0.439464    0.210240
 C    2.808164    1.185447   -1.253062
 C   -2.716241    2.146803    0.081031
 C   -3.403147    1.177528   -0.642476
 C    2.634631   -0.496718    0.949200
 C    1.630746    1.128824   -0.511410
 C   -1.544739    1.809226    0.748756
 C   -2.905299   -0.116835   -0.690401
 C    0.266283    0.228815    1.450686
 C   -1.302236   -1.899232   -0.176025
 C    1.530969    0.290910    0.603255
 C   -1.015092    0.517213    0.694501
 C   -1.708583   -0.452883   -0.051463
 H    0.542689   -1.377987   -0.393476
 H    4.817381    0.445499   -1.475735
 H    4.654955   -1.061902    0.492274
 H    2.866834    1.840656   -2.117009
 H   -3.097385    3.161952    0.138472
 H   -4.326684    1.424562   -1.156337
 H    2.564557   -1.167158    1.802089
 H    0.779985    1.737146   -0.804697
 H   -1.024721    2.563290    1.334428
 H   -3.439660   -0.896831   -1.222385
 H    0.357544    0.960127    2.262753
 H    0.211739   -0.752680    1.933280
