59 
3qsb_ligand_dft.xyz
 C    6.321763   -0.337238   -0.849103
 F    7.514300   -0.361053   -1.464274
 C    5.222354   -0.889447   -1.488284
 C    3.991087   -0.858689   -0.844359
 C    3.851341   -0.287291    0.425937
 C    4.984841    0.259249    1.037856
 C    6.223292    0.239423    0.407742
 C    2.529113   -0.256413    1.098223
 C    1.671367   -1.361906    1.038232
 C    0.416830   -1.318534    1.627422
 C   -0.021298   -0.167323    2.285273
 C    0.836974    0.928396    2.370531
 C    2.099374    0.882220    1.786942
 C   -1.454441   -0.069046    2.736109
 O   -2.284437   -0.019052    1.569730
 N   -2.957495   -1.213832    1.353096
 C   -3.306909   -1.310402    0.128974
 C   -2.891718   -0.264681   -0.899687
 C   -3.472402    1.108142   -0.546460
 O   -4.650272    1.232586   -0.323503
 C   -2.556556    2.358051   -0.565709
 C   -1.320064    2.206100   -1.494351
 C   -0.559388    0.931851   -1.102900
 C   -1.377682   -0.334169   -1.168151
 O   -0.875369   -1.399948   -1.449388
 C   -2.179598    2.735141    0.800596
 N   -1.848945    3.085408    1.853182
 C   -0.388357    3.414815   -1.354448
 C   -1.814387    2.123507   -2.947673
 C   -4.145642   -2.482438   -0.287343
 C   -3.409467   -3.479297   -1.196613
 C   -2.283932   -4.215248   -0.474870
 H    5.337164   -1.326195   -2.474207
 H    3.117880   -1.267952   -1.344835
 H    4.901782    0.688770    2.031970
 H    7.107408    0.654058    0.879312
 H    1.992636   -2.264743    0.527572
 H   -0.246049   -2.176536    1.551699
 H    0.495117    1.840043    2.852897
 H    2.740936    1.758330    1.827850
 H   -1.637007    0.858353    3.283024
 H   -1.769849   -0.924827    3.338650
 H   -3.369591   -0.545647   -1.847965
 H   -3.195152    3.167400   -0.940428
 H   -0.196849    1.018051   -0.069764
 H    0.322265    0.789768   -1.735109
 H   -0.921721    4.349676   -1.560910
 H    0.038222    3.479130   -0.348961
 H    0.436949    3.332097   -2.069245
 H   -2.526944    1.306881   -3.111644
 H   -0.968577    1.960455   -3.623170
 H   -2.307901    3.055617   -3.243465
 H   -4.490889   -2.990800    0.618426
 H   -5.033119   -2.089171   -0.800202
 H   -2.996894   -2.958818   -2.069355
 H   -4.145798   -4.197872   -1.575111
 H   -1.812521   -4.949234   -1.135833
 H   -1.511160   -3.512174   -0.152389
 H   -2.662316   -4.743548    0.407676
