58 
3qsd_ligand_ani.xyz
 C    1.355996   -2.524567   -0.599002
 C    1.795341   -2.863587    0.825054
 C    3.262425   -2.529948    1.108212
 N    3.583136   -1.131364    0.898191
 C    4.219230   -0.705709   -0.212072
 O    4.629547   -1.459415   -1.094744
 C    4.423745    0.808612   -0.368131
 O    5.443906    1.026848   -1.301231
 C    3.134025    1.501597   -0.847129
 C    1.990255    1.382065    0.145685
 O    2.180008    1.362919    1.361193
 N    0.747649    1.276668   -0.387480
 C   -0.412545    0.949264    0.414909
 C   -1.267799   -0.028387   -0.398542
 O   -1.225067   -0.034493   -1.625580
 C   -1.246556    2.203283    0.809421
 C   -1.632314    3.049986   -0.412994
 C   -0.491451    3.022206    1.859199
 C   -2.671226    4.123920   -0.096234
 N   -2.097721   -0.875734    0.266446
 C   -3.000257   -1.719763   -0.502071
 C   -4.032014   -0.932049   -1.294220
 O   -4.362151    0.242163   -0.718654
 C   -3.678416   -2.595757    0.568713
 C   -3.616494   -1.733545    1.833917
 C   -2.272062   -1.014292    1.713271
 O   -4.566066   -1.341096   -2.294808
 H    2.014099   -2.988014   -1.342334
 H    0.334482   -2.870772   -0.789752
 H    1.370456   -1.442071   -0.772214
 H    1.652729   -3.936082    1.015174
 H    1.150990   -2.343390    1.551295
 H    3.514786   -2.798479    2.140087
 H    3.911347   -3.103994    0.440730
 H    3.176782   -0.436279    1.514531
 H    4.713582    1.234977    0.601930
 H    5.551340    0.177949   -1.765432
 H    3.372343    2.561288   -1.001392
 H    2.846454    1.099040   -1.827217
 H    0.621181    1.143091   -1.384241
 H   -0.054711    0.477229    1.335913
 H   -2.182108    1.831157    1.258456
 H   -0.725326    3.519042   -0.815051
 H   -2.010278    2.391848   -1.206687
 H   -1.119562    3.814005    2.278766
 H    0.399772    3.487675    1.424473
 H   -0.152743    2.387232    2.684699
 H   -3.579967    3.680118    0.326932
 H   -2.292492    4.861120    0.620163
 H   -2.958532    4.666493   -1.002723
 H   -2.457773   -2.317935   -1.237156
 H   -5.041737    0.629594   -1.294978
 H   -4.695062   -2.878987    0.280148
 H   -3.098864   -3.515549    0.700424
 H   -4.426437   -0.998937    1.824572
 H   -3.694857   -2.321404    2.751665
 H   -2.282572   -0.034884    2.200496
 H   -1.449481   -1.597452    2.151298
