40 
3qts_ligand_xtb.xyz
 C   -3.458167   -1.905880    1.052503
 N    1.615007    2.675689   -0.254134
 S    0.360940    0.431754   -0.151086
 C   -3.347385   -1.669190   -0.312938
 N   -0.090520    4.287082   -0.508283
 C   -2.910507   -0.421745   -0.757813
 N    3.091893    0.927727   -0.094931
 O   -2.528726    2.989012    0.449292
 C   -2.692647    0.328788    1.510366
 C   -3.130534   -0.903405    1.951021
 O   -3.642720   -2.571367   -1.289630
 C   -4.070759   -3.856269   -0.910748
 C   -2.580568    0.570868    0.145290
 C   -2.058213    1.903074   -0.339157
 C   -0.560266    1.906255   -0.279278
 C    0.288514    2.977605   -0.328000
 C    1.821707    1.400206   -0.166156
 C    3.619103   -0.347961    0.008381
 C    2.852581   -1.509233    0.076450
 C    3.470803   -2.742226    0.178411
 C    4.850022   -2.846154    0.215180
 C    5.618237   -1.694549    0.148733
 C    5.012559   -0.459669    0.046670
 H   -3.792862   -2.860096    1.427452
 H    0.599647    4.949235   -0.188918
 H   -1.030236    4.475011   -0.190983
 H   -2.825964   -0.256191   -1.820782
 H    3.772885    1.675938   -0.134298
 H   -3.483680    2.900198    0.539173
 H   -2.427002    1.105549    2.211553
 H   -3.216428   -1.095928    3.010284
 H   -3.309493   -4.376096   -0.320007
 H   -5.007435   -3.818494   -0.344630
 H   -4.235501   -4.397958   -1.840863
 H   -2.382616    2.059881   -1.385705
 H    1.777677   -1.458852    0.050756
 H    2.860781   -3.631857    0.229324
 H    5.323269   -3.812767    0.294548
 H    6.695952   -1.759393    0.176381
 H    5.615993    0.436037   -0.005259
