44 
3qtu_ligand_ani.xyz
 N    0.774662    3.967234    0.390990
 N    2.650784    2.613125    0.263022
 N   -1.300007    5.036508    0.472736
 N    4.996344   -3.471600   -0.513841
 N   -6.348795   -2.682410    1.413979
 C   -1.141346    2.660643   -0.048422
 C   -0.585062    3.912741    0.261704
 C    1.304675    2.788057    0.188740
 C    3.409953    1.426803    0.189366
 C   -2.567398    2.476702   -0.238285
 C   -3.235250    1.136177   -0.192582
 C    4.566797    1.442373   -0.595910
 C    5.363499    0.312073   -0.697689
 C    5.010095   -0.831913    0.010331
 C    3.875189   -0.853856    0.814402
 C    3.072942    0.275205    0.907649
 C   -4.542226    1.065485   -0.691188
 C   -5.245391   -0.127734   -0.666614
 C   -4.635542   -1.251931   -0.116547
 C   -3.340649   -1.202177    0.389798
 C   -2.640999   -0.002750    0.355817
 O   -3.287866    3.458351   -0.449790
 O    6.506257   -2.595872    1.273365
 O    7.002412   -2.044815   -1.154585
 O   -6.542104   -2.752825   -1.090394
 O   -4.564926   -3.855753    0.076886
 S    0.194190    1.507798   -0.227560
 S    6.058397   -2.257515   -0.068338
 S   -5.532940   -2.776745   -0.043229
 H    3.156487    3.487916    0.312708
 H   -0.777656    5.896342    0.522325
 H   -2.258200    5.026414    0.146578
 H    5.117908   -4.261189    0.113197
 H    5.141024   -3.737372   -1.482677
 H   -7.349731   -2.730431    1.255018
 H   -6.024240   -3.406009    2.046738
 H    4.832786    2.348385   -1.133413
 H    6.258133    0.305926   -1.311821
 H    3.618004   -1.751673    1.369882
 H    2.195397    0.264188    1.545963
 H   -4.991679    1.965689   -1.094395
 H   -6.250760   -0.194198   -1.071409
 H   -2.885664   -2.099461    0.796090
 H   -1.632973    0.040782    0.755771
