39 
3qtz_ligand_xtb.xyz
 N    1.149361   -3.154159   -0.101825
 N   -0.973257   -2.303432   -0.081386
 N    3.419922   -3.730985   -0.074335
 N   -5.867138    1.590347   -1.578339
 C    2.712784   -1.438855    0.133199
 C    2.455261   -2.808967   -0.024476
 C    0.365260   -2.118316   -0.021406
 C   -2.049978   -1.437109   -0.033294
 C    4.017159   -0.864576    0.125420
 C    4.135428    0.616870    0.234859
 C    3.395918    1.355425    1.153130
 C    3.553616    2.728001    1.232089
 C    4.441647    3.382736    0.396336
 C    5.181059    2.631832   -0.500696
 C    5.053068    1.260410   -0.588769
 C   -3.325071   -2.007291   -0.149754
 C   -4.452977   -1.215223   -0.113220
 C   -4.317285    0.151165    0.042900
 C   -3.071738    0.731326    0.165513
 C   -1.935007   -0.054993    0.128078
 O    5.021722   -1.568883   -0.005167
 O   -5.500244    2.377240    0.795217
 O   -6.915300    0.384870    0.378924
 F    6.054546    3.261545   -1.313128
 S    1.182743   -0.584846    0.166282
 S   -5.767600    1.179923    0.054059
 H   -1.211934   -3.283187   -0.184801
 H    3.188145   -4.683588   -0.287635
 H    4.369522   -3.373241   -0.105122
 H   -5.748242    2.580016   -1.721598
 H   -6.722643    1.259966   -1.994245
 H    2.717594    0.856443    1.828144
 H    2.980901    3.293563    1.951175
 H    4.573174    4.452365    0.437296
 H    5.650467    0.693692   -1.285532
 H   -3.418394   -3.077161   -0.266812
 H   -5.442725   -1.635059   -0.189853
 H   -3.005686    1.798101    0.303834
 H   -0.969868    0.410143    0.227778
