52 
3que_ligand_xtb.xyz
 O   -1.667272   -1.895071   -1.819256
 O   -9.157559   -1.460874    1.879661
 O   -7.278658    0.581645    2.207948
 F    8.163156    1.824752    2.148375
 F    6.967090   -1.910653   -0.451352
 C    5.881735    1.303661    1.855175
 C    2.186922   -2.328675   -0.643201
 C   -3.803823    2.374856   -0.745936
 C   -2.594266    2.624182   -1.359061
 C    4.908372    0.493617    1.301591
 C    0.876147   -2.130380   -0.990501
 C    7.605073   -0.050958    0.841643
 C    2.485766    0.046697   -0.614789
 C   -3.228358    0.053792   -0.573681
 C   -7.828600   -1.596853    1.463536
 C   -0.351213    1.879231   -2.223660
 C    0.754569    1.688875   -1.184410
 C   -5.796368   -0.381455    0.553146
 N    4.334861   -1.449178   -0.080865
 O   -5.358905    0.923617    0.229521
 C   -1.134325   -0.867965   -1.433351
 C    7.215439    1.031341    1.612455
 C    3.016125   -1.225496   -0.417989
 C    6.615238   -0.836501    0.296090
 C   -4.134508    1.078183   -0.351331
 C   -1.676946    1.606127   -1.584763
 C    1.159695    0.257703   -0.966831
 C    5.248748   -0.587011    0.484685
 C    0.317488   -0.850902   -1.136316
 C   -1.996411    0.317884   -1.169858
 C   -7.232961   -0.242636    1.062153
 H   -9.177560   -0.747189    2.530304
 H   -6.777093    1.380896    2.009295
 H    5.613445    2.138158    2.482521
 H    2.581774   -3.328573   -0.539194
 H   -4.515581    3.166793   -0.574304
 H   -2.359345    3.629388   -1.677619
 H    3.871437    0.679339    1.527189
 H    0.225404   -2.976198   -1.155530
 H    8.645132   -0.272962    0.669215
 H    3.138324    0.903032   -0.534738
 H   -3.445999   -0.966329   -0.299399
 H   -7.212043   -2.026532    2.266625
 H   -7.832003   -2.278019    0.610573
 H   -0.182021    1.205285   -3.066568
 H   -0.327453    2.904325   -2.596372
 H    0.417166    2.110727   -0.230977
 H    1.639780    2.251521   -1.489828
 H   -5.165625   -0.812246    1.342245
 H   -5.771353   -1.032287   -0.328391
 H    4.703722   -2.351975   -0.348012
 H   -7.848429    0.201768    0.264045
