52 
3que_ligand_ani.xyz
 O   -1.662536   -1.734387   -1.163159
 O   -9.232576   -1.943278    1.555629
 O   -7.618964    0.231137    1.913188
 F    8.439952    0.963153    2.571451
 F    7.100904   -1.456741   -1.242473
 C    6.147982    0.656922    2.139279
 C    2.343877   -1.979651   -1.189575
 C   -4.074282    2.470208   -0.518271
 C   -2.795228    2.823266   -0.911954
 C    5.140002    0.144672    1.326087
 C    0.977514   -1.816565   -1.254081
 C    7.828809   -0.241500    0.645140
 C    2.554799    0.329138   -0.575219
 C   -3.386781    0.166844   -0.488645
 C   -7.902392   -1.950418    1.099416
 C   -0.402869    2.338855   -1.478414
 C    0.653038    1.915519   -0.449759
 C   -5.982146   -0.515785    0.308633
 N    4.533452   -1.116440   -0.723037
 O   -5.649287    0.846050    0.093571
 C   -1.145825   -0.635967   -1.022378
 C    7.471180    0.464680    1.786540
 C    3.152803   -0.906347   -0.805294
 C    6.806341   -0.738171   -0.134142
 C   -4.370005    1.122423   -0.299775
 C   -1.782862    1.880245   -1.090370
 C    1.175822    0.514316   -0.672708
 C    5.447926   -0.550251    0.154059
 C    0.358887   -0.583081   -0.985570
 C   -2.084158    0.534255   -0.856864
 C   -7.436882   -0.548836    0.743402
 H   -9.270977   -1.267734    2.248376
 H   -7.222166    1.094254    1.731988
 H    5.907634    1.202608    3.045272
 H    2.793202   -2.947095   -1.404949
 H   -4.851810    3.214309   -0.377101
 H   -2.561652    3.873046   -1.080266
 H    4.103912    0.269280    1.624422
 H    0.334877   -2.650289   -1.512965
 H    8.867386   -0.404228    0.378176
 H    3.190682    1.177117   -0.334469
 H   -3.567315   -0.895884   -0.372935
 H   -7.221250   -2.372968    1.857240
 H   -7.868460   -2.596713    0.215811
 H   -0.129700    1.928297   -2.458134
 H   -0.409601    3.430082   -1.582226
 H    0.234320    2.005484    0.560780
 H    1.509832    2.599041   -0.493842
 H   -5.340472   -0.932767    1.097443
 H   -5.836430   -1.089232   -0.615846
 H    4.933749   -1.785173   -1.362510
 H   -8.064000   -0.158859   -0.074876
