15 
3qvu_ligand_dft.xyz
 C   -0.688408    0.000597   -0.000025
 C   -0.014167    1.218818    0.000097
 C    1.368839    1.225377    0.000122
 C    2.070653    0.014996    0.000003
 C    1.380065   -1.201149   -0.000123
 C   -0.006201   -1.209012   -0.000114
 O    3.419614    0.086699   -0.000001
 N   -2.148428   -0.006908   -0.000005
 O   -2.723119    1.072078   -0.000277
 O   -2.712510   -1.091885    0.000301
 H   -0.580867    2.141670    0.000168
 H    1.926236    2.155209    0.000242
 H    1.926002   -2.141139   -0.000235
 H   -0.563420   -2.137585   -0.000177
 H    3.794476   -0.802692    0.000086
