19 
3qvv_ligand_xtb.xyz
 C   -2.963537   -0.094595   -0.001561
 N    4.470762    1.053585   -0.006384
 O   -4.248542   -0.490660   -0.005038
 C   -2.705623    1.286160   -0.001168
 O    2.525769   -2.001484   -0.001199
 C   -1.415841    1.745255    0.001966
 O    0.387739   -1.447078    0.003472
 C   -0.334491    0.850359    0.003724
 C    1.027814    1.255585    0.003950
 C    2.019508    0.323920    0.001423
 C    3.379074    0.706113   -0.002262
 C    1.718433   -1.113343    0.000954
 C   -0.602276   -0.531370    0.003050
 C   -1.911013   -0.998014    0.001165
 H   -4.311377   -1.454749   -0.005491
 H   -3.545217    1.961573   -0.003716
 H   -1.212952    2.805117    0.002353
 H    1.266624    2.310202    0.005136
 H   -2.084432   -2.063890    0.001060
