19 
3qvv_ligand_ani.xyz
 C   -2.968109   -0.111110   -0.001718
 N    4.527437    0.981857   -0.006081
 O   -4.262403   -0.517345   -0.005073
 C   -2.735780    1.277041   -0.001206
 O    2.534572   -1.973421   -0.001815
 C   -1.443743    1.746965    0.001711
 O    0.388047   -1.430026    0.004527
 C   -0.346526    0.865080    0.003509
 C    1.028975    1.276751    0.003748
 C    2.013616    0.348442    0.001391
 C    3.404978    0.700457   -0.002348
 C    1.719032   -1.094735    0.000958
 C   -0.610210   -0.509026    0.003144
 C   -1.908196   -1.006374    0.001046
 H   -4.289043   -1.482754   -0.005165
 H   -3.589178    1.947782   -0.003443
 H   -1.255071    2.816936    0.002126
 H    1.287193    2.334220    0.005212
 H   -2.051924   -2.083795    0.001320
