78 
3qw5_ligand_ani.xyz
 N    1.431189    1.126968   -0.294610
 C    1.415895    0.429173   -1.597913
 C    1.459202   -1.089826   -1.397632
 O    1.685905   -1.858383   -2.330452
 C    2.495583    0.902291   -2.579115
 C    3.955883    0.512922   -2.303909
 C    4.774699    1.331143   -1.286057
 N    4.698091    2.779322   -1.467414
 C    3.752729    3.551883   -0.807274
 N    3.182807    3.302539    0.317515
 N    3.370133    4.680276   -1.530229
 N    1.217735   -1.514832   -0.134146
 C    1.179809   -2.929263    0.226752
 C   -0.227209   -3.453982   -0.089702
 O   -1.058036   -3.663833    0.792281
 C    1.509243   -3.092458    1.710830
 C    2.950497   -2.681849    2.039285
 C    3.133674   -2.007639    3.405774
 N    2.433830   -0.739967    3.584068
 C    2.716355    0.364478    2.792934
 N    3.685439    0.488471    1.952152
 N    1.795356    1.385912    2.926699
 N   -0.511721   -3.599718   -1.405213
 C   -1.894864   -3.753994   -1.825324
 C   -2.644916   -2.417697   -1.828762
 O   -3.021699   -1.888812   -2.862341
 N   -2.847762   -1.869812   -0.596612
 C   -3.317678   -0.513984   -0.465589
 C   -2.148333    0.466929   -0.293402
 O   -1.162866    0.199902    0.389025
 C   -4.277029   -0.383292    0.733154
 C   -4.871247    1.002749    0.829227
 C   -4.438896    1.905218    1.803024
 C   -5.804880    1.435518   -0.116491
 C   -4.937893    3.205321    1.842734
 C   -6.303806    2.734031   -0.082462
 C   -5.871263    3.622690    0.899426
 N   -2.299956    1.663271   -0.918707
 H    0.500170    1.041529    0.160290
 H    1.636575    2.135812   -0.401742
 H    2.194822    0.753425    0.303451
 H    0.446718    0.633718   -2.061973
 H    2.228388    0.460911   -3.542859
 H    2.401533    1.988916   -2.698807
 H    4.483986    0.580223   -3.265881
 H    3.990019   -0.547527   -2.021682
 H    4.507639    1.082749   -0.257709
 H    5.827693    1.039247   -1.395280
 H    4.830564    3.060504   -2.431429
 H    3.603503    2.490641    0.771937
 H    4.135890    5.179313   -1.965176
 H    2.800740    5.294669   -0.962113
 H    0.737159   -0.881600    0.492320
 H    1.910700   -3.441490   -0.411369
 H    0.791251   -2.486424    2.279586
 H    1.311665   -4.126296    2.008407
 H    3.316268   -1.993041    1.270039
 H    3.606357   -3.559108    1.992756
 H    4.201677   -1.846029    3.594563
 H    2.783223   -2.669066    4.205733
 H    1.447913   -0.836853    3.789975
 H    4.339763   -0.284462    2.031594
 H    2.110148    2.256954    2.511539
 H    1.401504    1.509736    3.848641
 H    0.157621   -3.216586   -2.068121
 H   -2.375318   -4.449298   -1.131138
 H   -1.927826   -4.162885   -2.836000
 H   -2.424201   -2.316113    0.211103
 H   -3.850925   -0.273081   -1.391573
 H   -3.720732   -0.624560    1.647586
 H   -5.061807   -1.138362    0.611797
 H   -3.697434    1.583474    2.533152
 H   -6.147372    0.744913   -0.887464
 H   -4.595058    3.893171    2.613094
 H   -7.032708    3.051685   -0.823660
 H   -6.262047    4.636916    0.927567
 H   -3.231831    1.968285   -1.165971
 H   -1.641987    2.395848   -0.684869
