84 
3qzq_ligand_ani.xyz
 C    1.772244    1.502591    0.987533
 C    2.758442    0.404896    1.313963
 O    0.885025    1.829367    1.748939
 C    2.257597   -0.968399    0.811246
 C    3.340587   -2.059166    0.934232
 C    4.629229   -1.714370    0.225094
 C    5.813925   -1.529393    0.942989
 C    7.002491   -1.180261    0.307861
 C    6.992993   -1.018944   -1.067666
 C    5.840841   -1.195509   -1.817520
 C    4.663617   -1.540915   -1.162119
 N   -0.174161   -1.295595    1.064645
 C   -1.345687   -1.862079    1.716533
 C   -2.615228   -1.079198    1.376171
 C   -2.565518    0.408407    1.705526
 C   -3.955183    1.040506    1.622294
 N   -3.963849    2.066552    2.519511
 O   -4.874772    0.688413    0.904968
 C   -1.461132   -3.373004    1.431398
 C   -1.528749   -3.762166   -0.044963
 C   -2.904825   -3.608408   -0.655389
 O   -2.839065   -3.532414   -1.994090
 O   -3.943174   -3.584096   -0.033557
 C    1.051310   -1.392937    1.646393
 O    1.200081   -1.806918    2.790527
 C   -4.095786   -3.435871   -2.692878
 C   -4.630688   -2.015031   -2.719207
 C    1.917319    2.167508   -0.399252
 N    0.611896    2.501880   -0.931013
 C   -0.221468    1.501273   -1.301334
 O    0.126688    0.328889   -1.416969
 C    2.869113    3.379602   -0.378933
 C    2.326053    4.554035    0.435496
 F    8.134852   -0.682043   -1.694992
 C    3.209124    3.813456   -1.805291
 C   -2.720661    2.218832    3.259080
 C   -2.077307    0.832536    3.095974
 C   -1.634354    1.909277   -1.540294
 C   -2.723377    1.052265   -1.836422
 C   -3.798654    1.888794   -1.873521
 O   -3.377072    3.146061   -1.632580
 N   -2.018637    3.159528   -1.413799
 C   -5.263362    1.693038   -2.075632
 H    3.714291    0.642448    0.832947
 H    2.907775    0.371002    2.396131
 H    1.954501   -0.870030   -0.239373
 H    3.528702   -2.229503    1.998674
 H    2.935732   -2.999840    0.536791
 H    5.804599   -1.654006    2.024283
 H    7.925112   -1.033897    0.861526
 H    5.877188   -1.059373   -2.894190
 H    3.755210   -1.682753   -1.746656
 H   -0.252130   -0.912891    0.127130
 H   -1.150802   -1.775863    2.792967
 H   -3.458028   -1.528994    1.910207
 H   -2.850621   -1.170100    0.309456
 H   -1.941414    0.927927    0.960850
 H   -4.725224    2.726823    2.556465
 H   -2.347187   -3.769240    1.940415
 H   -0.583159   -3.845064    1.885663
 H   -1.270685   -4.823956   -0.157617
 H   -0.802266   -3.203620   -0.644198
 H   -4.812170   -4.118026   -2.227835
 H   -3.866929   -3.783138   -3.702075
 H   -4.808566   -1.642373   -1.703347
 H   -3.931433   -1.343005   -3.228044
 H   -5.581454   -1.990726   -3.261152
 H    2.340113    1.410332   -1.071192
 H    0.168138    3.351204   -0.606403
 H    3.796123    3.035523    0.102940
 H    1.512089    5.067558   -0.091368
 H    1.952313    4.232245    1.412590
 H    3.115739    5.296411    0.597314
 H    3.901827    4.662021   -1.797060
 H    2.302815    4.118367   -2.340123
 H    3.678768    3.001268   -2.372372
 H   -2.081040    2.996053    2.813492
 H   -2.913892    2.486026    4.301639
 H   -0.986867    0.857584    3.167823
 H   -2.469338    0.149518    3.860646
 H   -2.689124   -0.021616   -1.958161
 H   -5.708398    1.349066   -1.136495
 H   -5.737490    2.624543   -2.387888
 H   -5.442348    0.921329   -2.830960
