48 
3r0t_ligand_xtb.xyz
 N    4.064230   -2.186434   -0.048737
 C    4.056905   -0.834095   -0.045899
 N    2.967072   -0.073628   -0.032277
 C    1.793687   -0.712560   -0.017299
 C    1.681730   -2.114623   -0.016777
 C    2.913221   -2.799688   -0.035166
 O   -4.551679   -3.575402    0.590377
 O   -3.873655   -5.407118   -0.453099
 F   -4.399768    3.347273    1.158759
 F   -4.473476    3.987941   -0.890534
 F   -4.212603    1.905534   -0.426562
 C   -0.503990    4.846530    0.027642
 C    0.359304    3.769365    0.027870
 C   -1.873605    4.646796   -0.004644
 C   -1.145983   -4.576648    0.038131
 C    0.135137   -4.081077    0.021520
 C   -1.511682    2.252267   -0.031750
 C   -2.033435   -2.338438    0.060387
 C    6.772256    1.677487   -0.643333
 C    6.574731    1.701921    0.845714
 N   -0.605821   -0.461114    0.014756
 N    0.773546    1.423052   -0.002470
 N    5.267977   -0.258473   -0.065755
 C   -3.651543   -4.197812    0.101364
 C   -0.132966    2.461666   -0.000868
 C   -2.244525   -3.703312    0.055232
 C   -2.360502    3.345868   -0.038383
 C    0.574687    0.079081   -0.001344
 C   -0.734951   -1.815500    0.023617
 C    0.371815   -2.701980    0.004982
 C    5.506586    1.142259   -0.048095
 C   -3.848690    3.137653   -0.054142
 H    2.963891   -3.880423   -0.037957
 H   -3.077618   -5.776869   -0.857121
 H   -0.109727    5.850614    0.052183
 H    1.427269    3.933243    0.051494
 H   -2.556151    5.481646   -0.008572
 H   -1.290232   -5.648393    0.082170
 H    0.968078   -4.767436    0.025294
 H   -1.891024    1.244061   -0.053251
 H   -2.874006   -1.663251    0.088587
 H    7.479593    0.969603   -1.047477
 H    6.730465    2.607772   -1.187296
 H    6.395178    2.648590    1.329914
 H    7.147557    1.009232    1.442654
 H    1.760206    1.662424    0.001672
 H    6.057642   -0.885750   -0.050217
 H    4.586022    1.693563   -0.176447
