87 
3r0w_ligand_ani.xyz
 C   -3.739348    0.232841   -1.492790
 C   -5.836526   -0.473497   -0.931289
 C   -6.330359    0.826474   -0.938478
 C   -2.299291   -0.116767   -1.776789
 C   -5.460403    1.867431   -1.244070
 C   -4.134534    1.563588   -1.530474
 O   -1.473380    0.756244   -2.024737
 N   -4.567523   -0.780263   -1.194356
 N   -2.036267   -1.442580   -1.736239
 C   -0.696169   -2.000301   -1.782870
 C   -0.532325   -3.052608   -2.889088
 C   -0.897522   -2.458316   -4.249331
 C    0.897150   -3.599796   -2.901905
 C   -0.423762   -2.583738   -0.384336
 O   -0.754412   -3.736046   -0.090114
 N    0.136419   -1.715779    0.478665
 C    0.385795   -1.942064    1.901277
 C   -0.914517   -2.206771    2.676862
 C   -1.814871   -0.993874    2.748198
 C   -1.444588    0.107281    3.526035
 C   -3.029281   -0.945327    2.063401
 C   -2.282568    1.208785    3.644774
 C   -3.876360    0.151984    2.187017
 C   -3.504999    1.232488    2.980167
 C    1.440171   -3.037293    2.187918
 O    0.937229   -4.343474    2.057205
 C    2.717942   -2.863996    1.352146
 C    3.283854   -1.456042    1.447468
 O    3.169930   -0.769638    2.450305
 C    2.552234    0.970108   -0.215400
 N    3.929655   -0.979590    0.328834
 O    1.756514    0.267053   -0.827602
Cl    6.591749    0.519514   -0.647625
 C    3.960636    0.454239    0.131973
 C    4.881940    0.832015   -1.026284
 N    2.234344    2.240239    0.172911
 C    1.100520    2.876128   -0.491845
 C    1.492787    3.090333   -1.968663
 O    2.591988    3.539889   -2.254130
 C    0.744579    4.214652    0.162229
 C   -0.103124    4.129107    1.448829
 C   -1.531263    3.656652    1.150668
 C    0.526106    3.277587    2.554568
 N    0.539828    2.782579   -2.885566
 H   -6.494504   -1.309296   -0.690240
 H   -7.374873    1.009080   -0.705559
 H   -5.812526    2.896474   -1.261356
 H   -3.401366    2.322434   -1.783746
 H   -2.811429   -2.043813   -1.487251
 H   -0.020183   -1.157764   -1.972091
 H   -1.216788   -3.879144   -2.656886
 H   -1.941790   -2.134171   -4.284299
 H   -0.740729   -3.195482   -5.044309
 H   -0.264167   -1.588362   -4.472476
 H    1.149381   -4.084302   -1.953137
 H    1.624041   -2.796257   -3.082663
 H    1.015608   -4.342027   -3.698520
 H    0.527065   -0.868420    0.073854
 H    0.814349   -0.996689    2.250067
 H   -1.436696   -3.049505    2.214985
 H   -0.638934   -2.516978    3.695061
 H   -0.493159    0.092949    4.055227
 H   -3.316503   -1.784080    1.429570
 H   -1.981678    2.051993    4.264396
 H   -4.829020    0.158940    1.663320
 H   -4.162147    2.094529    3.078497
 H    1.720151   -2.914377    3.242195
 H    0.341977   -4.354716    1.282119
 H    3.462862   -3.580444    1.719385
 H    2.515947   -3.128297    0.306129
 H    3.826455   -1.522609   -0.518621
 H    4.299992    0.920229    1.061316
 H    4.776555    1.892837   -1.278218
 H    4.627058    0.247545   -1.915881
 H    3.016020    2.860467    0.346515
 H    0.256369    2.180882   -0.426076
 H    1.683371    4.750586    0.360075
 H    0.188518    4.824933   -0.561869
 H   -0.171842    5.162571    1.819357
 H   -1.981092    4.233211    0.334053
 H   -2.174755    3.768679    2.031560
 H   -1.552364    2.595965    0.867795
 H   -0.020934    3.405127    3.496311
 H    1.569826    3.552055    2.737902
 H    0.492913    2.209858    2.296895
 H   -0.230613    2.168516   -2.647646
 H    0.830334    2.802859   -3.852773
