87 
3r0w_ligand_dft.xyz
 C    3.652181   -1.489791   -1.190167
 C    5.569193   -0.586415   -2.043656
 C    6.364577   -1.376717   -1.215954
 C    2.144846   -1.504340   -1.165698
 C    5.742373   -2.261597   -0.342143
 C    4.353764   -2.323963   -0.327376
 O    1.532168   -2.277097   -0.430500
 N    4.238438   -0.635148   -2.034128
 N    1.575768   -0.604962   -1.985677
 C    0.151418   -0.322850   -2.034788
 C   -0.458167   -0.654248   -3.406174
 C   -0.301760   -2.149426   -3.689342
 C   -1.932777   -0.244509   -3.463840
 C    0.012816    1.160596   -1.672012
 O    0.143072    2.037338   -2.529024
 N   -0.203323    1.424699   -0.368861
 C   -0.191620    2.766362    0.222942
 C    1.188957    3.440287    0.141092
 C    2.289970    2.748415    0.905327
 C    2.500453    3.023806    2.259433
 C    3.163332    1.866995    0.264185
 C    3.570509    2.459362    2.947278
 C    4.230785    1.292979    0.949185
 C    4.444537    1.596456    2.290330
 C   -1.278918    3.709802   -0.361987
 O   -0.829161    4.461425   -1.462647
 C   -2.582453    2.991711   -0.749453
 C   -3.051140    1.933433    0.224592
 O   -2.848455    1.985395    1.432226
 C   -2.799129   -1.176481    0.438604
 N   -3.733274    0.899797   -0.348907
 O   -2.424777   -1.755428   -0.579181
Cl   -6.706010   -0.138614   -0.277847
 C   -4.048898   -0.287657    0.415372
 C   -5.183786   -1.083915   -0.211430
 N   -2.116871   -1.225377    1.594550
 C   -0.962761   -2.095686    1.726315
 C   -1.373276   -3.544516    1.406422
 O   -2.415520   -4.021550    1.818324
 C   -0.379819   -2.038143    3.143039
 C    0.474556   -0.803374    3.479661
 C    1.657533   -0.653385    2.521011
 C   -0.318790    0.503338    3.573490
 N   -0.425695   -4.233276    0.721249
 H    6.017859    0.118541   -2.738604
 H    7.445130   -1.292986   -1.259465
 H    6.330072   -2.891614    0.318145
 H    3.805334   -2.986940    0.331133
 H    2.210578   -0.044159   -2.543878
 H   -0.330557   -0.952025   -1.280190
 H    0.092611   -0.077150   -4.159736
 H    0.749459   -2.454007   -3.675280
 H   -0.711618   -2.396112   -4.674116
 H   -0.840743   -2.737104   -2.937322
 H   -2.046811    0.838868   -3.351072
 H   -2.493277   -0.761005   -2.676739
 H   -2.363990   -0.520864   -4.431252
 H   -0.297248    0.641488    0.262933
 H   -0.450240    2.604006    1.271017
 H    1.472844    3.538207   -0.908690
 H    1.066763    4.461711    0.517805
 H    1.832829    3.712508    2.772794
 H    3.023136    1.649122   -0.791641
 H    3.727108    2.699821    3.994954
 H    4.908044    0.622465    0.428716
 H    5.285508    1.160755    2.821670
 H   -1.493800    4.438364    0.425743
 H   -0.472593    3.813417   -2.098052
 H   -3.368229    3.747621   -0.857074
 H   -2.441656    2.549241   -1.741700
 H   -3.716446    0.809447   -1.354879
 H   -4.324755    0.037303    1.420913
 H   -5.375384   -1.982499    0.376878
 H   -4.929277   -1.383919   -1.229108
 H   -2.490245   -0.763766    2.410084
 H   -0.203539   -1.787629    1.001337
 H   -1.199622   -2.155615    3.864458
 H    0.255128   -2.924103    3.258078
 H    0.886618   -1.000887    4.478976
 H    2.160388   -1.610460    2.344515
 H    2.387087    0.054522    2.919084
 H    1.349757   -0.266044    1.543176
 H    0.341502    1.326939    3.866428
 H   -1.121898    0.437138    4.317499
 H   -0.779772    0.780792    2.619164
 H    0.279696   -3.729835    0.194317
 H   -0.668508   -5.167069    0.425668
