31 
3r16_ligand_dft.xyz
 C   -2.835758    0.046688   -0.113211
 N   -4.766662    1.027882    1.507402
 O   -4.887317    1.461661   -0.946571
 S   -4.576677    0.375957   -0.029119
 C   -1.955476    1.093713   -0.375873
 O   -5.268439   -0.903208   -0.090704
 C   -0.598250    0.835184   -0.435886
 C   -0.110232   -0.465039   -0.237680
 C   -1.002549   -1.511527    0.017670
 C   -2.365734   -1.246657    0.076814
 N    1.277415   -0.641734   -0.321274
 C    2.009903   -1.780928   -0.115309
 O    1.544160   -2.867490    0.169194
 C    3.523176   -1.616429   -0.326453
 C    4.070152   -0.223697   -0.244208
 C    4.287826    0.654226   -1.271531
 C    4.758768    1.928605   -0.835462
 C    4.888497    1.998795    0.518968
 S    4.440997    0.518179    1.279720
 H   -5.386124    1.831006    1.451513
 H   -5.120837    0.329918    2.154639
 H   -2.334299    2.096369   -0.542044
 H    0.094850    1.646883   -0.641913
 H   -0.625686   -2.513744    0.162966
 H   -3.069012   -2.052490    0.257423
 H    1.815926    0.188706   -0.531907
 H    3.741005   -2.027501   -1.319286
 H    3.999046   -2.286865    0.393981
 H    4.124244    0.390908   -2.311453
 H    4.995744    2.748431   -1.502891
 H    5.231575    2.833863    1.114073
