31 
3r16_ligand_xtb.xyz
 C   -2.776112    0.100631   -0.051552
 N   -5.170132   -0.324370    1.046135
 O   -4.756276    1.827900   -0.208015
 S   -4.504809    0.419806   -0.314960
 C   -2.009631    1.041853    0.606913
 O   -4.959037   -0.292460   -1.473340
 C   -0.673145    0.783698    0.837189
 C   -0.106471   -0.420511    0.410631
 C   -0.894004   -1.360437   -0.254703
 C   -2.230838   -1.091400   -0.483711
 N    1.246096   -0.623012    0.674270
 C    2.036138   -1.686019    0.349227
 O    1.665834   -2.686756   -0.212843
 C    3.491350   -1.471726    0.783188
 C    4.081979   -0.297886    0.081217
 C    4.700101   -0.266200   -1.128930
 C    5.095999    1.034666   -1.518364
 C    4.769465    1.979697   -0.604732
 S    3.975584    1.301408    0.761702
 H   -5.669334    0.334391    1.621317
 H   -5.753457   -1.105500    0.793552
 H   -2.470653    1.966100    0.915369
 H   -0.058352    1.512904    1.345293
 H   -0.452235   -2.284891   -0.586872
 H   -2.859637   -1.792037   -1.008594
 H    1.704962    0.155430    1.132635
 H    4.045032   -2.376329    0.527814
 H    3.519714   -1.328767    1.865370
 H    4.870916   -1.144735   -1.724468
 H    5.602711    1.251456   -2.441306
 H    4.943023    3.036563   -0.635481
