34 
3r1v_ligand_ani.xyz
 C    5.882744   -0.373788   -1.135489
 N   -0.494365   -0.474619   -0.036839
 O   -6.725796   -0.370698    0.081120
 N   -1.239191    0.528037   -0.074381
 C    5.772514    0.038558    1.351760
 C   -3.173201   -1.053577   -0.103691
 C   -4.544538   -1.235424   -0.064404
 C   -5.387798   -0.128274    0.042384
 C   -4.854492    1.160211    0.104978
 C   -3.479285    1.333980    0.061527
 C   -2.634765    0.233091   -0.039349
 C    2.811628    1.267123   -0.222874
 C    1.435960    1.096776   -0.228778
 C    0.902099   -0.178813   -0.050885
 C    1.750879   -1.270227    0.124679
 C    3.124491   -1.087150    0.131510
 C    3.677819    0.185703   -0.039836
 C    5.177611    0.399977   -0.015138
 H    5.718851   -1.452771   -1.033063
 H    5.513983   -0.071659   -2.121359
 H    6.963747   -0.195248   -1.103715
 H   -7.195768    0.468391    0.162417
 H    5.328267    0.641841    2.150358
 H    5.592042   -1.016185    1.590310
 H    6.855995    0.203645    1.357625
 H   -2.487640   -1.891412   -0.179847
 H   -4.979126   -2.229378   -0.113026
 H   -5.514207    2.023621    0.187199
 H   -3.031748    2.322862    0.108760
 H    3.224695    2.264688   -0.360961
 H    0.752387    1.928249   -0.362411
 H    1.304653   -2.250842    0.259408
 H    3.770763   -1.952540    0.274847
 H    5.354368    1.469419   -0.185328
