51 
3r22_ligand_ani.xyz
 N    4.414823   -1.034260    0.307959
 N   -2.078667   -1.131680    0.004808
 C    0.781119   -1.103386   -0.402852
 C    0.523214   -2.410677    0.018144
 C   -1.981118   -2.460666   -0.018710
 C   -3.336851   -0.690304   -0.015333
 C   -2.873721    1.777354   -0.021716
 C   -0.947365    2.856795   -1.414833
 C   -1.640021    3.185104    1.725808
 C   -5.552056   -0.534260   -0.074280
 C   -4.243479   -2.882377   -0.051580
 O    4.463519    0.835362   -1.424218
 S    5.120959    0.381098   -0.212709
 O    6.549618    0.130263   -0.172693
 C    4.701976    1.513807    1.091129
 C    3.080988   -1.436679    0.151255
 N    2.853244   -2.687964    0.538433
 C    1.615196   -3.157711    0.462997
 C    2.068790   -0.603767   -0.341910
 N   -0.734761   -3.026538   -0.015501
 N   -3.007459   -3.357805   -0.038752
 C   -4.488176   -1.491597   -0.044112
 N   -5.091697    0.697411   -0.067456
 N   -3.736980    0.599866   -0.028543
 C   -1.952324    1.776403    1.211293
 C   -0.725430    4.040433    0.844754
 C   -1.128962    4.162403   -0.629211
 C   -2.125981    1.873639   -1.365563
 H    5.069291   -1.768344    0.555279
 H   -0.015664   -0.480103   -0.792487
 H   -3.574549    2.614770    0.061380
 H   -0.043490    2.354426   -1.037339
 H   -0.744604    3.080935   -2.469021
 H   -1.188304    3.110115    2.723118
 H   -2.595275    3.712790    1.871296
 H   -6.620397   -0.704167   -0.102802
 H   -5.052008   -3.610314   -0.069407
 H    5.064376    2.500076    0.795470
 H    3.616808    1.529241    1.214619
 H    5.193301    1.188032    2.010045
 H    1.473728   -4.188684    0.788156
 H    2.284142    0.399257   -0.688588
 H   -0.753009   -4.035092    0.053008
 H   -1.036595    1.214712    0.981299
 H   -2.454102    1.217373    2.008073
 H    0.293584    3.626717    0.882204
 H   -0.657603    5.043065    1.286767
 H   -2.165192    4.517042   -0.718312
 H   -0.502792    4.938682   -1.085772
 H   -2.867328    2.142974   -2.127276
 H   -1.749067    0.873619   -1.619395
