51 
3r22_ligand_xtb.xyz
 N    4.529237   -0.740010   -0.634876
 N   -1.931873   -1.186251    0.005378
 C    0.892227   -0.935721   -0.215270
 C    0.761280   -2.326652   -0.135684
 C   -1.713151   -2.490144    0.078238
 C   -3.220413   -0.855413    0.058043
 C   -3.097220    1.648417   -0.113838
 C   -1.209927    2.725999   -1.522118
 C   -2.140421    3.384549    1.477999
 C   -5.444285   -0.961772    0.189905
 C   -3.911131   -3.123534    0.263241
 O    4.240595    1.752201   -0.274439
 S    5.073408    0.655231    0.105742
 O    6.473311    0.719353   -0.169523
 C    4.823831    0.326188    1.868709
 C    3.246187   -1.236034   -0.451353
 N    3.134556   -2.556304   -0.364157
 C    1.932793   -3.081460   -0.219694
 C    2.144901   -0.382389   -0.377018
 N   -0.445720   -2.982363    0.022678
 N   -2.645399   -3.460918    0.209013
 C   -4.291545   -1.784623    0.185778
 N   -5.108136    0.296600    0.079637
 N   -3.766993    0.371039   -0.001667
 C   -2.237273    1.899760    1.131368
 C   -1.223604    4.189440    0.560654
 C   -1.563759    4.089821   -0.925820
 C   -2.325818    1.683059   -1.441461
 H    5.235394   -1.455810   -0.714802
 H    0.010459   -0.321152   -0.157763
 H   -3.910870    2.380735   -0.131099
 H   -0.313384    2.351016   -1.025996
 H   -0.957628    2.847197   -2.577518
 H   -1.766638    3.480073    2.500261
 H   -3.144168    3.816189    1.457629
 H   -6.473680   -1.249373    0.267028
 H   -4.622576   -3.932861    0.368330
 H    5.129842    1.210377    2.412076
 H    3.772680    0.124434    2.027946
 H    5.436992   -0.521792    2.142275
 H    1.903576   -4.162364   -0.163402
 H    2.291521    0.681497   -0.456413
 H   -0.410872   -3.991834    0.074039
 H   -1.244768    1.470517    0.999362
 H   -2.709610    1.384268    1.972051
 H   -0.191199    3.861669    0.703882
 H   -1.277052    5.237498    0.865603
 H   -2.620155    4.309884   -1.086874
 H   -0.987566    4.856192   -1.448998
 H   -3.047385    1.859616   -2.242752
 H   -1.884440    0.698416   -1.607167
