51 
3r22_ligand_dft.xyz
 N    4.578120   -0.716520   -0.664636
 N   -1.966262   -1.187392   -0.030763
 C    0.879985   -0.897954   -0.479338
 C    0.751794   -2.272358   -0.242520
 C   -1.737169   -2.491519    0.020609
 C   -3.264426   -0.881037    0.087274
 C   -3.128074    1.639588   -0.041370
 C   -1.382818    2.787007   -1.607025
 C   -1.996636    3.337066    1.506319
 C   -5.479201   -0.986660    0.328691
 C   -3.920047   -3.144649    0.289276
 O    4.334523    1.765071   -0.208361
 S    5.150436    0.623354    0.162255
 O    6.585301    0.606818   -0.048013
 C    4.819939    0.273162    1.886706
 C    3.253270   -1.192304   -0.517200
 N    3.150993   -2.500016   -0.292100
 C    1.934034   -3.019084   -0.176152
 C    2.145868   -0.353814   -0.633381
 N   -0.452980   -2.959501   -0.087496
 N   -2.651652   -3.491435    0.177452
 C   -4.313643   -1.801968    0.250221
 N   -5.167183    0.285925    0.226475
 N   -3.813173    0.352054    0.075374
 C   -2.170681    1.856710    1.143936
 C   -1.162764    4.176636    0.535804
 C   -1.614249    4.145608   -0.929069
 C   -2.500858    1.750208   -1.445830
 H    5.259908   -1.469441   -0.663968
 H   -0.000831   -0.276864   -0.554742
 H   -3.940934    2.365626    0.050025
 H   -0.439472    2.370166   -1.228749
 H   -1.230194    2.933291   -2.682171
 H   -1.532722    3.397545    2.498064
 H   -2.994372    3.786853    1.610122
 H   -6.512437   -1.279139    0.454885
 H   -4.635530   -3.955330    0.413253
 H    5.151540    1.139955    2.461367
 H    3.746783    0.122579    2.018041
 H    5.377766   -0.616752    2.181747
 H    1.890066   -4.095020   -0.008790
 H    2.277461    0.700015   -0.846524
 H   -0.399294   -3.965210   -0.010237
 H   -1.201182    1.383325    0.948037
 H   -2.599566    1.340796    2.010074
 H   -0.116866    3.841632    0.578720
 H   -1.165957    5.214180    0.891854
 H   -2.671714    4.435999   -1.008013
 H   -1.047959    4.910302   -1.472890
 H   -3.312489    1.965832   -2.150850
 H   -2.098557    0.771250   -1.726204
