29 
3r2a_ligand_ani.xyz
 O    5.304695    0.170620    0.532052
 O   -0.186615   -2.865493    0.002232
 O   -1.385628    2.418516   -0.071999
 O    4.689171   -1.691149   -0.499042
 O   -3.907289    1.862269   -0.011026
 O    1.130052    3.004245   -0.101219
 C   -4.209675   -1.741417    0.088410
 C   -4.536378   -0.388474    0.062923
 C   -2.887348   -2.150583    0.066529
 C    2.667143    1.246924   -0.035047
 C    1.938217   -1.053154   -0.011428
 C    4.373650   -0.633076   -0.023726
 C    2.959886   -0.121507   -0.003212
 C   -3.538128    0.581008    0.015268
 C    1.351062    1.689527   -0.061642
 C   -0.455286   -1.678413    0.002078
 C   -1.107706    1.196493   -0.039597
 C   -1.873743   -1.199870    0.021768
 C    0.614788   -0.634051   -0.014397
 C   -2.174837    0.181661   -0.002066
 C    0.290897    0.742076   -0.036859
 H    4.876801    0.909168    0.986366
 H   -3.084275    2.394406   -0.044173
 H    0.157546    3.127806   -0.104768
 H   -5.006735   -2.479195    0.125481
 H   -5.569957   -0.057797    0.079327
 H   -2.611241   -3.198540    0.083938
 H    3.446134    2.002759   -0.090587
 H    2.161388   -2.113547   -0.017577
