51 
3r2b_ligand_ani.xyz
 C    3.297927    1.002078    0.266003
 C    4.804832    0.723855    0.485222
 N    5.312252   -0.274125   -0.445802
 C    4.723094   -1.513684   -0.593188
 N    2.789090    3.912834    0.221660
 C    2.715334    1.767107    1.468109
 C    3.049478    1.790256   -1.043023
 C    3.467872    3.253631   -0.939129
 C    3.151200    3.231565    1.506095
 O    5.336182   -2.485809   -1.001536
 C    2.632742   -0.328757    0.153681
 C    3.297667   -1.507303   -0.254911
 C    2.310105   -2.499136   -0.318406
 C    1.122975   -1.849106    0.045510
 N    1.326563   -0.535099    0.312303
 C   -0.235025   -2.391195    0.151177
 C   -0.502499   -3.751242    0.301513
 C   -1.837587   -4.112073    0.392410
 N   -2.830134   -3.223572    0.331911
 C   -2.468320   -1.948467    0.179515
 N   -1.215044   -1.494957    0.105396
 C   -3.535591   -0.925185    0.080585
 C   -4.874848   -1.295833    0.197979
 C   -5.899880   -0.352052    0.092501
 C   -3.165285    0.413162   -0.145388
 C   -4.184417    1.324143   -0.247466
 C   -5.519769    0.950790   -0.132100
 O   -6.316400    2.047814   -0.293715
 C   -5.437586    3.159049   -0.433086
 O   -4.102301    2.666800   -0.484318
 H    4.938283    0.397613    1.528548
 H    5.385611    1.641380    0.351310
 H    6.312512   -0.295392   -0.588212
 H    1.754712    3.756904    0.087298
 H    3.013830    4.922936    0.259530
 H    3.016142    1.263358    2.392422
 H    1.624037    1.691003    1.407232
 H    1.977652    1.723869   -1.272041
 H    3.584919    1.299310   -1.858012
 H    4.547515    3.320651   -0.797941
 H    3.216353    3.795281   -1.848097
 H    2.674775    3.757873    2.329805
 H    4.231847    3.294913    1.646323
 H    2.462436   -3.528533   -0.625124
 H    0.287065   -4.492173    0.361444
 H   -2.128699   -5.153318    0.516591
 H   -5.114601   -2.339342    0.370932
 H   -6.945035   -0.631032    0.180401
 H   -2.118813    0.684679   -0.233224
 H   -5.549188    3.825750    0.431141
 H   -5.664812    3.688653   -1.363679
