124 
3r42_ligand_xtb.xyz
 N   -0.293860    1.524299   -1.090920
 C    0.213822    2.864337   -0.764285
 C    1.718977    3.078481   -0.993069
 O    2.126206    4.186983   -1.298544
 C   -0.099404    3.148832    0.713258
 C    0.090610    4.625767    1.069145
 C   -0.736889    5.505554    0.144372
 O   -1.946830    5.646545    0.274683
 N   -0.044883    6.103620   -0.826624
 N    2.487604    2.019971   -0.754779
 C    3.934271    2.013060   -0.782138
 C    4.331167    0.566515   -1.074046
 O    3.472377   -0.317843   -1.005481
 C    4.541454    2.473523    0.578351
 C    4.857999    3.966864    0.539905
 C    3.611966    2.150494    1.745954
 N    5.605607    0.301755   -1.347660
 C    6.065776   -1.074120   -1.556024
 C    6.232795   -1.803573   -0.196934
 O    7.307510   -2.115219    0.261182
 C    7.401873   -0.924114   -2.274124
 C    7.917567    0.411377   -1.746578
 C    6.652905    1.261419   -1.668803
 N    5.048308   -2.059888    0.383547
 C    4.896837   -2.773724    1.639279
 C    3.421053   -3.181576    1.664357
 O    3.052919   -4.276074    1.293408
 C    5.381860   -1.943916    2.835107
 O    4.720405   -0.688981    2.867254
 N    2.574484   -2.196157    2.028209
 C    1.158144   -2.310490    1.762628
 C    0.879009   -1.655810    0.406603
 O    0.904413   -0.419801    0.310988
 C    0.273009   -1.621561    2.797753
 C   -1.181255   -1.749164    2.369596
 O   -1.533337   -2.423124    1.426331
 O   -1.989762   -1.053250    3.124582
 N    0.663140   -2.447386   -0.632092
 C    0.463289   -1.887028   -1.954665
 C   -0.923335   -1.251308   -2.107220
 O   -1.094043   -0.315469   -2.877109
 C    0.626341   -3.087015   -2.892208
 C    0.107490   -4.251170   -2.052960
 C    0.554650   -3.902700   -0.632723
 N   -1.899622   -1.815109   -1.387503
 C   -3.236019   -1.263109   -1.344266
 C   -3.258632   -0.088032   -0.360469
 O   -2.257289    0.254712    0.247219
 C   -4.214939   -2.379648   -0.947563
 C   -5.662635   -1.987503   -1.058609
 C   -6.211150   -1.614464   -2.282180
 C   -6.490748   -2.014525    0.059728
 C   -7.542343   -1.255867   -2.385077
 C   -7.821049   -1.658599   -0.032920
 C   -8.358825   -1.271425   -1.258488
 O   -9.664125   -0.917099   -1.297805
 N   -4.432942    0.552721   -0.265633
 C   -4.622506    1.710699    0.582229
 C   -3.659627    2.840082    0.163314
 O   -2.885049    2.723990   -0.757375
 C   -4.375832    1.384060    2.071923
 C   -5.143354    0.134739    2.458116
 O   -4.607826   -0.958377    2.547311
 N   -6.457792    0.301870    2.647176
 O   -3.761576    3.881715    0.937004
 H   -1.300416    1.499146   -0.827326
 H   -0.257420    1.273744   -2.090708
 H    0.153546    0.740432   -0.530054
 H   -0.323067    3.584636   -1.389277
 H    0.532793    2.524995    1.346586
 H   -1.133710    2.866930    0.901714
 H    1.139940    4.907220    0.991584
 H   -0.244753    4.792283    2.093461
 H    0.913853    5.843083   -1.022901
 H   -0.532784    6.693866   -1.482719
 H    2.107389    1.114321   -0.484914
 H    4.277225    2.681547   -1.577891
 H    5.467418    1.915507    0.743915
 H    3.970943    4.535232    0.275126
 H    5.210662    4.301968    1.511997
 H    5.628989    4.185219   -0.195516
 H    4.133106    2.333267    2.682006
 H    3.310068    1.107122    1.721863
 H    2.730429    2.785200    1.725291
 H    5.319500   -1.622354   -2.140650
 H    7.256221   -0.888242   -3.353537
 H    8.068720   -1.745808   -2.024603
 H    8.673472    0.857099   -2.387668
 H    8.336982    0.267541   -0.751199
 H    6.730898    2.046920   -0.919082
 H    6.433323    1.723337   -2.638791
 H    4.213726   -1.671887   -0.047204
 H    5.509286   -3.682566    1.600026
 H    6.461902   -1.799699    2.721872
 H    5.189238   -2.505246    3.758232
 H    5.110837   -0.157094    3.568084
 H    2.959263   -1.294075    2.278125
 H    0.931892   -3.377645    1.732754
 H    0.392801   -2.070884    3.783914
 H    0.513976   -0.559681    2.869690
 H   -2.948710   -1.126361    2.847462
 H    1.215269   -1.114507   -2.147156
 H    0.078339   -2.953288   -3.822361
 H    1.682027   -3.225637   -3.124212
 H    0.512981   -5.205457   -2.379175
 H   -0.979808   -4.301015   -2.111116
 H    1.524502   -4.347954   -0.393259
 H   -0.176369   -4.230687    0.108887
 H   -1.658914   -2.378915   -0.579289
 H   -3.463177   -0.867371   -2.341207
 H   -3.991047   -2.684180    0.076618
 H   -4.023508   -3.231318   -1.605964
 H   -5.596651   -1.613485   -3.170520
 H   -6.082701   -2.324235    1.009552
 H   -7.954333   -0.975001   -3.344407
 H   -8.474004   -1.691155    0.824322
 H   -9.940106   -0.729997   -2.203497
 H   -5.224107    0.185200   -0.773801
 H   -5.645619    2.068562    0.440391
 H   -4.677308    2.238049    2.676602
 H   -3.312318    1.190397    2.220389
 H   -6.894997    1.205965    2.618309
 H   -7.021360   -0.492832    2.905439
 H   -3.102511    4.618071    0.702912
