124 
3r42_ligand_dft.xyz
 N   -0.437373    1.658943   -1.302546
 C    0.168827    2.940771   -0.867580
 C    1.686018    3.031105   -1.040325
 O    2.192302    4.142492   -1.184672
 C   -0.207931    3.169965    0.606142
 C    0.041830    4.610646    1.062728
 C   -0.678274    5.599294    0.158368
 O   -1.902315    5.755464    0.194076
 N    0.101170    6.279155   -0.698799
 N    2.380546    1.886888   -0.944112
 C    3.827689    1.852614   -0.825792
 C    4.240823    0.411434   -1.137793
 O    3.390239   -0.489943   -1.118017
 C    4.349129    2.261754    0.601648
 C    4.905472    3.687977    0.610432
 C    3.275094    2.094381    1.678337
 N    5.540639    0.162857   -1.358389
 C    6.032834   -1.214469   -1.568202
 C    6.190784   -1.925597   -0.202184
 O    7.278166   -2.177317    0.290825
 C    7.372789   -1.006805   -2.267049
 C    7.872009    0.318852   -1.685650
 C    6.600956    1.163207   -1.567024
 N    5.004986   -2.221663    0.381894
 C    4.890402   -2.721098    1.743378
 C    3.405802   -3.075501    1.910346
 O    3.006371   -4.220308    1.790714
 C    5.450122   -1.740361    2.774888
 O    4.857727   -0.462236    2.562493
 N    2.573813   -2.002836    2.086289
 C    1.155965   -2.119634    1.813102
 C    0.882666   -1.493053    0.444684
 O    0.773114   -0.254758    0.355032
 C    0.260928   -1.447003    2.847849
 C   -1.195826   -1.613946    2.456980
 O   -1.563747   -2.377607    1.577333
 O   -2.003986   -0.864587    3.174368
 N    0.785877   -2.297132   -0.617119
 C    0.540314   -1.732814   -1.937248
 C   -0.902815   -1.246844   -2.099912
 O   -1.170433   -0.395469   -2.948270
 C    0.872191   -2.897581   -2.881219
 C    0.467939   -4.133285   -2.071428
 C    0.849976   -3.775015   -0.630861
 N   -1.828279   -1.822702   -1.302431
 C   -3.186323   -1.333175   -1.257592
 C   -3.243914   -0.073227   -0.377241
 O   -2.268749    0.325644    0.253643
 C   -4.117326   -2.457334   -0.755118
 C   -5.591708   -2.170127   -0.922507
 C   -6.140835   -1.917081   -2.182566
 C   -6.450593   -2.158354    0.181054
 C   -7.495686   -1.643291   -2.341396
 C   -7.805597   -1.896483    0.037226
 C   -8.336251   -1.634114   -1.226773
 O   -9.663233   -1.372151   -1.301578
 N   -4.417920    0.595202   -0.360515
 C   -4.596696    1.782325    0.441985
 C   -3.663362    2.912795   -0.017811
 O   -3.000732    2.875317   -1.038482
 C   -4.426106    1.521057    1.960838
 C   -5.187278    0.277472    2.374169
 O   -4.634980   -0.809579    2.551126
 N   -6.523468    0.410883    2.485409
 O   -3.675823    3.912976    0.833609
 H   -1.465352    1.764674   -1.269343
 H   -0.207285    1.360429   -2.256954
 H   -0.205840    0.869578   -0.663385
 H   -0.273140    3.713329   -1.498883
 H    0.350563    2.468436    1.233827
 H   -1.262368    2.926175    0.733706
 H    1.112507    4.828168    1.092833
 H   -0.357803    4.735933    2.072475
 H    1.046790    5.961032   -0.882984
 H   -0.348094    6.888669   -1.368074
 H    1.926112    1.012114   -0.679139
 H    4.245453    2.538719   -1.569272
 H    5.156199    1.565883    0.857801
 H    4.124656    4.407289    0.350075
 H    5.300016    3.938673    1.600665
 H    5.719146    3.810844   -0.112746
 H    3.732309    2.164297    2.669950
 H    2.756934    1.133988    1.603245
 H    2.529044    2.893315    1.614233
 H    5.306746   -1.760394   -2.177433
 H    7.214709   -0.923215   -3.347106
 H    8.057185   -1.832089   -2.069081
 H    8.624874    0.806088   -2.308354
 H    8.301157    0.141134   -0.696047
 H    6.651143    1.869756   -0.736909
 H    6.401146    1.722523   -2.489166
 H    4.173745   -1.847425   -0.067660
 H    5.444506   -3.658664    1.836737
 H    6.534935   -1.686388    2.643465
 H    5.227292   -2.117957    3.781878
 H    5.169480    0.134504    3.251707
 H    3.004611   -1.087129    2.171596
 H    0.940848   -3.186570    1.797590
 H    0.419764   -1.898121    3.832860
 H    0.478775   -0.378957    2.932993
 H   -2.942931   -0.960605    2.859938
 H    1.199412   -0.878986   -2.103853
 H    0.357316   -2.810376   -3.840069
 H    1.950812   -2.892326   -3.067177
 H    0.969113   -5.042864   -2.407404
 H   -0.611845   -4.295296   -2.147372
 H    1.857068   -4.107223   -0.369486
 H    0.149412   -4.189246    0.098179
 H   -1.510731   -2.278137   -0.450728
 H   -3.460507   -1.040117   -2.275770
 H   -3.885348   -2.655192    0.296621
 H   -3.847318   -3.357189   -1.319985
 H   -5.506714   -1.940024   -3.066249
 H   -6.040898   -2.347879    1.169122
 H   -7.899071   -1.452466   -3.333000
 H   -8.477454   -1.905442    0.889704
 H   -9.927837   -1.272498   -2.224320
 H   -5.213388    0.206202   -0.847768
 H   -5.617297    2.134380    0.256825
 H   -4.771568    2.399306    2.511597
 H   -3.373133    1.357949    2.188355
 H   -6.985390    1.303287    2.411772
 H   -7.075416   -0.391781    2.749709
 H   -3.022583    4.630471    0.565617
