26 
3r4m_ligand_ani.xyz
 C    2.321139    2.816378    0.863927
 O    1.499614    1.723523    0.517705
 C    2.093793    0.565200    0.127799
 C    3.478877    0.441933   -0.001498
 C    4.040946   -0.772083   -0.383335
 C    3.233616   -1.873766   -0.626431
 C    1.857234   -1.749049   -0.489945
 C    1.259008   -0.538988   -0.136289
 C   -0.229734   -0.482387   -0.051240
 C   -0.963258    0.671244   -0.339228
 C   -2.339048    0.545199   -0.221164
Cl   -3.331402    1.930648   -0.567307
 N   -2.968067   -0.548710    0.147850
 C   -2.167037   -1.598810    0.384884
 N   -2.782887   -2.761409    0.739061
 N   -0.838300   -1.627767    0.274668
 H    2.996184    2.567145    1.692787
 H    2.910764    3.161284    0.004940
 H    1.643265    3.611132    1.177819
 H    4.129290    1.287797    0.192792
 H    5.120976   -0.850699   -0.483206
 H    3.668265   -2.826343   -0.916032
 H    1.208159   -2.602202   -0.663895
 H   -0.498821    1.599149   -0.635226
 H   -3.731238   -2.678073    1.069474
 H   -2.198354   -3.462416    1.167186
