26 
3r4m_ligand_dft.xyz
 C    2.336508    2.856075    0.757778
 O    1.519219    1.747531    0.452424
 C    2.106828    0.574750    0.107119
 C    3.490920    0.427002   -0.007598
 C    4.039233   -0.806232   -0.344675
 C    3.218812   -1.905599   -0.561248
 C    1.843423   -1.757456   -0.439815
 C    1.258484   -0.530268   -0.118359
 C   -0.224555   -0.469280   -0.022679
 C   -0.964593    0.685641   -0.293828
 C   -2.341363    0.548941   -0.191957
Cl   -3.347661    1.947426   -0.503349
 N   -2.969941   -0.560121    0.126327
 C   -2.164302   -1.615093    0.346597
 N   -2.779640   -2.795308    0.630934
 N   -0.830032   -1.621519    0.294007
 H    3.003229    2.641089    1.601793
 H    2.932803    3.168127   -0.108585
 H    1.653465    3.660175    1.033088
 H    4.150004    1.268880    0.166463
 H    5.117593   -0.899130   -0.434034
 H    3.642900   -2.869564   -0.822159
 H    1.182100   -2.602939   -0.592774
 H   -0.502460    1.622271   -0.559801
 H   -3.752799   -2.758501    0.887921
 H   -2.209431   -3.529162    1.018745
