38 
3r4n_ligand_ani.xyz
 C   -1.921468   -0.658907   -0.034486
 C   -1.329810    0.710876   -0.017621
 C   -1.103733   -1.779344    0.217306
 C   -3.266884   -0.893143   -0.306495
 C   -0.374359    1.096142   -0.954952
 N   -1.745840    1.539778    0.939175
 C   -1.613889   -3.073586    0.160905
 O    0.183984   -1.507239    0.547841
 C   -3.796306   -2.182189   -0.362772
Cl   -4.346190    0.432257   -0.630292
 C    0.187568    2.369787   -0.817133
 C   -1.154966    2.735313    0.975095
 C   -2.960832   -3.261389   -0.129307
 C    1.128806   -2.563401    0.578165
 N   -0.197338    3.195410    0.148295
 C    1.266019    2.851478   -1.749367
 N   -1.582780    3.600518    1.942607
 C    2.499485   -1.944828    0.791458
 C    2.836167   -0.926287   -0.296221
 C    4.176131   -0.266059   -0.105436
 F    5.186835   -1.155204   -0.162931
 F    4.401651    0.658337   -1.062696
 F    4.264698    0.361932    1.082836
 H   -0.090516    0.429196   -1.763013
 H   -0.976500   -3.933280    0.340356
 H   -4.848331   -2.321217   -0.588043
 H   -3.360691   -4.271106   -0.172708
 H    1.097302   -3.117047   -0.371263
 H    0.888580   -3.259373    1.393461
 H    2.201956    2.304343   -1.578477
 H    0.980637    2.693551   -2.795284
 H    1.448405    3.915419   -1.581446
 H   -2.090314    3.195097    2.713947
 H   -0.978104    4.382802    2.139140
 H    3.245556   -2.747028    0.804180
 H    2.527907   -1.457906    1.772128
 H    2.086897   -0.130185   -0.314807
 H    2.852060   -1.396024   -1.286187
