53 
3r4p_ligand_dft.xyz
 C   -2.742546    0.368611   -0.164286
 F    4.633400   -1.572140   -0.789775
 N    1.560965    1.266052   -0.889600
 O    2.397155   -0.010453   -2.605621
Cl   -3.597485    2.151187   -2.021380
 C   -2.739934   -0.905932    0.426484
 F    5.751360   -0.064738    0.338933
 N   -0.104844    3.326899    1.498753
 O   -1.899710   -1.038730    1.472485
Cl   -5.420229   -2.916060   -1.747768
 C   -3.560447   -1.922697   -0.054448
 N   -2.267168    2.237906    1.273282
 C   -4.387058   -1.647307   -1.139732
 N   -1.935126    3.975076    2.736910
 C   -4.417779   -0.405242   -1.751567
 N    3.859224    1.111188   -1.253205
 C   -3.582949    0.589748   -1.245700
 N    0.663865   -1.868287    2.464184
 C   -0.461552    1.445418   -0.039302
 N    1.336592   -2.887622    1.896730
 C    0.306575    0.733882   -0.936655
 C    1.629151    2.309360    0.031028
 C    0.369959    2.444424    0.570360
 C   -1.373141    3.169348    1.786706
 C   -1.816924    1.401647    0.383739
 C    2.620517    0.714716   -1.663006
 C   -1.719453   -2.306356    2.073458
 C   -0.607095   -2.140738    3.093737
 C    1.268245   -0.671410    2.268104
 C    2.414979   -0.924773    1.549384
 C    2.400441   -2.318169    1.344271
 C    5.039155    0.504114   -1.818784
 C    5.583001   -0.600769   -0.919070
 C    6.880438   -1.220666   -1.375141
 H   -3.570185   -2.907709    0.394005
 H   -1.426008    4.812577    2.971914
 H   -2.941464    4.023290    2.743561
 H   -5.064977   -0.210366   -2.597085
 H    3.954595    1.492671   -0.323885
 H    0.091979   -0.104826   -1.579313
 H    2.503981    2.929189    0.141800
 H   -1.425904   -3.052036    1.324757
 H   -2.643959   -2.630707    2.569887
 H   -0.844989   -1.315683    3.769802
 H   -0.506473   -3.059470    3.676601
 H    0.837516    0.247839    2.638341
 H    3.168409   -0.220370    1.236578
 H    3.126157   -2.925102    0.822632
 H    5.816060    1.262501   -1.956544
 H    4.773569    0.086131   -2.790828
 H    7.664892   -0.462300   -1.432154
 H    7.179419   -1.990311   -0.660192
 H    6.750062   -1.678859   -2.358530
