38 
3r5n_ligand_dft.xyz
 C   -3.578149    3.600716   -0.838032
 C    5.984657    1.522337    0.749958
 O   -0.507472   -2.748204    1.285489
 O    0.322057   -2.382736   -1.813002
 C   -3.790757    2.634215    0.050608
 C    4.760633    1.181793    1.143405
 C   -2.706845   -1.908164    1.250217
 C    2.384946   -1.272165   -1.572299
 C   -3.623730   -0.935968    0.874493
 C    3.162412   -0.279501   -0.998042
 C   -1.895564    0.292271   -0.230391
 C    1.291254    0.465019    0.291257
 C   -4.239004    1.239096   -0.291672
 C    3.487955    1.709541    0.537599
 C   -1.368234   -1.779205    0.884262
 C    1.041420   -1.399624   -1.215047
 C   -3.236661    0.180925    0.130907
 C    2.627592    0.613731   -0.062754
 C   -0.950045   -0.672171    0.125025
 C    0.481908   -0.532800   -0.263636
 H   -3.732212    3.438020   -1.902771
 H   -3.248394    4.590720   -0.537029
 H    6.144830    2.237348   -0.054461
 H    6.871555    1.105966    1.218425
 H    0.392202   -2.486609    1.039624
 H   -0.604413   -2.299281   -1.543295
 H   -3.618481    2.828541    1.109021
 H    4.636131    0.456676    1.947418
 H   -3.006163   -2.768563    1.839404
 H    2.795341   -1.956889   -2.307070
 H   -4.663978   -1.048516    1.170384
 H    4.209800   -0.193035   -1.275622
 H   -1.564795    1.153634   -0.806026
 H    0.846510    1.134514    1.024191
 H   -4.420822    1.172804   -1.372249
 H   -5.198967    1.033269    0.199383
 H    3.735033    2.453330   -0.230979
 H    2.907410    2.235316    1.306612
