96 
3r5t_ligand_dft.xyz
 C   -3.447263    0.944013    1.063592
 N   -5.615632   -0.094122    0.806928
 O   -3.956068    1.338861    2.114875
 C   -4.401276    0.307006    0.038824
 C   -4.994023    1.327850   -0.977747
 C    4.386205    5.226628   -0.754474
 O    2.241890   -0.295674    0.988274
 O    1.019172    2.449997   -0.820921
 O    5.281206   -5.263757   -0.279487
 O   -8.828192   -3.783851   -0.509755
 O    7.729528   -0.781629    0.840722
 O    3.248427   -3.831872   -1.021545
 O   -6.698232   -2.258411   -0.348012
 O    6.092232    1.276404    0.862799
 C    5.368379   -2.670244    2.344016
 C  -10.432921   -0.526725    0.159322
 C    5.721179   -1.530989   -2.163507
 C    5.733868   -3.819885    1.637960
 C  -10.328348   -1.893246   -0.099336
 C    6.706605   -1.684343   -1.188336
 C    4.297618   -1.907457    1.917259
 C   -9.293075    0.258329    0.245673
 C    4.869218   -0.438223   -2.126406
 C   -0.620404   -0.707073   -0.030246
 C   -1.489555    3.289669    1.815662
 C    0.518861   -0.896722   -1.041481
 C   -0.786702    4.050133    0.687805
 C   -1.467324    0.518758   -0.395886
 C   -1.317234    1.768166    1.779637
 N    1.569093   -1.779186   -0.561943
 N    0.670076    4.005645    0.800709
 N    3.497092    1.931531    0.301292
 O    4.641454    2.920258   -1.361215
 C    2.412756   -1.387711    0.405038
 C    1.444846    3.219018    0.035807
 C   -6.817214    0.560810    0.094083
 C    5.014549   -4.187141    0.515692
 C   -9.078289   -2.468623   -0.271866
 C    6.834631   -0.739184   -0.182497
 C    3.917521   -3.423944    0.086381
 C   -7.929584   -1.674959   -0.200984
 C    5.983908    0.370174   -0.152079
 C    3.548060   -2.273689    0.787307
 C   -8.029326   -0.311953    0.063289
 C    5.000037    0.527344   -1.123088
 C    3.684557    3.912646   -1.010450
 C    4.061976    1.689346   -1.091870
 C    2.954163    3.313970    0.248284
 N   -2.150340    1.103689    0.762683
 O   -6.305537    0.829168   -1.165574
 C   -4.301731    1.435980   -2.316453
 H   -5.487747    0.278714    1.765535
 H   -5.742105   -1.115426    0.795369
 H   -4.013838   -0.573844   -0.473193
 H   -5.044430    2.312191   -0.485897
 H    4.896987    5.558605   -1.660804
 H    5.127990    5.119394    0.042373
 H    3.661183    5.995596   -0.470408
 H    5.868988   -5.888419    0.162732
 H   -9.645863   -4.293164   -0.571413
 H    8.357226   -1.504923    0.724807
 H    3.635362   -4.674746   -1.310700
 H   -6.837342   -3.209920   -0.487721
 H    6.826176    1.003636    1.436834
 H    5.927689   -2.382751    3.227077
 H  -11.411493   -0.081141    0.295505
 H    5.622670   -2.274287   -2.946208
 H    6.572327   -4.428038    1.968033
 H  -11.221413   -2.509241   -0.158453
 H    7.368005   -2.546150   -1.207186
 H    4.000518   -1.015339    2.455724
 H   -9.379328    1.321849    0.445786
 H    4.100459   -0.320208   -2.883945
 H   -0.166065   -0.554283    0.951082
 H   -1.239457   -1.609083    0.036349
 H   -2.556437    3.532943    1.804770
 H   -1.108485    3.650769    2.778278
 H    0.961559    0.081817   -1.254465
 H    0.149115   -1.308399   -1.984290
 H   -1.044696    3.645532   -0.293373
 H   -1.089707    5.100739    0.701977
 H   -0.820650    1.297204   -0.807733
 H   -2.196597    0.272168   -1.167976
 H   -1.580272    1.352325    2.754649
 H   -0.277238    1.502261    1.573165
 H    1.742197   -2.663745   -1.021794
 H    1.104171    4.595618    1.496572
 H    4.299220    1.874595    0.945724
 H    2.825431    1.165340    0.559149
 H   -7.005702    1.486549    0.653262
 H    2.951441    4.004096   -1.821808
 H    3.185494    1.503565   -1.723788
 H    3.232488    3.841241    1.163338
 H   -3.326400    1.918278   -2.211035
 H   -4.176776    0.451525   -2.776929
 H   -4.911735    2.051353   -2.981498
