37 
3r6c_ligand_ani.xyz
 C   -5.540769   -0.884045   -0.190202
 O    3.938203   -2.128951   -0.844179
 O    1.532911   -2.831452    1.518628
 O    1.902434   -2.622577   -1.578851
 O   -0.298663   -3.837599    0.769534
 C   -3.091319    2.510517   -0.369709
 C   -3.941505    1.389408   -0.314851
 C   -1.732077    2.381437   -0.241649
 C    3.106865    0.455058   -0.165926
 C   -1.435682   -1.326133    0.232104
 C    2.288377    3.883007    0.315158
 O   -4.138374   -0.999272   -0.048125
 O    3.276073    2.862158    0.343192
 O    1.020210    3.259210    0.460251
 C    2.771423   -1.846747   -0.913193
 C    2.590124    1.701963    0.116714
 C   -3.403032    0.138447   -0.125042
 C    2.203945   -0.587659   -0.318656
 C   -0.090379   -1.506135    0.323802
 C    1.229943    1.932124    0.183590
 C   -1.988052   -0.029323    0.006762
 C   -1.153416    1.105725   -0.056634
 C    0.818039   -0.415359    0.009125
 C    0.289308    0.907057    0.044847
 C    0.361978   -2.837814    0.866223
 H   -5.971938   -0.254119    0.597928
 H   -5.809851   -0.472354   -1.171013
 H   -5.932658   -1.897580   -0.100784
 H    1.904924   -1.937897    1.485922
 H    1.020214   -2.227183   -1.520345
 H   -3.532508    3.494442   -0.515716
 H   -5.011556    1.533692   -0.421329
 H   -1.094451    3.255822   -0.280455
 H    4.166239    0.269256   -0.299444
 H   -2.085401   -2.184090    0.354398
 H    2.323973    4.404791   -0.652631
 H    2.458030    4.573909    1.145077
