76 
3r6g_ligand_xtb.xyz
 C    4.640901    0.187091    0.663753
 O    3.932950   -0.678761    1.162521
 C    6.094118   -0.029951    0.347854
 N    4.155024    1.399017    0.334259
 C    2.784931    1.814189    0.592907
 C    1.877955    1.289993   -0.535687
 O    1.316142    1.992625   -1.362799
 C    2.710778    3.327660    0.853005
 C    1.305363    3.700046    1.321677
 C    3.113502    4.169622   -0.356943
 N    1.786827   -0.043183   -0.502380
 C    1.160718   -0.858914   -1.515507
 C    0.306713   -1.972379   -0.891097
 O   -0.052697   -2.937773   -1.545005
 C    2.212527   -1.484455   -2.451366
 C    3.399820   -1.972783   -1.655122
 O    4.545306   -1.690467   -1.894243
 O    3.038844   -2.729808   -0.622707
 N    0.013804   -1.790968    0.400278
 C   -0.807169   -2.720946    1.152018
 C   -2.272081   -2.341617    0.879901
 O   -2.963614   -1.730653    1.679375
 C   -0.430424   -2.705916    2.641295
 C    0.899103   -3.429751    2.842367
 C   -0.353501   -1.291023    3.214426
 N   -2.666063   -2.710186   -0.350040
 C   -3.892312   -2.276572   -1.014670
 C   -3.752558   -0.788048   -1.384074
 O   -3.660902   -0.418533   -2.534758
 C   -5.144434   -2.571602   -0.193467
 N   -3.723045    0.045616   -0.321486
 C   -3.300987    1.418880   -0.483340
 C   -1.767675    1.462189   -0.549031
 O   -1.065334    0.823102    0.200263
 C   -3.802566    2.255632    0.701450
 C   -3.439632    3.709285    0.506440
 O   -4.201048    4.582686    0.200365
 O   -2.134962    3.922511    0.711026
 O   -1.320477    2.223542   -1.514795
 H    6.649854    0.902155    0.314131
 H    6.529744   -0.696290    1.087591
 H    6.150488   -0.520560   -0.624370
 H    4.736624    2.045141   -0.174452
 H    2.472339    1.292848    1.508186
 H    3.413795    3.535243    1.670249
 H    1.019750    3.116801    2.193817
 H    1.269507    4.753570    1.586955
 H    0.579330    3.516334    0.536023
 H    3.020830    5.224539   -0.110951
 H    2.466741    3.952772   -1.200905
 H    4.145812    3.989495   -0.651417
 H    2.337177   -0.537620    0.201241
 H    0.493807   -0.221818   -2.108189
 H    1.744643   -2.334597   -2.953702
 H    2.562809   -0.766883   -3.192459
 H    3.801319   -2.946544   -0.061045
 H    0.085699   -0.858177    0.784247
 H   -0.621900   -3.719156    0.738302
 H   -1.222542   -3.247916    3.167787
 H    0.834382   -4.463181    2.509954
 H    1.173934   -3.424018    3.894064
 H    1.685030   -2.933558    2.277301
 H    0.542521   -0.778809    2.870289
 H   -1.230094   -0.716627    2.931392
 H   -0.312064   -1.340208    4.299861
 H   -1.952571   -3.105066   -0.955916
 H   -3.943256   -2.824786   -1.960265
 H   -5.237382   -3.644935   -0.044650
 H   -6.019482   -2.213548   -0.729082
 H   -5.099681   -2.091770    0.778676
 H   -3.628063   -0.361316    0.606719
 H   -3.697394    1.793407   -1.432901
 H   -3.330527    1.886047    1.613917
 H   -4.885970    2.165375    0.773568
 H   -1.909299    4.851307    0.541980
 H   -0.323922    2.208744   -1.565041
