76 
3r6g_ligand_ani.xyz
 C    4.818316    0.363574    0.815279
 O    4.127654   -0.394987    1.489070
 C    6.256750    0.061024    0.461096
 N    4.320588    1.530171    0.319131
 C    2.932048    1.916118    0.528609
 C    2.040872    1.326405   -0.588956
 O    1.460960    2.014641   -1.434915
 C    2.778250    3.426748    0.763332
 C    1.344842    3.764468    1.183422
 C    3.222555    4.304297   -0.409033
 N    1.946695   -0.020036   -0.558538
 C    1.168554   -0.822081   -1.483303
 C    0.357718   -1.898590   -0.745070
 O    0.032653   -2.937514   -1.320453
 C    2.007677   -1.474162   -2.583121
 C    2.933290   -2.583343   -2.137882
 O    3.426860   -3.397504   -2.873608
 O    3.195372   -2.558804   -0.809220
 N    0.050220   -1.627316    0.540319
 C   -0.683042   -2.574184    1.367842
 C   -2.192350   -2.374714    1.112638
 O   -2.933019   -1.810099    1.917733
 C   -0.280565   -2.464183    2.846417
 C    1.151516   -2.973647    3.037011
 C   -0.414229   -1.050625    3.419997
 N   -2.613410   -2.824016   -0.093501
 C   -3.872548   -2.407472   -0.717972
 C   -3.809687   -0.931860   -1.158500
 O   -3.874572   -0.630728   -2.340143
 C   -5.101870   -2.741081    0.125520
 N   -3.667886   -0.003572   -0.167984
 C   -3.267010    1.343282   -0.509058
 C   -1.739423    1.462220   -0.513779
 O   -1.042046    1.051234    0.397634
 C   -3.854513    2.343523    0.497756
 C   -3.600128    3.765002    0.054572
 O   -4.165750    4.313030   -0.859612
 O   -2.635797    4.364135    0.779789
 O   -1.272961    2.077400   -1.586681
 H    6.874600    0.963779    0.420044
 H    6.661653   -0.625649    1.205911
 H    6.299696   -0.431075   -0.517891
 H    4.865824    2.050128   -0.351864
 H    2.642327    1.403321    1.454517
 H    3.440528    3.635862    1.615731
 H    0.990533    3.096776    1.977250
 H    1.288589    4.792734    1.556311
 H    0.656336    3.676665    0.336861
 H    3.075887    5.359826   -0.152635
 H    2.634735    4.081288   -1.303080
 H    4.284816    4.177458   -0.649824
 H    2.501331   -0.533019    0.119622
 H    0.445727   -0.149257   -1.962678
 H    1.354549   -1.900856   -3.346224
 H    2.626395   -0.712011   -3.068693
 H    3.794757   -3.304153   -0.642486
 H    0.052835   -0.652763    0.822646
 H   -0.413456   -3.570772    0.995231
 H   -0.968498   -3.118172    3.396809
 H    1.273445   -3.993982    2.655861
 H    1.416125   -2.978496    4.099606
 H    1.870067   -2.325789    2.515773
 H    0.306240   -0.357892    2.964019
 H   -1.421143   -0.655438    3.270846
 H   -0.203039   -1.069023    4.495484
 H   -1.877737   -3.129952   -0.726974
 H   -3.928075   -2.959609   -1.659910
 H   -5.086086   -3.806200    0.373910
 H   -6.011721   -2.530427   -0.446796
 H   -5.125153   -2.172611    1.055546
 H   -3.517848   -0.336464    0.782026
 H   -3.630833    1.558212   -1.517352
 H   -3.418979    2.174802    1.487537
 H   -4.935318    2.186872    0.534104
 H   -2.526131    5.249533    0.393703
 H   -0.283396    2.108988   -1.536593
