66 
3r8i_ligand_ani.xyz
 N    0.926964    2.013759    0.492461
 N    2.005398   -0.095800    0.436649
 C    9.462200   -3.741074   -0.223377
 C   -6.652136    0.996451   -0.251526
 C   -6.357353   -1.038207   -1.710755
 O   -7.946229   -2.026016    1.088365
 O   -9.009370   -0.681738   -0.326567
 C    1.564904    5.656323   -0.072236
 C    2.918527    5.534848   -0.410907
 C   -2.236844    0.177660    0.135188
 C   -2.332733   -2.163856   -0.375086
 C   -3.593230    0.184006    0.434072
 C   -3.688721   -2.174455   -0.072598
 C    0.790855    4.547531    0.251626
 C    3.551201    4.295373   -0.439680
 C    8.375775   -2.716925    0.096386
 C    7.156400   -2.855796   -0.815611
 C    6.065286   -1.804097   -0.593941
 C    5.373450   -1.896616    0.768032
 C    4.311101   -0.820414    1.009354
 C   -0.112413   -0.937906   -0.585376
 C    3.163751   -0.864890   -0.000295
 C    0.736302   -0.752935    0.689640
 O   -5.658069   -1.052791    0.651557
 O    3.116299    1.880274   -0.067268
 C   -7.976710   -1.069776    0.157150
 C   -1.589844   -0.988821   -0.281368
 C   -4.321171   -0.998336    0.323707
 C    1.965000    1.246622    0.302476
 C    1.411380    3.297734    0.228627
 C    2.759645    3.212490   -0.115169
 C   -6.613795   -0.526547   -0.295073
 H    9.082860   -4.763370   -0.108979
 H    9.814548   -3.633124   -1.255944
 H   10.326364   -3.628987    0.439345
 H   -6.734232    1.343392    0.782499
 H   -5.762895    1.434695   -0.713492
 H   -7.528146    1.336551   -0.808933
 H   -5.392286   -0.679176   -2.080605
 H   -6.358227   -2.132529   -1.733183
 H   -7.151270   -0.671328   -2.365639
 H   -7.019692   -2.142953    1.361095
 H    1.104616    6.641249   -0.061759
 H    3.486477    6.428114   -0.657011
 H   -1.659386    1.095407    0.227709
 H   -1.846043   -3.084401   -0.691084
 H   -4.079126    1.091841    0.776646
 H   -4.274049   -3.087942   -0.146208
 H   -0.258460    4.657852    0.511545
 H    4.599572    4.195051   -0.701651
 H    8.784822   -1.702036   -0.002332
 H    8.075183   -2.826434    1.145853
 H    6.724720   -3.859970   -0.688229
 H    7.493753   -2.799729   -1.859794
 H    5.320225   -1.910484   -1.393034
 H    6.498554   -0.798866   -0.709737
 H    6.121794   -1.825430    1.567548
 H    4.913654   -2.891670    0.869702
 H    4.769837    0.174250    0.985850
 H    3.890618   -0.954635    2.012750
 H    0.209514   -1.836594   -1.127446
 H    0.082071   -0.077138   -1.237663
 H    3.496144   -0.514260   -0.985519
 H    2.820204   -1.899678   -0.124425
 H    0.193704   -0.131840    1.408501
 H    0.922030   -1.719685    1.171602
