64 
3r91_ligand_ani.xyz
 C    3.157281   -3.286109   -0.677140
 C    2.573687   -1.902113   -0.618459
 C    1.259332   -1.513889   -0.716121
 N    1.176182   -0.119545   -0.596525
 C    2.454226    0.360918   -0.404080
 C    3.321298   -0.708578   -0.425215
 C    4.765931   -0.538746   -0.206096
 O    5.562000   -1.460117   -0.187369
 C    5.214391    0.904183   -0.033731
 C    4.179498    1.848841    0.615058
 C    2.867126    1.782089   -0.190954
 C    3.928736    1.440498    2.073121
 C    4.717779    3.278612    0.573790
 C   -0.017960    0.652291   -0.549602
 C   -0.156318    1.836352   -1.274732
 C   -1.293198    2.609727   -1.103517
 C   -2.335248    2.222001   -0.252937
 C   -2.277975    0.921401    0.301487
 C   -1.084587    0.213525    0.229102
 N   -3.378965    0.316788    0.959321
 C   -4.125805   -0.696859    0.186850
 C   -3.278986   -1.938549   -0.150908
 O   -3.172694   -2.302138   -1.314549
 N   -2.688493   -2.622082    0.876588
 C   -1.719387   -3.667513    0.538499
 C   -0.272791   -3.168711    0.452547
 C    0.071449   -2.423289   -0.859311
 C   -2.812459   -2.244648    2.277087
 C   -4.767351   -0.140016   -1.079498
 C   -3.461104    3.161283    0.041691
 O   -4.557028    2.805477    0.467509
 N   -3.218253    4.486478   -0.204371
 H    3.958519   -3.331599   -1.421811
 H    3.617458   -3.543036    0.283684
 H    2.403268   -4.043356   -0.920350
 H    6.146364    0.903568    0.538239
 H    5.454545    1.280392   -1.038824
 H    2.081241    2.359292    0.313951
 H    3.041467    2.259333   -1.167657
 H    3.542680    0.418597    2.151041
 H    3.200007    2.115024    2.537773
 H    4.858596    1.495088    2.651249
 H    3.996586    3.978637    1.011345
 H    5.653896    3.363808    1.138304
 H    4.915266    3.599485   -0.455924
 H    0.626200    2.172418   -1.947787
 H   -1.379200    3.537482   -1.661574
 H   -0.970524   -0.692952    0.808154
 H   -4.036873    1.057870    1.195291
 H   -4.925693   -1.035933    0.863123
 H   -1.789873   -4.437998    1.315382
 H   -2.036838   -4.111635   -0.408073
 H   -0.077948   -2.523557    1.320916
 H    0.414403   -4.017592    0.562914
 H    0.300229   -3.176186   -1.628011
 H   -0.795173   -1.884721   -1.255110
 H   -2.531083   -3.103226    2.895220
 H   -2.175000   -1.393957    2.555849
 H   -3.846323   -1.979134    2.518441
 H   -5.369270   -0.910701   -1.567631
 H   -5.404623    0.713767   -0.827823
 H   -4.001793    0.194022   -1.787053
 H   -2.272499    4.834754   -0.165995
 H   -3.934924    5.108575    0.141349
