67 
3r92_ligand_dft.xyz
 C    3.037836   -3.455028   -0.629524
 C    2.596392   -2.029193   -0.529585
 C    1.319472   -1.544117   -0.623637
 N    1.373485   -0.142339   -0.511517
 C    2.677292    0.242533   -0.345729
 C    3.451274   -0.894685   -0.346973
 C    4.900470   -0.829556   -0.144800
 O    5.606157   -1.819553   -0.080931
 C    5.467321    0.583358   -0.055386
 C    4.530638    1.623756    0.597937
 C    3.173851    1.636474   -0.149243
 C    5.165900    3.014153    0.492374
 C    4.311954    1.280035    2.079136
 C    0.240975    0.701006   -0.466444
 C    0.064329    1.737102   -1.377137
 C   -1.107168    2.480699   -1.302655
 C   -2.120855    2.200370   -0.382804
 C   -1.945502    1.124841    0.529614
 C   -0.729813    0.428554    0.491567
 N   -2.929116    0.782304    1.431663
 C   -3.002322   -0.487160    2.108231
 C   -3.700042   -1.600240    1.304372
 C   -5.124956   -1.225617    0.851377
 C   -4.995684   -0.847842   -0.627391
 C   -3.970772   -1.849637   -1.120673
 N   -2.953356   -1.917049   -0.006963
 C   -2.138827   -3.194164   -0.024312
 C   -0.661431   -2.945732    0.253446
 C    0.042653   -2.260366   -0.940537
 C   -3.400525    2.974210   -0.386144
 O   -4.465352    2.472900   -0.013924
 N   -3.347654    4.246019   -0.842467
 H    3.491223   -3.788630    0.308596
 H    3.805610   -3.570175   -1.399257
 H    2.202630   -4.122718   -0.867395
 H    6.422680    0.530320    0.475495
 H    5.693462    0.896665   -1.085828
 H    2.446885    2.242508    0.406063
 H    3.306267    2.123717   -1.126229
 H    4.510491    3.777423    0.928135
 H    5.357870    3.286337   -0.551840
 H    6.120044    3.046341    1.028679
 H    3.831857    0.304219    2.207295
 H    5.269447    1.253127    2.609469
 H    3.682099    2.035566    2.562853
 H    0.807309    1.932017   -2.141464
 H   -1.265796    3.267176   -2.034514
 H   -0.495044   -0.319900    1.235755
 H   -3.799495    1.286390    1.289973
 H   -3.589380   -0.358684    3.022852
 H   -2.013096   -0.811147    2.440508
 H   -3.691131   -2.518160    1.896697
 H   -5.533504   -0.410755    1.453300
 H   -5.791368   -2.085280    0.967506
 H   -4.643624    0.182269   -0.739774
 H   -5.939080   -0.944204   -1.167807
 H   -3.453164   -1.589322   -2.046116
 H   -4.402485   -2.849687   -1.217784
 H   -2.297702   -1.140321   -0.163921
 H   -2.596304   -3.876191    0.695048
 H   -2.258825   -3.627291   -1.021106
 H   -0.189653   -3.914949    0.441837
 H   -0.537356   -2.378046    1.180728
 H   -0.639384   -1.554707   -1.434026
 H    0.247897   -3.030134   -1.693163
 H   -4.203744    4.781338   -0.808151
 H   -2.480329    4.753053   -0.919070
