41 
3r9d_ligand_ani.xyz
 N   -0.395578    3.412284    0.059165
 N    1.745987    2.522726    0.138542
 N   -3.248657   -0.350707   -0.005950
 N   -2.680888    3.939424   -0.043242
 N    5.403603   -2.784481   -0.937213
 C   -1.934182    1.643474   -0.002424
 C   -1.706356    3.012933    0.007907
 C    0.396677    2.369912    0.089598
 C    2.754909    1.532592    0.134104
 C   -3.248203    1.020124   -0.012116
 C    3.763702    1.618887   -0.829497
 C    4.779102    0.673886   -0.870058
 C    4.787912   -0.349564    0.072041
 C    3.811379   -0.424651    1.060240
 C    2.790298    0.516180    1.092284
 C   -4.351712   -1.224328   -0.021509
 C   -4.084153   -2.598449    0.012112
 C   -5.127495   -3.514478   -0.006754
 C   -6.449347   -3.084451   -0.059145
 C   -6.679746   -1.719201   -0.089564
 C   -5.670417   -0.769632   -0.071630
 O   -4.278763    1.700431   -0.022416
 O    6.214974   -2.127906    1.348329
 O    7.182699   -1.013178   -0.728274
 F   -7.950503   -1.283003   -0.139530
 S   -0.383841    0.801691    0.031808
 S    6.063904   -1.575849    0.011448
 H    2.032206    3.482293   -0.005582
 H   -2.337957   -0.792043    0.015398
 H   -2.434191    4.907651    0.066213
 H   -3.633331    3.601322   -0.005899
 H    5.354360   -3.650494   -0.410841
 H    5.932615   -2.885947   -1.796963
 H    3.743059    2.428835   -1.553637
 H    5.568172    0.732806   -1.613718
 H    3.858251   -1.210866    1.807592
 H    2.032318    0.468532    1.868041
 H   -3.055768   -2.949769    0.053150
 H   -4.906548   -4.577817    0.018981
 H   -7.286188   -3.774213   -0.076718
 H   -5.910241    0.284363   -0.096099
