109 
3rbq_ligand_xtb.xyz
 O    0.489412    0.238710    2.449683
 C   -0.015286   -0.562563    3.210446
 C   -1.017603   -0.170088    4.278148
 C   -2.221588    0.534302    3.638019
 C   -2.906638   -0.344437    2.593240
 C   -4.119622    0.325506    1.951321
 C   -4.841622   -0.629964    1.000905
 C   -5.775417    0.075540    0.019088
 C   -6.952068    0.769483    0.700669
 C   -7.908252    1.432906   -0.291416
 C   -8.686083    0.427702   -1.139522
 C   -9.818288    1.069333   -1.942164
 C   -9.319121    2.020362   -3.023605
 N    0.249240   -1.889057    3.137309
 C    1.128364   -2.462840    2.148363
 C    0.404515   -3.311748    1.114307
 O    0.999750   -4.133771    0.427314
 N   -0.909819   -3.096440    1.010286
 C   -1.777240   -3.786634    0.081385
 C   -2.431491   -2.811873   -0.919761
 O   -3.538049   -3.016164   -1.372377
 C   -2.856317   -4.564300    0.828426
 N   -1.676660   -1.739307   -1.216879
 C   -2.123573   -0.740775   -2.160017
 C   -1.960107    0.691392   -1.645147
 O   -2.878124    1.486689   -1.637985
 N   -0.715603    1.003800   -1.246364
 C   -0.382537    2.343907   -0.812921
 C    1.107161    2.553594   -1.029476
 O    1.807708    1.712905   -1.583467
 C   -0.796177    2.560706    0.645917
 N    1.609883    3.710578   -0.583712
 C    3.006570    4.082436   -0.713773
 C    3.838033    3.394693    0.396719
 O    4.391331    4.021823    1.279534
 C    3.111010    5.609180   -0.586936
 O    2.585577    6.046460    0.634849
 N    3.869512    2.064483    0.252852
 C    4.413906    1.158468    1.253131
 C    4.427589   -0.241882    0.634947
 O    3.905371   -1.207604    1.147967
 C    3.603923    1.182052    2.545811
 N    5.035100   -0.286179   -0.571691
 C    5.220706   -1.523529   -1.287770
 C    6.703587   -1.746964   -1.532650
 O    7.546516   -0.902325   -1.390038
 C    4.488336   -1.537589   -2.644176
 C    3.024934   -1.118366   -2.528193
 C    2.211434   -1.926151   -1.543345
 O    2.690366   -3.118235   -1.298027
 O    1.180415   -1.498504   -1.060703
 O    6.963032   -2.981331   -1.955620
 H   -0.525561    0.519314    4.966809
 H   -1.347339   -1.046087    4.839482
 H   -1.879428    1.454589    3.164379
 H   -2.934651    0.800147    4.420602
 H   -2.189287   -0.570179    1.798836
 H   -3.220656   -1.284651    3.058236
 H   -4.802635    0.664641    2.732219
 H   -3.790077    1.201398    1.389879
 H   -5.407665   -1.364322    1.580271
 H   -4.098878   -1.174706    0.416172
 H   -6.150729   -0.674353   -0.678302
 H   -5.199936    0.805796   -0.553687
 H   -6.570954    1.537699    1.376984
 H   -7.503848    0.041467    1.301938
 H   -7.333961    2.097084   -0.938576
 H   -8.622941    2.043936    0.267162
 H   -9.114683   -0.330954   -0.479114
 H   -8.007574   -0.076845   -1.828744
 H  -10.482503    1.609581   -1.262761
 H  -10.404351    0.276080   -2.413446
 H   -8.807983    2.873295   -2.585482
 H   -8.626446    1.508545   -3.688056
 H  -10.152944    2.391488   -3.615966
 H   -0.147869   -2.514758    3.820446
 H    1.630599   -1.640240    1.624820
 H    1.908177   -3.071019    2.614529
 H   -1.336944   -2.390268    1.593536
 H   -1.143442   -4.477581   -0.487831
 H   -3.426536   -3.892271    1.466637
 H   -3.538533   -5.004172    0.107498
 H   -2.412967   -5.349830    1.434772
 H   -0.704213   -1.707768   -0.933910
 H   -3.183527   -0.922022   -2.355653
 H   -1.566593   -0.826173   -3.101799
 H    0.045174    0.333153   -1.269734
 H   -0.940258    3.046121   -1.449642
 H   -0.256467    1.872930    1.292349
 H   -1.862503    2.364078    0.723481
 H   -0.615243    3.582059    0.970037
 H    1.043841    4.370217   -0.069023
 H    3.371304    3.744937   -1.690795
 H    4.161801    5.904199   -0.699271
 H    2.521154    6.088632   -1.372566
 H    3.159951    5.679940    1.326807
 H    3.263335    1.660194   -0.457533
 H    5.446694    1.466826    1.465651
 H    3.649671    2.173580    2.987141
 H    2.567155    0.922337    2.346861
 H    4.016279    0.459189    3.243868
 H    5.570457    0.506180   -0.894754
 H    4.830348   -2.329641   -0.657466
 H    4.989931   -0.853128   -3.332030
 H    4.557923   -2.549057   -3.044122
 H    2.544032   -1.240052   -3.502914
 H    2.922680   -0.067841   -2.255245
 H    2.132505   -3.617295   -0.635473
 H    7.912862   -3.099959   -2.118980
