32 
3rdo_ligand_xtb.xyz
 C    2.631565    0.737364   -0.196387
 O    2.522613    1.027845    0.974378
 O    2.158259    1.478825   -1.179184
 C    3.259802   -0.544742   -0.695215
 C    2.937451   -1.751591    0.202913
 C    1.520266   -1.766291    0.790546
 C    0.427477   -1.522636   -0.249181
 C   -0.969940   -1.414190    0.355431
 S   -2.181624   -1.471377   -1.023252
 C   -3.385452   -0.475304   -0.106305
 C   -2.570779    0.538514    0.681040
 N   -2.073473    1.618358   -0.135502
 C   -0.751613    1.868979    0.075773
 O   -0.086034    2.754472   -0.429347
 N   -0.306124    0.936422    0.954547
 C   -1.253734   -0.117957    1.173477
 H    1.552973    2.204930   -0.863887
 H    4.342203   -0.406020   -0.730635
 H    2.911384   -0.708073   -1.715061
 H    3.637126   -1.770795    1.039819
 H    3.096591   -2.655842   -0.387283
 H    1.462403   -1.015724    1.578522
 H    1.355353   -2.739148    1.260281
 H    0.623663   -0.611807   -0.814514
 H    0.420532   -2.350744   -0.962218
 H   -1.172896   -2.284084    0.987075
 H   -3.954539   -1.123063    0.561906
 H   -4.057135   -0.001860   -0.818482
 H   -3.171553    0.924626    1.519220
 H   -2.672573    2.257242   -0.625238
 H    0.659281    0.912215    1.253413
 H   -1.298611   -0.375304    2.236467
