32 
3rdo_ligand_ani.xyz
 C    2.690193    0.691936   -0.228791
 O    2.689094    1.041849    0.937801
 O    2.184647    1.429301   -1.215857
 C    3.213351   -0.642540   -0.715067
 C    2.887841   -1.802784    0.239596
 C    1.451648   -1.815809    0.790606
 C    0.352836   -1.635833   -0.260608
 C   -1.038698   -1.432744    0.352176
 S   -2.289485   -1.467088   -0.979891
 C   -3.417749   -0.372675   -0.086227
 C   -2.538122    0.619429    0.659873
 N   -2.004182    1.674860   -0.192203
 C   -0.675672    1.915336    0.077911
 O   -0.000619    2.848077   -0.349557
 N   -0.247292    0.918952    0.903421
 C   -1.242950   -0.103562    1.143587
 H    1.639720    2.158607   -0.824896
 H    4.301352   -0.551220   -0.831800
 H    2.802843   -0.816511   -1.715153
 H    3.573757   -1.764713    1.093249
 H    3.096309   -2.742525   -0.286962
 H    1.368137   -1.035222    1.552693
 H    1.286373   -2.764508    1.318573
 H    0.560006   -0.779450   -0.910735
 H    0.314643   -2.514540   -0.914087
 H   -1.262126   -2.263102    1.033967
 H   -4.032561   -0.939720    0.620949
 H   -4.076992    0.137331   -0.794030
 H   -3.077843    1.039795    1.518007
 H   -2.571633    2.451820   -0.494796
 H    0.683458    0.960531    1.304498
 H   -1.294412   -0.338195    2.212836
