33 
3rdq_ligand_ani.xyz
 C    1.043616   -1.604668    0.084696
 O    0.457860   -2.671817   -0.082605
 N    0.590362   -0.523131    0.779174
 C    1.486108    0.625438    0.705621
 C    2.804279   -0.091300    0.280022
 N    2.290588   -1.274621   -0.408079
 C    3.781308    0.693417   -0.578936
 C    1.015625    1.697721   -0.290858
 C   -0.119051    2.616036    0.184236
 C   -1.483641    1.968785    0.449048
 C   -2.170373    1.390143   -0.796684
 C   -3.202041    0.292270   -0.469181
 C   -2.461337   -0.912260    0.056162
 O   -2.269457   -1.130765    1.239392
 O   -1.944363   -1.657604   -0.916515
 H   -0.247564   -0.607207    1.342954
 H    1.598531    1.079371    1.698907
 H    3.311552   -0.386387    1.212364
 H    2.908636   -2.049813   -0.600325
 H    4.081146    1.626030   -0.088149
 H    3.342437    0.927662   -1.553281
 H    4.686846    0.102433   -0.751312
 H    0.745915    1.189488   -1.227801
 H    1.865761    2.350484   -0.524713
 H    0.209083    3.122028    1.103091
 H   -0.241785    3.410538   -0.565243
 H   -2.144948    2.723695    0.894302
 H   -1.377193    1.196363    1.217289
 H   -2.660660    2.195523   -1.355543
 H   -1.426234    0.959278   -1.479421
 H   -3.757066    0.012750   -1.369683
 H   -3.906462    0.627325    0.297301
 H   -1.273918   -2.267284   -0.515341
