33 
3rdq_ligand_xtb.xyz
 C    1.054580   -1.565031    0.111628
 O    0.418951   -2.578546   -0.130827
 N    0.649460   -0.521293    0.871064
 C    1.509790    0.632832    0.722869
 C    2.823922   -0.072340    0.278297
 N    2.298401   -1.262164   -0.365395
 C    3.756257    0.692282   -0.649091
 C    0.974614    1.640610   -0.310308
 C   -0.147653    2.565731    0.176039
 C   -1.516573    1.929126    0.428449
 C   -2.171128    1.341523   -0.825884
 C   -3.212638    0.258221   -0.487432
 C   -2.437756   -0.906265    0.081102
 O   -2.155830   -0.999564    1.256471
 O   -1.996702   -1.730636   -0.844651
 H   -0.278519   -0.496600    1.266656
 H    1.642429    1.136127    1.686028
 H    3.386516   -0.350159    1.186100
 H    2.907936   -1.987600   -0.701032
 H    4.046651    1.638057   -0.199891
 H    3.284660    0.874459   -1.609952
 H    4.655700    0.104166   -0.817425
 H    0.659006    1.088003   -1.196198
 H    1.801629    2.289165   -0.600126
 H    0.180884    3.046966    1.100681
 H   -0.269639    3.351701   -0.574223
 H   -2.174208    2.700144    0.837729
 H   -1.426188    1.161528    1.194959
 H   -2.656440    2.136859   -1.394634
 H   -1.417705    0.888874   -1.472542
 H   -3.732774   -0.052513   -1.392166
 H   -3.922766    0.631977    0.249212
 H   -1.254029   -2.307122   -0.504807
