34 
3re4_ligand_dft.xyz
 C   -1.328486   -0.244426   -0.832188
 N    0.058022    0.150609   -0.574257
 O   -2.081393    0.892303   -1.114933
 C    1.051750   -0.737596   -0.257783
 N    0.890774   -2.063376   -0.098142
 O   -1.941878   -2.346520    0.293263
 C    2.030580   -2.673005    0.215835
 N    3.240490   -2.133387    0.379436
 O   -4.139964   -1.225794   -0.578836
 C    3.373110   -0.806981    0.227042
 N    3.644115    3.273643   -0.208260
 O   -1.976879    1.761628    1.592386
 C    2.242863   -0.030292   -0.107101
 N    4.595825   -0.271185    0.404646
 C    1.928421    1.354070   -0.337873
 C    0.580891    1.409809   -0.616562
 C    2.840688    2.437513   -0.277816
 C   -1.957484   -0.949913    0.390002
 C   -3.400272   -0.443069    0.324966
 C   -3.237136    0.959073   -0.265494
 C   -3.068371    2.073754    0.750903
 H   -1.324082   -0.923359   -1.693457
 H   -1.004853   -2.599949    0.166943
 H    1.971820   -3.748461    0.361523
 H   -3.762272   -2.118061   -0.518324
 H   -1.830354    2.496329    2.197630
 H    4.765424    0.716963    0.301119
 H    5.358588   -0.885567    0.640509
 H   -0.051927    2.252437   -0.842923
 H   -1.472040   -0.587526    1.302392
 H   -3.872382   -0.417987    1.316392
 H   -4.097732    1.187117   -0.901377
 H   -4.005962    2.173103    1.319152
 H   -2.897210    3.014264    0.207837
