32 
3rf4_ligand_xtb.xyz
 N   -3.274927   -1.559771    1.475240
 S   -3.446129   -0.422785    0.254250
 O   -4.101022    0.730034    0.803401
 O   -4.011889   -1.061308   -0.893771
 C   -1.757436    0.034856   -0.069325
 C   -0.829999   -0.887970   -0.541013
Cl   -1.326572   -2.503918   -0.770088
 C    0.464694   -0.503927   -0.798942
 C    0.877305    0.830818   -0.601418
 N    2.129620    1.219917   -0.883935
 C    3.206827    0.352185   -1.308697
 C    3.695684   -0.532923   -0.202924
 C    4.408258   -0.253671    0.926041
 C    4.537527   -1.478530    1.625163
 C    3.892407   -2.407772    0.871342
 O    3.377457   -1.845957   -0.234009
 C   -0.080430    1.778671   -0.120943
 C   -1.377141    1.339418    0.137484
 C    0.313624    3.185377    0.112911
 O   -0.651764    4.069363    0.379649
 O    1.462096    3.575312    0.071828
 H   -3.667111   -1.234856    2.343355
 H   -3.638219   -2.462662    1.215636
 H    1.168536   -1.243883   -1.138220
 H    2.355877    2.171784   -0.603336
 H    4.019446    0.996798   -1.649218
 H    2.881255   -0.271837   -2.146429
 H    4.794117    0.700674    1.219591
 H    5.041986   -1.638463    2.555375
 H    3.737544   -3.459715    1.004228
 H   -2.151999    1.980939    0.533624
 H   -1.541450    3.692615    0.354890
