32 
3rf4_ligand_dft.xyz
 N   -3.340765   -1.771371    1.415534
 S   -3.478829   -0.619825    0.215326
 O   -4.161668    0.521825    0.808401
 O   -3.979749   -1.259294   -0.987390
 C   -1.801717   -0.100079   -0.071894
 C   -0.771689   -0.937472   -0.524298
Cl   -1.035092   -2.633707   -0.798004
 C    0.499189   -0.448171   -0.735323
 C    0.804230    0.915066   -0.522619
 N    2.056414    1.387496   -0.728019
 C    3.176787    0.588170   -1.159421
 C    3.686593   -0.327203   -0.085912
 C    3.465350   -0.413330    1.250398
 C    4.269592   -1.505608    1.714696
 C    4.909684   -1.990170    0.623293
 O    4.562655   -1.283631   -0.483841
 C   -0.249905    1.780193   -0.103880
 C   -1.511872    1.238593    0.131179
 C    0.006762    3.229596    0.108043
 O   -1.054184    4.053199    0.153823
 O    1.115924    3.706346    0.239188
 H   -3.889027   -1.500707    2.225426
 H   -3.581879   -2.693616    1.068239
 H    1.276008   -1.138452   -1.036982
 H    2.213888    2.341811   -0.423863
 H    3.965280    1.279634   -1.474094
 H    2.911954    0.003311   -2.050152
 H    2.809553    0.218504    1.831463
 H    4.351470   -1.875054    2.726377
 H    5.609472   -2.795411    0.464417
 H   -2.320622    1.848549    0.523135
 H   -1.859662    3.603706   -0.132734
