36 
3ri1_ligand_ani.xyz
 C   -1.603954    0.091552    0.238429
 C   -1.072579   -0.915929    1.039424
 N   -2.754165   -0.059581   -0.450386
 C   -3.327170   -1.252231   -0.375723
 N   -4.501875   -1.421184   -1.058975
 N   -2.888431   -2.319267    0.323798
 C   -1.778892   -2.118221    1.017681
 C    0.143816   -0.674977    1.898865
 C    1.146783    0.298312    1.246393
 C    2.124026   -0.389250    0.284112
 C    0.426223    1.466038    0.603263
 C   -0.881093    1.361861    0.110396
 C    1.763228   -0.716900   -1.023081
 C    2.649869   -1.396853   -1.852503
 C    3.913830   -1.751972   -1.391067
 C    4.289142   -1.419831   -0.093546
 C    3.398899   -0.742173    0.733283
 C    1.115230    2.664416    0.423946
 C    0.524720    3.750325   -0.204429
 C   -0.782663    3.643441   -0.683394
 C   -1.477348    2.458941   -0.534683
 H   -4.766804   -2.377281   -1.239209
 H   -4.671775   -0.752855   -1.795390
 H   -1.423116   -2.971494    1.601723
 H   -0.166320   -0.248274    2.863282
 H    0.639194   -1.625830    2.117929
 H    1.779512    0.708185    2.045049
 H    0.780793   -0.430749   -1.398233
 H    2.351717   -1.648120   -2.867159
 H    4.603623   -2.283108   -2.042156
 H    5.276110   -1.687056    0.276726
 H    3.702878   -0.478141    1.745065
 H    2.139135    2.739719    0.784958
 H    1.076772    4.678460   -0.325360
 H   -1.252993    4.488913   -1.179635
 H   -2.489842    2.348559   -0.912842
