32 
3rik_ligand_dft.xyz
 O   -3.738757   -0.639475    0.032827
 O    0.163402   -2.236268    1.153420
 O    0.384225    2.586737    0.093129
 O    2.833395   -1.323692   -0.965351
 O    2.998436    1.269275   -0.306618
 C   -3.310284    0.294419   -0.937584
 C   -2.139431    1.022897   -0.297870
 C   -0.634334   -0.945904   -0.623346
 C   -0.255195    0.662977    1.323335
 C    0.582275   -1.694072   -0.085342
 C    0.897628    1.417191    0.689985
 C    1.906150   -0.867757    0.004018
 C    1.751935    0.626764   -0.306290
 N   -1.229360    0.024868    0.367654
 H   -4.544717   -1.081689   -0.258351
 H    0.733503   -2.973666    1.402565
 H    1.135987    3.119013   -0.202777
 H    3.391852   -2.015664   -0.592952
 H    3.568440    0.776970   -0.915133
 H   -3.012736   -0.200304   -1.871849
 H   -4.082301    1.034521   -1.177969
 H   -1.549995    1.610310   -1.001706
 H   -2.494297    1.685215    0.493557
 H   -0.394860   -0.399903   -1.536024
 H   -1.425883   -1.664479   -0.839426
 H    0.115872   -0.144765    1.953642
 H   -0.835995    1.353000    1.938295
 H    0.779433   -2.485875   -0.819613
 H    1.563758    1.667444    1.528951
 H    2.310469   -0.977912    1.020209
 H    1.288099    0.719250   -1.300547
 H   -1.859179   -0.547248    0.944850
