34 
3rjc_ligand_dft.xyz
 F   -6.279395   -0.679459    1.218184
 N   -0.361958    2.665621   -0.241243
 C    0.997644    2.543922   -0.165042
 N    1.749535    3.656795   -0.140051
 C    1.513128    1.244040   -0.128842
 C    2.904282    0.937864    0.056745
 C    3.375612   -0.486898    0.082713
 C    2.886738   -1.459764   -0.792053
 C    3.386009   -2.758637   -0.746844
 C    4.370401   -3.095467    0.176719
 C    4.871993   -2.124793    1.042295
 C    4.386512   -0.824796    0.986253
 O    3.734867    1.842441    0.226453
 S    0.155100    0.113491   -0.152976
 C   -0.921477    1.482578   -0.239415
 N   -2.280063    1.385673   -0.265805
 C   -3.098470    0.244147   -0.218947
 C   -4.295231    0.328738    0.497980
 C   -5.133858   -0.771654    0.529575
 C   -4.824255   -1.963238   -0.109155
 C   -3.631191   -2.027868   -0.819332
 C   -2.773246   -0.934888   -0.894136
 H    1.292509    4.547618   -0.039325
 H    2.736970    3.530649    0.052466
 H    2.141626   -1.198419   -1.537782
 H    3.009422   -3.505271   -1.439591
 H    4.754328   -4.110622    0.216449
 H    5.647765   -2.382133    1.757284
 H    4.782828   -0.052544    1.637489
 H   -2.730230    2.282956   -0.144434
 H   -4.568511    1.228065    1.039783
 H   -5.506869   -2.802772   -0.050154
 H   -3.370159   -2.941803   -1.342997
 H   -1.875798   -0.992325   -1.498247
