89 
3rjm_ligand_xtb.xyz
 C    5.484984   -0.129241   -1.717979
 O    4.340189   -0.261163   -2.131624
 C    6.617189    0.324342   -2.604172
 N    5.839097   -0.403341   -0.448886
 C    4.830594   -0.551987    0.589019
 C    4.027017    0.761442    0.600327
 O    4.571449    1.835839    0.429882
 C    5.487048   -0.834667    1.945338
 C    4.429106   -0.857836    3.046046
 C    6.228143   -2.169212    1.899726
 N    2.709457    0.606298    0.769753
 C    1.747555    1.669369    0.605327
 C    0.392200    1.094343    1.006512
 O    0.243453   -0.112869    1.141885
 C    1.690357    2.086324   -0.878596
 C    0.914195    3.344749   -1.143097
 O    0.452673    4.078011   -0.299807
 O    0.812356    3.598375   -2.439807
 N   -0.599307    1.975416    1.180242
 C   -1.962377    1.489535    1.074121
 C   -2.226732    1.276715   -0.424625
 O   -1.820718    2.075194   -1.252788
 C   -2.978630    2.462756    1.694070
 C   -2.815432    2.484530    3.212304
 C   -2.852316    3.869982    1.114374
 C   -2.522865   -1.969524    0.507656
 N   -2.872858    0.157033   -0.789673
 O   -2.906143   -2.820435    1.288172
 C   -3.473139   -0.849602    0.050548
 C   -4.558314   -1.476340   -0.863144
 C   -3.147443   -0.074803   -2.204530
 C   -3.896085   -1.401721   -2.240545
 O   -5.729018   -0.705019   -0.885691
 C   -6.649048   -0.934294    0.178123
 C   -7.593822   -2.088094   -0.159969
 C   -7.418895    0.365907    0.386557
 C    0.529317   -2.524664    1.427663
 N   -1.324712   -1.982444   -0.090259
 O    1.728354   -2.523840    1.455096
 C   -0.305123   -2.955155    0.227126
 C    0.572980   -3.219858   -1.000223
 C    1.303949   -1.953442   -1.423890
 O    0.733763   -0.912768   -1.664199
 O    2.596448   -2.136871   -1.502947
 H    7.505761   -0.279686   -2.439642
 H    6.312914    0.259367   -3.644665
 H    6.848056    1.362606   -2.371136
 H    6.745645   -0.088334   -0.137575
 H    4.174490   -1.386615    0.323240
 H    6.199426   -0.027225    2.153591
 H    3.650138   -1.577445    2.805880
 H    3.972717    0.121233    3.166774
 H    4.884274   -1.141556    3.991923
 H    5.519428   -2.978929    1.744120
 H    6.748141   -2.342065    2.838825
 H    6.957775   -2.191744    1.093862
 H    2.295342   -0.311081    0.895788
 H    2.019498    2.534411    1.220563
 H    2.713964    2.250190   -1.227049
 H    1.268013    1.276962   -1.480637
 H    0.252426    4.376198   -2.591575
 H   -0.438088    2.933169    0.879632
 H   -1.993251    0.531626    1.601508
 H   -3.975521    2.075124    1.449700
 H   -2.983517    1.496787    3.636044
 H   -1.810023    2.804590    3.474074
 H   -3.526657    3.176163    3.656997
 H   -1.954117    4.361815    1.479007
 H   -3.710200    4.469991    1.408913
 H   -2.808816    3.835723    0.029229
 H   -3.943310   -0.415829    0.937692
 H   -4.771845   -2.506284   -0.551770
 H   -2.210074   -0.088266   -2.765242
 H   -3.764062    0.745094   -2.583298
 H   -3.208680   -2.238054   -2.359930
 H   -4.643008   -1.428424   -3.029450
 H   -6.093631   -1.182993    1.095033
 H   -7.036492   -3.009099   -0.313776
 H   -8.143079   -1.858050   -1.069384
 H   -8.297763   -2.242105    0.652831
 H   -8.128628    0.256257    1.201384
 H   -7.954621    0.620616   -0.523599
 H   -6.732410    1.176053    0.618300
 H   -0.081730   -2.272142    2.307255
 H   -0.987722   -1.181190   -0.615165
 H   -0.826200   -3.873955    0.538809
 H   -0.053233   -3.551403   -1.830068
 H    1.311843   -3.986095   -0.770167
 H    3.126160   -1.329095   -1.774857
