89 
3rjm_ligand_dft.xyz
 C   -5.584088   -0.581963    1.869628
 O   -5.004393   -1.667181    1.941749
 C   -6.510871   -0.145790    2.983005
 N   -5.467844    0.266963    0.830842
 C   -4.562447    0.081947   -0.288968
 C   -3.741356    1.367924   -0.393786
 O   -4.268258    2.472808   -0.287130
 C   -5.323851   -0.235631   -1.593359
 C   -4.394828   -0.215045   -2.810289
 C   -6.020807   -1.591227   -1.462857
 N   -2.430318    1.162938   -0.601216
 C   -1.431974    2.204948   -0.636482
 C   -0.133473    1.487648   -1.033641
 O   -0.118869    0.262932   -1.129280
 C   -1.308140    2.847875    0.762603
 C   -0.552286    4.145856    0.821096
 O    0.070294    4.665152   -0.085957
 O   -0.652468    4.718530    2.023415
 N    0.995557    2.213658   -1.168820
 C    2.227112    1.490913   -0.896682
 C    2.167669    1.028645    0.574011
 O    1.706115    1.769892    1.436952
 C    3.487492    2.329836   -1.178223
 C    3.615007    2.610440   -2.677254
 C    3.559223    3.622744   -0.359133
 C    2.340830   -2.233554   -0.610650
 N    2.623328   -0.207661    0.886704
 O    2.832971   -3.088323   -1.335547
 C    3.263613   -1.173553    0.007657
 C    4.273291   -1.860667    0.956188
 C    2.733690   -0.589304    2.302215
 C    3.483182   -1.925060    2.260491
 O    5.389440   -1.032151    1.168678
 C    6.398912   -1.104605    0.165084
 C    7.336888   -2.277146    0.435692
 C    7.124463    0.231597    0.180627
 C   -0.609614   -2.421778   -2.054992
 N    1.032353   -2.199082   -0.255364
 O   -1.786305   -2.554067   -2.292553
 C    0.080470   -3.099208   -0.875243
 C   -0.933834   -3.697650    0.096613
 C   -1.949858   -2.691074    0.595386
 O   -1.708297   -1.501125    0.718493
 O   -3.103416   -3.250133    0.902239
 H   -6.984506    0.822630    2.803937
 H   -7.285535   -0.906769    3.108294
 H   -5.940484   -0.101096    3.914515
 H   -5.883477    1.187592    0.886274
 H   -3.901983   -0.751482   -0.045199
 H   -6.082069    0.549743   -1.719179
 H   -3.578084   -0.937575   -2.701138
 H   -3.956620    0.774814   -2.972130
 H   -4.957193   -0.481542   -3.711292
 H   -5.281442   -2.389245   -1.326241
 H   -6.597144   -1.814570   -2.366759
 H   -6.706129   -1.613676   -0.610051
 H   -2.053643    0.218749   -0.557669
 H   -1.698539    2.971949   -1.371409
 H   -2.320927    3.045277    1.126284
 H   -0.833272    2.151028    1.461607
 H   -0.123151    5.531763    1.990775
 H    0.937293    3.193649   -0.904335
 H    2.234404    0.622866   -1.559063
 H    4.332330    1.694073   -0.875324
 H    3.623501    1.681620   -3.258266
 H    2.777542    3.221229   -3.030741
 H    4.542585    3.152299   -2.888397
 H    2.788704    4.338595   -0.667613
 H    4.530170    4.104317   -0.514488
 H    3.429895    3.433911    0.709078
 H    3.791831   -0.691125   -0.817564
 H    4.561207   -2.843667    0.569385
 H    1.742121   -0.664917    2.755607
 H    3.292281    0.184731    2.835269
 H    2.779182   -2.762087    2.218322
 H    4.144076   -2.064228    3.117450
 H    5.924186   -1.245636   -0.818601
 H    6.796696   -3.229149    0.439968
 H    7.820251   -2.150000    1.409803
 H    8.111989   -2.336356   -0.335302
 H    7.912676    0.252617   -0.578211
 H    7.580620    0.399442    1.161746
 H    6.425876    1.050733   -0.014986
 H    0.054224   -1.814404   -2.696601
 H    0.650177   -1.344360    0.133730
 H    0.684083   -3.909544   -1.304574
 H   -0.405384   -4.108572    0.963986
 H   -1.468105   -4.520830   -0.382043
 H   -3.742771   -2.573900    1.255250
