39 
3rkb_ligand_ani.xyz
 C    1.345689    1.150418   -0.010794
 C    0.822767    2.423884   -0.290133
 N   -0.539703    2.544274   -0.327759
 C   -1.111863    1.395335   -0.063344
 S   -0.027780    0.051273    0.249528
 C    2.769092    0.909378    0.106918
 N    1.573132    3.512046   -0.555566
 N   -2.449670    1.253518   -0.020041
 O    3.547396    1.858730    0.250522
 C    4.705553   -2.830526    0.043749
 N    5.350625   -1.756246    0.500593
 C    4.686854   -0.603702    0.498574
 C    3.363447   -0.463626    0.066650
 C    2.710613   -1.595306   -0.415827
 C    3.396718   -2.802499   -0.425439
 C   -4.182347   -2.085697   -0.732181
 C   -3.336409   -0.842241   -1.016548
 C   -3.192771    0.030665    0.237715
 C   -4.567248    0.401232    0.797472
 C   -5.417442   -0.838958    1.081907
 C   -5.556449   -1.707882   -0.171235
 H    2.549932    3.455912   -0.293566
 H    1.088713    4.395072   -0.572110
 H   -2.964338    2.083963   -0.276785
 H    5.268688   -3.762345    0.051984
 H    5.222575    0.270458    0.859717
 H    1.687078   -1.537308   -0.775330
 H    2.922320   -3.707633   -0.790754
 H   -3.656856   -2.721206   -0.003432
 H   -4.290329   -2.683776   -1.644837
 H   -3.810419   -0.243954   -1.808359
 H   -2.340924   -1.121812   -1.379800
 H   -2.651917   -0.547834    0.999401
 H   -5.080092    1.035157    0.057472
 H   -4.436767    1.003905    1.704835
 H   -6.403939   -0.545306    1.459518
 H   -4.939467   -1.426998    1.879359
 H   -6.144101   -2.608059    0.046561
 H   -6.112760   -1.146457   -0.935992
