76 
3rkz_ligand_xtb.xyz
 C    3.042861   -3.284368   -1.192120
 C    2.765945   -1.882304   -0.780737
 C    1.599191   -1.181649   -0.943869
 N    1.789618    0.105232   -0.450936
 C    3.048806    0.213678    0.041754
 C    3.684763   -1.000637   -0.132471
 C    5.066548   -1.211566    0.269048
 O    5.687292   -2.236028    0.084192
 C    5.673462   -0.022609    0.998545
 C    5.175182    1.352898    0.532535
 C    3.642100    1.412423    0.681016
 C    5.809329    2.441563    1.399897
 C    5.566807    1.579405   -0.929056
 C    0.715689    0.995785   -0.334873
 C    0.632297    2.198395   -1.032371
 C   -0.556127    2.894837   -0.996005
 C   -1.669154    2.421815   -0.295420
 C   -1.560046    1.236030    0.468423
 C   -0.344897    0.558751    0.435314
 N   -2.612385    0.733954    1.181101
 C   -2.467175   -0.162510    2.319436
 C   -2.917661   -1.610084    1.995278
 C   -2.073928   -2.353698    0.937318
 N   -1.813837   -1.848785   -0.412336
 C   -0.642944   -2.476553   -1.063102
 C    0.382931   -1.537780   -1.734974
 C   -2.643070   -1.205481   -1.227554
 O   -2.340271   -0.871862   -2.373333
 C   -4.100470   -0.858174   -0.833618
 C   -4.980131   -2.076265   -1.089961
 N   -4.446446    0.242608   -1.758099
 C   -2.817774   -2.475744    3.260046
 C   -3.274527    0.427566    3.477379
 C   -2.956926    3.121939   -0.417704
 O   -4.039844    2.513910   -0.499598
 N   -2.931963    4.456375   -0.450021
 H    4.116033   -3.437923   -1.253052
 H    2.586065   -3.503385   -2.155932
 H    2.645385   -3.987737   -0.460033
 H    6.758695   -0.084690    0.905675
 H    5.428871   -0.156435    2.057576
 H    3.383221    1.428950    1.746600
 H    3.251282    2.330246    0.235985
 H    6.891455    2.420033    1.302835
 H    5.558811    2.298855    2.448997
 H    5.460029    3.425548    1.094145
 H    5.116533    0.828947   -1.574341
 H    6.646073    1.519334   -1.041209
 H    5.245138    2.563934   -1.263045
 H    1.459497    2.543785   -1.630008
 H   -0.652320    3.794085   -1.585963
 H   -0.215464   -0.361262    0.976504
 H   -3.418703    1.342060    1.235508
 H   -1.414731   -0.188534    2.618668
 H   -3.971661   -1.599352    1.710814
 H   -1.087648   -2.491143    1.388743
 H   -2.514643   -3.354144    0.832323
 H   -1.041289   -3.137714   -1.838087
 H   -0.129368   -3.091731   -0.326770
 H    0.729139   -2.062769   -2.628403
 H   -0.116586   -0.631752   -2.071271
 H   -4.192960   -0.504136    0.186360
 H   -4.876619   -2.411505   -2.119996
 H   -6.024525   -1.840849   -0.896727
 H   -4.695816   -2.897200   -0.438279
 H   -4.283044    1.193818   -1.281979
 H   -5.396540    0.187767   -2.122373
 H   -3.724147    0.100155   -2.525870
 H   -3.559168   -2.178678    3.993585
 H   -2.996891   -3.520836    3.020932
 H   -1.831466   -2.395151    3.710039
 H   -3.045091   -0.069997    4.412915
 H   -4.343044    0.343980    3.288794
 H   -3.023591    1.479705    3.595632
 H   -2.081554    4.976683   -0.322260
 H   -3.798162    4.961213   -0.558008
