76 
3rkz_ligand_dft.xyz
 C    3.060140   -3.340227   -1.143179
 C    2.751741   -1.921232   -0.781351
 C    1.590247   -1.233561   -1.023511
 N    1.774017    0.087183   -0.581223
 C    3.022001    0.219177   -0.041940
 C    3.651180   -1.000609   -0.150820
 C    5.022971   -1.189607    0.319524
 O    5.628603   -2.240757    0.208042
 C    5.633823    0.021586    1.020934
 C    5.138374    1.399929    0.529672
 C    3.591572    1.443918    0.591151
 C    5.703993    2.494364    1.440700
 C    5.613420    1.647512   -0.910233
 C    0.693907    0.992188   -0.459487
 C    0.589633    2.145109   -1.235189
 C   -0.592283    2.863893   -1.161784
 C   -1.668648    2.448582   -0.363909
 C   -1.540299    1.288142    0.442366
 C   -0.322468    0.606992    0.393710
 N   -2.568726    0.803256    1.221010
 C   -2.372762   -0.103902    2.355513
 C   -2.752754   -1.580233    2.052630
 C   -1.933970   -2.319417    0.966159
 N   -1.793789   -1.875628   -0.435816
 C   -0.679384   -2.532358   -1.171394
 C    0.385062   -1.628145   -1.828270
 C   -2.704776   -1.281017   -1.223064
 O   -2.497775   -1.043436   -2.417260
 C   -4.123744   -0.941346   -0.727704
 C   -5.040554   -2.145183   -0.914534
 N   -4.540343    0.199515   -1.598852
 C   -2.576108   -2.434544    3.322688
 C   -3.180773    0.456049    3.531030
 C   -2.954701    3.183294   -0.418084
 O   -4.056810    2.597295   -0.380544
 N   -2.905025    4.520681   -0.519831
 H    3.966704   -3.396974   -1.751857
 H    2.236692   -3.804823   -1.695902
 H    3.255497   -3.938302   -0.247630
 H    6.722044   -0.054316    0.932230
 H    5.397022   -0.088444    2.090088
 H    3.270512    1.503613    1.641783
 H    3.224618    2.354508    0.102022
 H    6.798562    2.501334    1.404459
 H    5.403253    2.341168    2.483556
 H    5.352673    3.484547    1.127051
 H    5.216066    0.902544   -1.607272
 H    6.706295    1.605723   -0.965176
 H    5.299559    2.639222   -1.256918
 H    1.384469    2.426650   -1.915878
 H   -0.716937    3.735995   -1.797391
 H   -0.166289   -0.293553    0.969193
 H   -3.360313    1.426982    1.306773
 H   -1.314341   -0.080498    2.642026
 H   -3.820942   -1.615802    1.809209
 H   -0.907440   -2.376617    1.344154
 H   -2.300784   -3.354314    0.942363
 H   -1.142813   -3.131097   -1.961005
 H   -0.198632   -3.221902   -0.474477
 H    0.747468   -2.196068   -2.692622
 H   -0.104148   -0.748336   -2.249913
 H   -4.140357   -0.570284    0.287766
 H   -5.013291   -2.502305   -1.948581
 H   -6.072650   -1.903554   -0.641546
 H   -4.710047   -2.961759   -0.266402
 H   -4.277585    1.124493   -1.158902
 H   -5.542996    0.206254   -1.789653
 H   -4.003945    0.065255   -2.478961
 H   -3.313409   -2.174675    4.083956
 H   -2.703539   -3.499041    3.105211
 H   -1.577416   -2.299782    3.754729
 H   -2.950977   -0.056303    4.466123
 H   -4.258786    0.361222    3.349199
 H   -2.945691    1.514873    3.671562
 H   -2.048354    5.035091   -0.385633
 H   -3.773874    5.033278   -0.576397
