112 
3rl7_ligand_dft.xyz
 N    0.494332   -3.197050   -0.038331
 C   -0.791094   -3.510543   -0.704029
 C   -1.152735   -2.256122   -1.520129
 O   -0.267690   -1.588705   -2.047919
 C   -1.814153   -3.947126    0.350963
 O   -2.980109   -4.355176   -0.334051
 N   -2.450068   -1.948731   -1.594837
 C   -2.906059   -0.711133   -2.178084
 C   -2.315594    0.486259   -1.422367
 O   -2.140683    0.476613   -0.204378
 C   -4.458431   -0.659348   -2.142699
 C   -5.056163   -1.110174   -0.828901
 C   -5.075565   -0.283820    0.297587
 C   -5.568910   -2.405087   -0.698097
 C   -5.564106   -0.737030    1.516084
 C   -6.058168   -2.877145    0.514607
 C   -6.053527   -2.040632    1.632818
 O   -6.535733   -2.549284    2.789612
 N   -2.116725    1.589264   -2.164868
 C   -1.543220    2.796033   -1.592931
 C   -0.164230    2.448549   -0.988064
 O    0.435360    1.431916   -1.317539
 C   -2.503081    3.493830   -0.609884
 C   -3.953472    3.612950   -1.096669
 C   -4.064009    4.375907   -2.418389
 C   -4.805711    4.273272   -0.010350
 N    0.336397    3.330254   -0.099362
 C    1.654508    3.173045    0.501789
 C    1.610041    2.276098    1.746587
 O    2.203073    2.542392    2.786180
 C    2.322044    4.528505    0.770484
 C    2.658703    5.227369   -0.548105
 C    1.495723    5.435429    1.688846
 N    0.887455    1.130329    1.596594
 C    0.889033    0.115013    2.633060
 C    2.123336   -0.772422    2.410972
 O    2.041246   -1.901439    1.911421
 C   -0.438062   -0.651167    2.652688
 O   -0.724293   -1.208850    1.375396
 C   -1.589042    0.231863    3.115429
 N    3.284002   -0.170942    2.744427
 C    4.568196   -0.477319    2.105505
 C    4.442994   -0.049623    0.623377
 O    3.952262    1.041219    0.363611
 C    5.110226   -1.887244    2.391896
 O    4.572267   -2.909935    1.584886
 N    4.879824   -0.924255   -0.315559
 C    4.464912   -0.718855   -1.691199
 C    3.058673   -1.284637   -1.835657
 O    2.288539   -0.622887   -2.666565
 C    5.447051   -1.336454   -2.710568
 C    6.776765   -0.581246   -2.667753
 C    5.653978   -2.839928   -2.504927
 O    2.703088   -2.275695   -1.208588
 H    0.894093   -4.001567    0.446106
 H    0.357346   -2.434025    0.663675
 H    1.225723   -2.836304   -0.703234
 H   -0.623889   -4.332009   -1.408607
 H   -2.003783   -3.109603    1.031946
 H   -1.388691   -4.779739    0.929742
 H   -3.722378   -4.354678    0.285415
 H   -3.116792   -2.571615   -1.147869
 H   -2.575982   -0.662615   -3.222153
 H   -4.827202   -1.301448   -2.948979
 H   -4.765377    0.363076   -2.387783
 H   -4.693116    0.729903    0.232378
 H   -5.593671   -3.062669   -1.564640
 H   -5.574052   -0.070866    2.375769
 H   -6.485759   -3.871052    0.603368
 H   -6.560628   -1.863870    3.468713
 H   -2.100015    1.490390   -3.168204
 H   -1.353403    3.469197   -2.435567
 H   -2.483938    2.960393    0.345571
 H   -2.129935    4.511503   -0.428486
 H   -4.340411    2.597245   -1.255569
 H   -3.623815    5.376783   -2.328575
 H   -3.558650    3.857895   -3.241341
 H   -5.112117    4.500563   -2.707333
 H   -4.475513    5.302315    0.175655
 H   -5.858293    4.311638   -0.307855
 H   -4.741716    3.724776    0.936274
 H   -0.233178    4.097661    0.221160
 H    2.263463    2.611624   -0.216062
 H    3.254520    4.288861    1.290419
 H    3.182151    6.169673   -0.359764
 H    1.750761    5.460385   -1.117268
 H    3.300790    4.602335   -1.177472
 H    1.230154    4.928033    2.619969
 H    2.072070    6.328656    1.947727
 H    0.578114    5.794295    1.201690
 H    0.653855    0.842983    0.648337
 H    1.005334    0.635260    3.588836
 H   -0.320790   -1.500484    3.333736
 H   -1.277827   -0.593579    0.846825
 H   -1.434092    0.568377    4.144610
 H   -2.528777   -0.325990    3.066004
 H   -1.672835    1.112160    2.470362
 H    3.178971    0.804041    3.023409
 H    5.277280    0.224475    2.555978
 H    6.187293   -1.883770    2.201894
 H    4.959089   -2.092802    3.460052
 H    3.602050   -2.810691    1.637038
 H    4.942536   -1.890852    0.006232
 H    4.401598    0.357131   -1.860709
 H    1.368542   -0.960486   -2.591547
 H    4.991229   -1.180480   -3.697269
 H    6.636134    0.486694   -2.864137
 H    7.465417   -0.976957   -3.420509
 H    7.250727   -0.687050   -1.686277
 H    4.710960   -3.394220   -2.523889
 H    6.297330   -3.238172   -3.295115
 H    6.148823   -3.046594   -1.549003
