112 
3rl7_ligand_xtb.xyz
 N    0.629443   -2.989864    0.512684
 C   -0.598182   -3.458671   -0.144443
 C   -0.967703   -2.361741   -1.169054
 O   -0.076785   -1.696659   -1.669944
 C   -1.692639   -3.740903    0.893333
 O   -2.773890   -4.361865    0.233635
 N   -2.256698   -2.231814   -1.462593
 C   -2.724335   -1.068898   -2.182368
 C   -2.415477    0.177428   -1.332228
 O   -2.220209    0.095296   -0.131582
 C   -4.232501   -1.193909   -2.463423
 C   -4.992746   -1.465509   -1.193937
 C   -5.353136   -0.430573   -0.341639
 C   -5.304498   -2.770837   -0.825674
 C   -5.990274   -0.687714    0.857308
 C   -5.939808   -3.038924    0.370335
 C   -6.280622   -1.996647    1.228253
 O   -6.882467   -2.307539    2.400700
 N   -2.449964    1.332698   -2.019842
 C   -1.905874    2.562634   -1.467558
 C   -0.444849    2.280170   -1.062504
 O    0.063225    1.189394   -1.263479
 C   -2.765847    3.055043   -0.295477
 C   -4.155596    3.532288   -0.741406
 C   -4.089397    4.902476   -1.411144
 C   -5.089433    3.587336    0.466014
 N    0.205193    3.293049   -0.484247
 C    1.595253    3.198639   -0.076578
 C    1.734846    2.552451    1.306516
 O    2.442737    2.990752    2.193252
 C    2.306104    4.556351   -0.152804
 C    2.446205    5.003520   -1.605399
 C    1.613943    5.629536    0.686856
 N    0.982733    1.439762    1.454958
 C    1.095517    0.625000    2.652063
 C    2.322798   -0.271822    2.446250
 O    2.223886   -1.445187    2.107026
 C   -0.208209   -0.156526    2.909897
 O   -0.575206   -0.964102    1.809230
 C   -1.335717    0.797114    3.282247
 N    3.481834    0.379693    2.630539
 C    4.710279   -0.033805    1.956471
 C    4.390960    0.015561    0.448786
 O    3.562853    0.811866    0.038513
 C    5.249907   -1.386876    2.464056
 O    4.718550   -2.497670    1.798549
 N    5.051121   -0.825594   -0.362729
 C    4.560197   -0.913891   -1.727844
 C    3.072102   -1.250469   -1.641815
 O    2.304002   -0.545399   -2.414534
 C    5.341764   -1.945148   -2.561489
 C    6.752724   -1.426088   -2.827734
 C    5.387274   -3.320443   -1.897373
 O    2.677640   -2.118959   -0.881459
 H    1.108601   -3.705250    1.058269
 H    0.405153   -2.176845    1.148754
 H    1.331053   -2.596035   -0.198905
 H   -0.399745   -4.380857   -0.703467
 H   -2.003726   -2.800412    1.365236
 H   -1.281695   -4.405592    1.665371
 H   -3.456144   -4.594276    0.873306
 H   -2.944140   -2.809355   -0.989221
 H   -2.164612   -0.992659   -3.122396
 H   -4.384266   -2.012288   -3.168744
 H   -4.582254   -0.270374   -2.926913
 H   -5.140581    0.590614   -0.618466
 H   -5.067484   -3.589880   -1.489567
 H   -6.271719    0.128492    1.509109
 H   -6.197150   -4.047129    0.653336
 H   -7.131328   -1.507277    2.879180
 H   -2.501300    1.272338   -3.024431
 H   -1.899665    3.311053   -2.265429
 H   -2.876844    2.227418    0.405764
 H   -2.264005    3.871799    0.224805
 H   -4.557327    2.809851   -1.461007
 H   -3.717764    5.648720   -0.712142
 H   -3.441277    4.893757   -2.284455
 H   -5.080204    5.208722   -1.735661
 H   -4.717655    4.297490    1.201081
 H   -6.084836    3.900276    0.162220
 H   -5.165466    2.611563    0.940301
 H   -0.247593    4.179707   -0.330422
 H    2.088781    2.491736   -0.758552
 H    3.302668    4.393470    0.266536
 H    2.999997    5.936948   -1.656836
 H    1.470393    5.161949   -2.060967
 H    2.979555    4.256047   -2.187277
 H    1.461941    5.278207    1.703551
 H    2.239963    6.516743    0.727280
 H    0.656289    5.927344    0.260978
 H    0.660994    0.975173    0.611829
 H    1.278426    1.299874    3.494916
 H   -0.014565   -0.857892    3.730711
 H   -1.077272   -0.433889    1.158763
 H   -1.097241    1.335710    4.194078
 H   -2.255087    0.237741    3.435284
 H   -1.489855    1.512951    2.477657
 H    3.398098    1.381874    2.789010
 H    5.455449    0.737988    2.168611
 H    6.332059   -1.424336    2.314492
 H    5.050008   -1.442797    3.543352
 H    3.745404   -2.404621    1.831655
 H    5.435595   -1.672803    0.037864
 H    4.645150    0.075262   -2.190361
 H    1.346838   -0.722136   -2.249993
 H    4.813972   -2.034527   -3.517179
 H    6.723863   -0.489393   -3.378227
 H    7.309677   -2.150980   -3.414960
 H    7.281551   -1.260767   -1.892525
 H    4.402267   -3.622136   -1.552320
 H    5.741809   -4.057869   -2.612657
 H    6.068735   -3.330296   -1.049851
