35 
3rlr_ligand_ani.xyz
 N   17.404303   -1.917230   49.627567
 N   17.201100    0.346020   48.830990
 C   15.565077   -0.416210   50.169788
 C   15.313045    0.964278   49.833347
 C   16.328191    1.390326   49.005554
 C   17.433779   -4.146177   50.588265
 C   13.671233   -1.321545   51.592716
 C   11.298972   -0.832055   51.625845
 C   13.617008   -1.528984   52.969536
 C   14.263772    1.818122   50.290473
 C   12.444433   -1.348333   53.696327
 C   12.486980   -1.004225   50.921362
 C   11.277461   -0.990320   52.999664
 C   14.981322   -1.453557   50.920243
 C   16.780784   -0.751958   49.537008
 C   16.784794   -2.803463   50.417199
 C   16.538057    2.722374   48.360577
 C   13.503624   -1.858077   55.744845
 N   13.439471    2.561838   50.624926
 N   15.630581   -2.610993   51.077845
 O   12.338142   -1.498287   55.033207
Cl   12.429591   -0.861612   49.198148
Cl    9.796420   -0.761243   53.864645
 H   18.407699   -4.153807   50.095328
 H   17.552880   -4.374927   51.651655
 H   16.802049   -4.927154   50.152193
 H   10.383732   -0.576166   51.100785
 H   14.533996   -1.835940   53.464031
 H   16.454228    2.656504   47.269409
 H   15.782665    3.429676   48.714221
 H   17.526920    3.132291   48.598055
 H   13.206214   -1.913222   56.792344
 H   13.882800   -2.835205   55.420254
 H   14.291331   -1.103391   55.627921
 H   18.051345    0.364649   48.289719
