45 
3rmf_ligand_xtb.xyz
 N    0.494206   -3.706656    0.175489
 N   -1.506677   -2.598162    0.139918
 N    2.678563   -4.556861    0.224319
 N   -6.029685    1.576411   -1.720945
 C    2.263807   -2.188449    0.103356
 C    1.835280   -3.521112    0.160465
 C   -0.152862   -2.578769    0.124370
 C   -2.464296   -1.603002    0.098094
 C    3.627302   -1.788614   -0.043502
 C    3.925477   -0.338402   -0.165020
 C    4.909229    0.056181   -1.096867
 C    5.228266    1.372593   -1.254198
 C    4.597576    2.367491   -0.476096
 C    3.630291    1.973344    0.485731
 C    3.313569    0.607527    0.620196
 C   -3.804256   -2.012521    0.146289
 C   -4.822786   -1.084309    0.111742
 C   -4.512829    0.260098    0.030774
 C   -3.201034    0.684403   -0.015880
 C   -2.172999   -0.239575    0.016579
 C    4.904133    3.736822   -0.612308
 C    4.283516    4.672418    0.167671
 C    3.328369    4.282476    1.119853
 C    3.009554    2.963033    1.276971
 O    4.528130   -2.630799   -0.108150
 O   -5.354932    2.721040    0.430268
 O   -7.024158    0.889955    0.496318
 S    0.852494   -1.151687    0.056815
 S   -5.825597    1.455398   -0.050846
 H   -1.867244   -3.543337    0.203684
 H    2.323043   -5.491036    0.137281
 H    3.659292   -4.327376    0.094786
 H   -5.801517    2.497657   -2.057703
 H   -6.956626    1.302167   -2.003038
 H    5.394766   -0.712423   -1.679549
 H    5.974948    1.673034   -1.975445
 H    2.600194    0.319415    1.379278
 H   -4.033941   -3.065978    0.213902
 H   -5.858651   -1.378063    0.159975
 H   -2.997031    1.741619   -0.064354
 H   -1.154549    0.105517   -0.020146
 H    5.641303    4.032744   -1.345159
 H    4.524236    5.719754    0.058231
 H    2.848378    5.035714    1.727330
 H    2.274039    2.656744    2.007156
