45 
3rmf_ligand_dft.xyz
 N    0.422218   -3.796381    0.332726
 N   -1.606090   -2.706240    0.292089
 N    2.614249   -4.599669    0.269257
 N   -5.337381    2.353942   -1.523720
 C    2.158922   -2.225434    0.090593
 C    1.765206   -3.560156    0.226964
 C   -0.241753   -2.671954    0.255744
 C   -2.547693   -1.675096    0.207462
 C    3.515199   -1.805796   -0.133598
 C    3.853412   -0.349900   -0.252928
 C    4.847096    0.021906   -1.196883
 C    5.217795    1.330358   -1.335217
 C    4.641667    2.343110   -0.521278
 C    3.672309    1.971851    0.450008
 C    3.294220    0.608517    0.558546
 C   -3.799622   -1.979583   -0.341551
 C   -4.781872   -1.006766   -0.432489
 C   -4.510302    0.281956    0.016217
 C   -3.279508    0.592758    0.583130
 C   -2.300811   -0.384822    0.689811
 C    5.009802    3.708039   -0.636382
 C    4.445254    4.656633    0.177250
 C    3.485078    4.286101    1.147973
 C    3.109310    2.974524    1.281466
 O    4.423636   -2.639371   -0.256519
 O   -5.559813    2.484895    0.969572
 O   -7.027302    0.870017   -0.346096
 S    0.705838   -1.224076    0.052324
 S   -5.756239    1.540854   -0.118927
 H   -1.959233   -3.653204    0.249683
 H    2.240326   -5.533614    0.246589
 H    3.585488   -4.400916    0.057321
 H   -5.254657    3.348073   -1.334671
 H   -6.006010    2.163791   -2.263562
 H    5.302023   -0.757059   -1.799416
 H    5.968851    1.612674   -2.068442
 H    2.576090    0.332653    1.326643
 H   -3.998136   -2.983654   -0.705531
 H   -5.756565   -1.241961   -0.845672
 H   -3.096542    1.589752    0.969147
 H   -1.365656   -0.148171    1.182362
 H    5.750328    3.989874   -1.380423
 H    4.735388    5.698599    0.081100
 H    3.047272    5.046583    1.787472
 H    2.372051    2.684738    2.025889
