39 
3rni_ligand_xtb.xyz
 N    0.918810    2.571004   -0.074782
 N   -0.968939    1.278754   -0.080589
 N    3.010616    3.625135   -0.098227
 N   -6.099391   -0.145408    1.642854
 C    2.824288    1.224534   -0.122055
 C    2.270937    2.512122   -0.089946
 C    0.379479    1.387261   -0.085668
 C    4.222429    0.953018   -0.026016
 C   -1.828102    0.195458   -0.078904
 C    4.673265   -0.463135    0.000833
 C   -3.199583    0.472764   -0.072609
 C   -4.106616   -0.559338   -0.074110
 C   -3.711499   -1.882103   -0.082119
 C   -2.354560   -2.160715   -0.086678
 C   -1.419771   -1.139382   -0.082171
 C    4.135467   -1.433234   -0.838519
 C    4.604639   -2.733265   -0.783953
 C    5.608343   -3.076384    0.106573
 C    6.159812   -2.110325    0.932587
 C    5.702126   -0.808113    0.872986
 O    5.037402    1.876209    0.072717
 O   -6.028195    1.187707   -0.498434
 O   -6.608234   -1.220328   -0.590010
 S    1.515263    0.058767   -0.120899
 S   -5.840755   -0.151912   -0.022570
 H   -1.422572    2.185221   -0.085802
 H    2.568594    4.514965    0.040654
 H    4.011869    3.483638   -0.004049
 H   -6.410084    0.755210    1.968857
 H   -6.731498   -0.876418    1.925996
 H   -3.570323    1.485976   -0.082162
 H   -4.459523   -2.656729   -0.098881
 H   -2.013356   -3.184267   -0.095069
 H   -0.373010   -1.390215   -0.085270
 H    3.373492   -1.169041   -1.556898
 H    4.187505   -3.480861   -1.442671
 H    5.967546   -4.094147    0.149458
 H    6.951211   -2.372507    1.619280
 H    6.128642   -0.040573    1.501712
