49 
3roc_ligand_dft.xyz
 C   -5.227475    0.746051   -0.729324
 C   -5.648212    1.599504    0.288459
 C   -6.976722    1.741451    0.651571
 C   -7.910497    0.983444   -0.039303
 C   -7.553148    0.113985   -1.058958
 C   -6.206822    0.004884   -1.388928
 C   -3.772390    0.621199   -1.065569
 O   -3.185978   -0.261026   -0.094469
 C   -1.872645   -0.461655   -0.144037
 C   -1.284701   -1.268884    0.800329
 C    0.136294   -1.510898    0.790200
 N    0.788439   -0.849616   -0.299015
 C    0.107625   -0.072520   -1.172686
 N   -1.169459    0.142873   -1.142582
 C    2.216101   -0.969630   -0.430786
 C    2.785834   -2.193791   -0.805487
 C    4.172172   -2.226821   -0.953160
 C    4.958441   -1.100573   -0.736434
 C    4.371184    0.106721   -0.362633
 C    2.986771    0.162468   -0.218365
 F   -4.730754    2.326575    0.938565
 F   -9.201066    1.102823    0.293174
Cl   -2.210902   -2.014110    2.050592
 O    0.777847   -2.185111    1.571125
 C    1.949592   -3.420493   -1.038683
 C    5.137700    1.378309   -0.130107
 O    4.601045    2.471975   -0.243454
 N    6.448244    1.228315    0.198607
 C    7.294543    2.360947    0.507366
 C    8.724813    2.054057    0.109198
 O    9.104650    0.878551    0.805646
 H   -7.272307    2.415753    1.445613
 H   -8.316252   -0.459544   -1.571482
 H   -5.905636   -0.674865   -2.180873
 H   -3.264840    1.587492   -1.028734
 H   -3.636858    0.202578   -2.066704
 H    0.705380    0.389907   -1.953325
 H    4.644265   -3.156537   -1.257773
 H    6.030721   -1.166360   -0.897415
 H    2.524861    1.102614    0.066108
 H    1.609775   -3.826440   -0.080722
 H    1.057466   -3.191562   -1.631272
 H    2.522103   -4.188646   -1.564564
 H    6.797137    0.327759    0.491949
 H    7.254016    2.594823    1.579199
 H    6.915952    3.226570   -0.039887
 H    9.368171    2.905016    0.375566
 H    8.777720    1.904339   -0.979028
 H    9.978227    0.609742    0.501804
