39 
3rpr_ligand_ani.xyz
 C    4.185832    0.132745   -1.750573
 F    4.671662    2.742450   -0.823083
 N   -2.020168   -0.368255    1.079754
 O    1.805713   -2.067115    1.984806
 S   -0.893736   -1.468269   -0.986420
 C    3.862844    0.557946   -0.465252
 F    5.781300    1.490965    0.545046
 N   -3.309395   -0.309292   -0.925555
 C    2.960615   -0.160477    0.310810
 F    3.860406    2.292612    1.139133
 N   -0.453765   -0.675718    2.810106
 C    2.367705   -1.309623   -0.197350
 C    2.704611   -1.747155   -1.476554
 C    3.605978   -1.026886   -2.254845
 C    4.540101    1.772745    0.102198
 C    1.345317   -2.058320    0.638022
 C   -0.020102   -1.456529    0.528892
 C   -2.211972   -0.622152   -0.182227
 C   -0.790146   -0.829174    1.480016
 C   -4.498110    0.343415   -0.544011
 C   -5.502292    0.441976   -1.515137
 C   -6.704953    1.072011   -1.227775
 C   -6.922871    1.616419    0.034187
 C   -5.923158    1.519082    0.995591
 C   -4.711360    0.889398    0.724398
 H    4.887130    0.709556   -2.345384
 H    1.210885   -2.641842    2.488321
 H   -3.279168   -0.607591   -1.889791
 H    2.730556    0.163291    1.321366
 H    0.536797   -0.572276    2.988431
 H   -1.038479    0.001590    3.279125
 H    2.266551   -2.663087   -1.871472
 H    3.857455   -1.369419   -3.254270
 H    1.313253   -3.092172    0.249029
 H   -5.337443    0.018159   -2.503558
 H   -7.473237    1.137463   -1.994328
 H   -7.861365    2.111588    0.267314
 H   -6.084349    1.941048    1.985038
 H   -3.939747    0.818989    1.482119
