39 
3rpr_ligand_dft.xyz
 C    4.535752    0.323147   -1.249651
 F    3.945396    3.062792   -0.985035
 N   -1.769289   -0.515166    0.953627
 O    1.927829   -2.540367    1.768078
 S   -0.840250   -1.829362   -1.076892
 C    3.581310    0.817995   -0.359943
 F    4.586219    2.468610    0.989215
 N   -3.204193   -0.555433   -0.940729
 C    2.610349   -0.020810    0.168465
 F    2.477868    2.694117    0.566247
 N   -0.111250   -0.725213    2.606932
 C    2.584952   -1.371715   -0.177141
 C    3.540449   -1.862503   -1.061264
 C    4.510988   -1.019023   -1.599462
 C    3.641631    2.263243    0.052560
 C    1.535903   -2.295173    0.420114
 C    0.142645   -1.728147    0.372001
 C   -2.059392   -0.862251   -0.263438
 C   -0.525733   -0.993879    1.312763
 C   -4.316139    0.197519   -0.525245
 C   -5.338011    0.382953   -1.465331
 C   -6.471002    1.112717   -1.136605
 C   -6.605170    1.669713    0.132650
 C   -5.589108    1.482239    1.063251
 C   -4.445383    0.752473    0.750979
 H    5.283445    0.988571   -1.668471
 H    1.249768   -3.109292    2.159061
 H   -3.251839   -0.893250   -1.889770
 H    1.857910    0.377858    0.840314
 H    0.880558   -0.838571    2.765462
 H   -0.506668    0.122071    2.988558
 H    3.527725   -2.914628   -1.334500
 H    5.245715   -1.410683   -2.295807
 H    1.562519   -3.238665   -0.148018
 H   -5.242471   -0.048081   -2.459744
 H   -7.251757    1.245716   -1.879558
 H   -7.491056    2.240934    0.391217
 H   -5.680007    1.910759    2.057123
 H   -3.658937    0.610009    1.478901
