26 
3rsx_ligand_ani.xyz
 C   -1.986039    0.682016   -0.119262
 C   -1.437299   -0.598346    0.118473
 C   -0.034666   -0.761795    0.158518
 C    2.281004    0.142203    0.030133
 C    3.181641    1.040542    0.698035
 C    2.952103   -0.896418   -0.553646
 N   -3.328123    0.924620   -0.169341
 C   -4.144576   -0.087123    0.007546
 C   -2.360083   -1.668518    0.306416
 C   -3.696436   -1.428287    0.251795
 N   -5.498304    0.180578    0.002161
 C   -1.102774    1.775731   -0.310696
 C    0.249981    1.592822   -0.256385
 C    0.811177    0.309088   -0.020892
 C    4.481831    0.655459    0.597716
 S    4.647899   -0.792657   -0.315785
 H    0.374871   -1.751129    0.351398
 H    2.852643    1.916192    1.249420
 H    2.533844   -1.701185   -1.144686
 H   -1.983857   -2.673388    0.492078
 H   -4.425211   -2.222316    0.399391
 H   -5.736132    1.077506   -0.396998
 H   -6.107835   -0.572688   -0.275903
 H   -1.542035    2.751304   -0.492948
 H    0.919947    2.434852   -0.413091
 H    5.357179    1.142748    1.007648
