24 
3rt6_ligand_dft.xyz
 N   -0.374122    0.109408    0.308269
 C   -0.845803   -1.177547    0.198580
 O   -0.101833   -2.164057    0.293859
 N   -2.178677   -1.309287   -0.029305
 C   -3.148297   -0.288039   -0.165313
 O   -4.305256   -0.536853   -0.367749
 C   -2.544898    1.044660   -0.037461
 F   -3.356061    2.076750   -0.161152
 C   -1.236580    1.205629    0.190853
 C    1.003456    0.315684    0.741913
 C    2.066629   -0.105367   -0.286156
 N    2.388692   -1.564309   -0.164024
 C    3.326440    0.757849   -0.162546
 O    4.427813    0.031224   -0.373501
 O    3.284402    1.932000    0.068462
 H   -2.522731   -2.260296   -0.116696
 H   -0.792581    2.188285    0.287819
 H    1.170572   -0.197790    1.695865
 H    1.141568    1.383330    0.915512
 H    1.668953    0.044091   -1.295231
 H    2.984129   -1.755211    0.646538
 H    1.449059   -2.052217   -0.024534
 H    2.881092   -1.921788   -0.986330
 H    5.206539    0.614432   -0.324957
