24 
3rt6_ligand_ani.xyz
 N   -0.369007    0.122588    0.425066
 C   -0.849356   -1.170994    0.387164
 O   -0.136381   -2.150930    0.581617
 N   -2.193168   -1.287755    0.119085
 C   -3.122630   -0.278222   -0.147525
 O   -4.285198   -0.522731   -0.385445
 C   -2.500420    1.041220   -0.092302
 F   -3.287571    2.093098   -0.323099
 C   -1.202116    1.202543    0.185966
 C    1.035290    0.326381    0.776245
 C    1.994458    0.083413   -0.403116
 N    2.120725   -1.369894   -0.753234
 C    3.363451    0.667200   -0.094498
 O    4.342732   -0.246422   -0.279769
 O    3.577333    1.795869    0.266005
 H   -2.543492   -2.237711    0.102315
 H   -0.759151    2.191709    0.239907
 H    1.278949   -0.354925    1.594452
 H    1.147831    1.351619    1.127731
 H    1.619752    0.627902   -1.271088
 H    3.089819   -1.665344   -0.552728
 H    1.452687   -1.924171   -0.178004
 H    1.912803   -1.517555   -1.751540
 H    5.179147    0.200472   -0.070460
