43 
3rth_ligand_dft.xyz
 C   -0.341417   -0.634466   -0.712972
 C   -1.738180   -0.513279   -0.554745
 C   -2.411240   -1.284819    0.427217
 C   -4.452814   -0.381807   -0.110434
 C   -2.532025    0.366307   -1.341999
 C    4.108741   -0.706243   -0.256126
 C    3.798644   -3.088552   -0.313906
 C    1.144736    3.262898    0.276572
 C    1.003136    3.603456    1.771836
 C   -0.249968    3.212563   -0.376459
 C    2.013137    4.324406   -0.421493
 C    1.772318    1.938520    0.139104
 C    2.221484    0.822669    0.021360
 C    2.727995   -0.511392   -0.113779
 C    4.643197   -1.983042   -0.356683
 C    2.427936   -2.906203   -0.174997
 C    1.865900   -1.630103   -0.077247
 C    0.394684   -1.490912    0.077902
 C   -3.873484    0.444309   -1.126393
 N   -5.803393   -0.279410    0.149251
 N   -3.757330   -1.215011    0.630446
 C   -1.645299   -2.168520    1.224815
 C   -0.287672   -2.265510    1.051773
 H    0.152523   -0.034738   -1.472050
 H   -2.054903    0.977177   -2.104273
 H    4.756854    0.164122   -0.277696
 H    4.205039   -4.092251   -0.394853
 H    0.526317    4.583778    1.887562
 H    0.389293    2.856072    2.283623
 H    1.982609    3.635229    2.259184
 H   -0.874827    2.448673    0.096797
 H   -0.747666    4.183866   -0.273660
 H   -0.169856    2.977761   -1.443438
 H    1.544777    5.310957   -0.327392
 H    3.009728    4.371314    0.028781
 H    2.128674    4.096689   -1.485947
 H    5.715351   -2.114313   -0.466295
 H    1.768233   -3.769402   -0.159177
 H   -4.501464    1.120411   -1.698735
 H   -6.401629   -0.000833   -0.613504
 H   -6.168492   -1.029761    0.718698
 H   -2.163764   -2.752795    1.977934
 H    0.289424   -2.932704    1.686485
