48 
3rtm_ligand_xtb.xyz
 N   -1.573852    0.316060   -1.569125
 N    1.498119   -0.848897    0.830358
 C   -3.793044    0.644860    1.351523
 C   -2.883811    0.069060    0.448720
 C   -2.447316    0.816789   -0.675384
 C   -1.102617   -0.902504   -1.417830
 C   -1.471197   -1.741050   -0.313735
 C   -0.875845   -3.108690   -0.125184
 C    0.828587   -0.490739    2.060828
 C    1.610145    1.401464   -0.212440
 C    3.758749    2.692951   -0.121925
 C    2.550989    2.326364   -0.979929
 C    4.500155    1.436509    0.326196
 C    3.563700    0.504139    1.090644
 C    2.369984    0.140955    0.205469
 C    1.336122   -2.036269    0.211210
 O    1.917348   -2.306396   -0.833252
 C    0.358343   -3.039469    0.795932
 C   -2.356688   -1.235000    0.593586
 C   -4.253301    1.918894    1.151628
 C   -3.819261    2.660708    0.043767
 C   -2.934842    2.126328   -0.853580
 N   -0.293877   -1.363704   -2.414765
 H   -4.122039    0.064882    2.203390
 H   -0.585622   -3.530866   -1.087254
 H   -1.616187   -3.770746    0.329409
 H    1.117302    0.518827    2.336703
 H   -0.256913   -0.508601    1.941438
 H    1.116828   -1.157989    2.876878
 H    0.753685    1.132589   -0.833236
 H    1.230866    1.928137    0.666196
 H    3.423649    3.249591    0.756653
 H    4.433873    3.338029   -0.687320
 H    2.015407    3.229787   -1.276730
 H    2.891135    1.824224   -1.888038
 H    5.346297    1.708914    0.960390
 H    4.891889    0.914892   -0.549418
 H    3.226680    1.004782    2.001150
 H    4.092905   -0.406004    1.380504
 H    2.750859   -0.349564   -0.696947
 H    0.850394   -4.014020    0.801313
 H    0.053836   -2.792383    1.808979
 H   -2.672250   -1.835225    1.438827
 H   -4.953850    2.359947    1.845644
 H   -4.193510    3.664532   -0.097260
 H   -2.593359    2.683474   -1.711965
 H   -0.047934   -0.652377   -3.086488
 H    0.461411   -1.989687   -2.169060
