58 
3rtn_ligand_dft.xyz
 C    0.207508   -2.020342    1.170923
 C   -0.031201   -1.599438   -0.159582
 C   -1.291441   -1.071180   -0.514096
 C    2.416957   -2.471145    0.729654
 C    1.069286   -1.629900   -1.054656
 C   -5.216057    1.440538    0.561672
 C   -5.626086   -0.120304   -1.219812
 C   -4.056441   -1.990742   -1.798564
 C    3.519543    0.552649   -1.000165
 C    2.392795    2.092632    0.619228
 C    1.616583    4.471343    0.320154
 C   -0.065257    2.669389    0.861766
 C    2.631050    3.412369   -0.123300
 C    0.177595    3.985615    0.118666
 C    0.949580    1.601440    0.449357
 N    3.365082    1.059357    0.251829
 O    2.982192    1.009379   -2.001303
 C    4.391956   -0.695010   -1.087092
 C    3.513411   -1.885558   -1.526176
 C    2.303615   -2.038223   -0.637538
 N    1.422498   -2.477784    1.585680
 N    3.660799   -2.840397    1.226059
 C   -0.846096   -1.921635    2.110441
 C   -2.057694   -1.393130    1.742043
 C   -2.301273   -0.949280    0.415816
 C   -3.603821   -0.313673    0.075380
 C   -4.018737    0.789269    0.830426
 C   -6.023786    0.983285   -0.473869
 C   -4.423659   -0.785037   -0.966258
 H   -1.440132   -0.711888   -1.529414
 H    0.940649   -1.257152   -2.068100
 H   -5.513644    2.299427    1.155702
 H   -6.268388   -0.485387   -2.017765
 H   -4.952133   -2.442545   -2.235308
 H   -3.389937   -1.722920   -2.626752
 H   -3.541913   -2.751140   -1.204471
 H    2.565308    2.278602    1.688308
 H    1.786701    5.400567   -0.235437
 H    1.771241    4.707681    1.383406
 H   -1.079888    2.299309    0.672581
 H    0.010649    2.847265    1.944623
 H    2.537137    3.230247   -1.197987
 H    3.655938    3.753683    0.063318
 H   -0.003085    3.832542   -0.954163
 H   -0.532348    4.749925    0.455779
 H    0.804367    0.691259    1.040288
 H    0.799695    1.332937   -0.602470
 H    3.725261    0.496264    1.007709
 H    4.883833   -0.915670   -0.134868
 H    5.166126   -0.517963   -1.839630
 H    4.122460   -2.798630   -1.555088
 H    3.176085   -1.700327   -2.549681
 H    4.277122   -3.316380    0.582159
 H    3.588269   -3.305286    2.121968
 H   -0.657755   -2.255409    3.125717
 H   -2.857052   -1.309200    2.473310
 H   -3.376504    1.144830    1.632330
 H   -6.964212    1.478525   -0.697138
