58 
3rtn_ligand_ani.xyz
 C   -0.300243   -1.620851    1.344746
 C   -0.543789   -1.410933   -0.028016
 C   -1.765033   -0.818814   -0.433918
 C    1.816062   -2.431983    0.950145
 C    0.494516   -1.784479   -0.924661
 C   -5.528901    2.073161    0.297194
 C   -6.055295    0.266910   -1.196995
 C   -4.608752   -1.756109   -1.478431
 C    3.744150   -0.281370   -1.126923
 C    3.126670    1.508865    0.483814
 C    3.422424    4.013011    0.319405
 C    1.102947    3.030196    0.487436
 C    3.972423    2.648095   -0.102803
 C    1.953011    4.168249   -0.086304
 C    1.653129    1.665343    0.070360
 N    3.669349    0.196038    0.147411
 O    3.513060    0.391741   -2.122151
 C    4.090829   -1.759510   -1.233678
 C    2.814520   -2.617618   -1.415468
 C    1.676777   -2.299984   -0.469392
 N    0.876254   -2.136045    1.811293
 N    3.056417   -2.805669    1.472010
 C   -1.295755   -1.245210    2.276108
 C   -2.464766   -0.664042    1.857818
 C   -2.730779   -0.455793    0.483883
 C   -4.018219    0.182348    0.082568
 C   -4.367232    1.406649    0.660417
 C   -6.379449    1.499059   -0.639484
 C   -4.886329   -0.410604   -0.853130
 H   -1.929134   -0.643562   -1.494177
 H    0.348387   -1.620906   -1.992022
 H   -5.772444    3.030439    0.749700
 H   -6.728940   -0.192134   -1.918631
 H   -5.527927   -2.199352   -1.871585
 H   -3.907207   -1.674730   -2.316208
 H   -4.168729   -2.450382   -0.756129
 H    3.181474    1.570690    1.578766
 H    4.028557    4.814473   -0.119922
 H    3.510140    4.118127    1.411518
 H    0.059053    3.126682    0.165176
 H    1.097649    3.098585    1.585852
 H    3.964260    2.553956   -1.194409
 H    5.011387    2.526890    0.223837
 H    1.881681    4.146880   -1.184075
 H    1.563784    5.141957    0.235352
 H    1.050453    0.857150    0.507407
 H    1.594706    1.549737   -1.018990
 H    3.761601   -0.478977    0.896875
 H    4.652403   -2.077441   -0.352697
 H    4.733476   -1.888006   -2.108743
 H    3.089244   -3.678133   -1.352360
 H    2.444158   -2.457794   -2.434067
 H    3.523476   -3.526819    0.936150
 H    2.972164   -3.054844    2.451085
 H   -1.084564   -1.411646    3.327588
 H   -3.212829   -0.372467    2.593233
 H   -3.695462    1.844957    1.395894
 H   -7.296935    2.004977   -0.930345
