48 
3ru1_ligand_xtb.xyz
 C   -2.292525   -1.063021   -1.787743
 C   -1.296093   -1.429439   -0.866267
 C   -1.646279   -1.623824    0.495056
 C    0.513223   -2.168517    1.059001
 C    0.059404   -1.621952   -1.218863
 C    3.350513   -1.155466   -0.019494
 C    2.173985    2.446599    0.071845
 C   -1.566581    2.428258   -0.952231
 C   -2.183992    2.198652    0.423671
 C   -1.401661    2.948666    1.496773
 C   -0.097577    2.017083   -0.958284
 C    0.059956    2.510110    1.483997
 C    0.677986    2.782651    0.111650
 N    2.472717    1.061850    0.351865
 C    3.020006    0.229408   -0.558863
 O    3.252114    0.556080   -1.704263
 C    2.422060   -2.207959   -0.644272
 C    0.981073   -1.993262   -0.281268
 C   -3.589073   -0.905464   -1.378068
 C   -3.936670   -1.105288   -0.034262
 C   -2.988085   -1.453223    0.888902
 N   -0.733071   -1.983945    1.418623
 N    1.391343   -2.484210    2.071479
 H   -2.014261   -0.910988   -2.821366
 H    0.361266   -1.470280   -2.246490
 H    3.275983   -1.170023    1.067548
 H    4.377921   -1.382626   -0.310874
 H    2.707171    3.074925    0.795821
 H    2.569607    2.644844   -0.927361
 H   -1.647655    3.485995   -1.215615
 H   -2.114118    1.851767   -1.700196
 H   -2.170901    1.131127    0.650186
 H   -3.225688    2.526216    0.422827
 H   -1.838766    2.754890    2.478561
 H   -1.460229    4.023687    1.309305
 H    0.341810    2.206622   -1.939484
 H   -0.019528    0.946795   -0.760564
 H    0.104280    1.440513    1.703479
 H    0.617469    3.043685    2.258380
 H    0.592696    3.855768   -0.096330
 H    2.245499    0.717330    1.270441
 H    2.745146   -3.205134   -0.326294
 H    2.525404   -2.151367   -1.729480
 H   -4.354184   -0.626288   -2.087652
 H   -4.965897   -0.978904    0.268900
 H   -3.237672   -1.607250    1.927201
 H    2.168472   -3.078542    1.830157
 H    0.924309   -2.731334    2.931553
