138 
3rum_ligand_xtb.xyz
 N   -6.744856   -4.553437    2.423266
 C   -7.001211   -3.681101    1.244480
 C   -6.655390   -2.273012    1.817198
 O   -6.281805   -2.271470    2.996350
 C   -6.164465   -4.116406    0.069692
 C   -4.777444   -3.992764    0.121060
 C   -3.980709   -4.446662   -0.921505
 C   -4.586400   -5.090017   -2.023107
 O   -3.782950   -5.545976   -2.995598
 C   -5.969518   -5.208427   -2.058945
 C   -6.755993   -4.720399   -1.030382
 C   -4.983916    0.361179    1.457427
 N   -6.823096   -1.215298    1.063691
 O   -4.345851    0.632772    2.445298
 C   -6.516591    0.133055    1.507815
 C   -7.275132    1.157814    0.616749
 O   -7.505548    0.524361   -0.626119
 C   -6.465223    2.439383    0.500651
 O   -3.698040    5.539890    0.341768
 C   -4.697684    4.592584    0.365600
 C   -6.135384    3.155825    1.646746
 C   -5.990015    2.885569   -0.726944
 C   -5.250220    4.216022    1.585055
 C   -5.131207    3.965826   -0.799107
 C   -0.785875   -3.235010    0.119051
 C   -2.067405   -3.183342   -0.427957
 C   -2.761448   -1.986547   -0.524165
 N   -4.469444    0.170659    0.237788
 C   -0.269910   -2.056000    0.671774
 O    0.954890   -1.981584    1.229625
 C   -1.030304   -0.888258    0.694928
 C   -2.256579   -0.838312    0.058425
 C   -3.076066    0.425274   -0.054512
 C   -3.040624    0.860881   -1.536689
 O   -4.004606    0.623279   -2.243238
 C    0.011613   -4.505848    0.122920
 O   -2.627064   -4.344275   -0.924168
 N   -1.921926    1.428107   -1.983507
 C   -0.795893    1.907171   -1.214177
 C    0.457881    1.652251   -2.061240
 O    0.444579    1.783646   -3.262444
 C   -0.970417    3.375322   -0.865881
 C   -2.222441    3.805237   -0.458559
 C   -2.471682    5.121558   -0.105560
 C   -1.411065    6.042165   -0.112439
 O   -1.611838    7.323859    0.261640
 C   -0.140411    5.585487   -0.480304
 C    0.075367    4.273015   -0.886205
 N    1.539669    1.271670   -1.345953
 C    2.733755    0.799552   -2.017094
 C    4.032767    1.532713   -1.665560
 O    4.920770    1.644122   -2.483060
 C    3.004592   -0.665048   -1.727050
 C    3.543680   -1.044450   -0.507475
 C    3.962668   -2.344936   -0.268874
 C    3.716448   -3.324468   -1.232797
 O    4.072595   -4.622711   -1.053651
 C    3.110779   -2.961807   -2.432537
 C    2.792215   -1.643474   -2.690278
 N    4.193997    1.902731   -0.375668
 C    5.495306    2.292395    0.137097
 C    6.245313    1.031893    0.633699
 O    6.791103    0.960426    1.720831
 C    5.347842    3.357589    1.263969
 O    5.022567    2.767124    2.493088
 C    4.247215    4.328443    0.887506
 C    3.085428    4.353922    1.648980
 C    4.335936    5.140841   -0.235642
 C    2.003320    5.109441    1.253029
 C    3.250930    5.898211   -0.645757
 C    2.067678    5.846148    0.076271
 O    0.916944    6.470229   -0.392000
 N    6.183798    0.002678   -0.222761
 C    6.707421   -1.312743    0.077091
 C    5.976496   -2.051128    1.185698
 C    6.623762   -2.223592    2.398047
 C    4.711254   -2.612289    0.981128
 C    6.036197   -2.958316    3.421763
 C    4.148039   -3.382416    2.003301
 C    4.800318   -3.558868    3.209429
 O    6.626204   -3.134027    4.621465
 O    2.924605   -3.965861    1.776223
 C    6.668976   -2.114816   -1.225395
 O    6.334201   -1.647934   -2.280007
 O    7.081434   -3.360027   -1.032433
 C    7.148394   -4.199912   -2.186409
 H   -6.415331   -3.711308    3.130758
 H   -7.558325   -5.050198    2.781668
 H   -5.976815   -5.205396    2.255520
 H   -8.060852   -3.701701    0.978889
 H   -4.303076   -3.511918    0.965015
 H   -4.290782   -5.947309   -3.712522
 H   -6.436672   -5.678772   -2.911724
 H   -7.828759   -4.815818   -1.091452
 H   -7.110841   -1.277345    0.092588
 H   -6.808906    0.233933    2.556879
 H   -8.243693    1.380042    1.094830
 H   -7.903452    1.162554   -1.228046
 H   -6.532010    2.854526    2.603608
 H   -6.233860    2.367904   -1.642766
 H   -4.948496    4.733064    2.481524
 H   -4.746960    4.288228   -1.754925
 H   -3.701466   -1.950090   -1.051335
 H   -5.049590    0.122722   -0.598166
 H    1.449097   -2.816319    1.157827
 H   -0.633060   -0.044057    1.236530
 H   -2.707965    1.188290    0.635763
 H    0.969200   -4.361417   -0.377131
 H   -0.534177   -5.281998   -0.404257
 H    0.202927   -4.844595    1.141630
 H   -1.876145    1.665851   -2.969866
 H   -0.722655    1.329345   -0.292195
 H   -3.029879    3.096341   -0.415095
 H   -0.762974    7.789377    0.222519
 H    1.063903    3.973074   -1.195158
 H    1.430571    1.031457   -0.372456
 H    2.562310    0.937745   -3.089888
 H    3.685353   -0.330825    0.287315
 H    4.485693   -4.729909   -0.186766
 H    2.938333   -3.728303   -3.171111
 H    2.379533   -1.372022   -3.649023
 H    3.436660    1.887152    0.288301
 H    6.058533    2.710395   -0.705084
 H    6.309187    3.890723    1.339542
 H    5.739968    2.145465    2.705794
 H    3.036670    3.763281    2.549140
 H    5.244145    5.162397   -0.818276
 H    1.089417    5.102980    1.828988
 H    3.303329    6.500063   -1.539069
 H    5.901278    0.131805   -1.190095
 H    7.760191   -1.224138    0.381231
 H    7.589387   -1.766677    2.555825
 H    4.361200   -4.145744    4.002260
 H    7.459380   -2.647835    4.662052
 H    2.661757   -4.444793    2.571959
 H    7.829946   -5.007970   -1.934195
 H    6.157772   -4.594521   -2.416244
 H    7.516664   -3.632597   -3.041858
