58 
3rwp_ligand_xtb.xyz
 C   -4.195327    0.079403   -0.693234
 C   -2.183678   -0.944693   -1.496725
 C   -4.714675   -1.164546   -0.384248
 C   -2.684391   -2.196037   -1.190110
 C   -0.966516   -2.048097    2.186880
 C   -2.553907   -0.445657    2.350964
 C    2.045948    0.553840    0.806844
 C    5.640171   -0.543484   -1.448972
 C    3.280142   -0.973281   -0.288554
 C    2.046506   -0.777869    0.424315
 C   -2.925367    0.204572   -1.246749
 C   -3.946114   -2.287050   -0.631273
 C   -0.243920   -1.255052    1.302248
 C    3.932135    0.268719   -0.301873
 C   -1.851822    0.355529    1.427292
 C    3.965223   -2.025062   -0.941013
 C    1.023745   -1.757495    0.698749
 C   -3.281520    2.624205   -2.032409
 C   -2.344852    3.634498   -0.259692
 C   -2.308848    1.554430   -1.485386
 C   -1.798291    2.204212   -0.152845
 C    2.466877    3.491699    0.007552
 C    3.774457    2.825749    2.065210
 C    3.533523    2.560293    0.580328
 N   -2.109322   -1.624644    2.715803
 N    5.110811    0.520332   -0.875009
 N    5.149582   -1.767663   -1.509699
 N   -0.689488   -0.056878    0.927303
 N    3.161735    1.176821    0.371821
 N    3.468917   -3.262508   -1.019179
 N   -2.308747    1.580332    1.043061
 O    1.141234   -2.957646    0.467498
 O   -3.552992    3.513035   -0.969807
 F   -4.444139   -3.500208   -0.323130
 H   -4.787943    0.961052   -0.496074
 H   -1.192692   -0.859856   -1.916965
 H   -5.696042   -1.271722    0.050008
 H   -2.106760   -3.089446   -1.365190
 H   -0.621048   -3.027247    2.480705
 H   -3.492985   -0.121736    2.778890
 H    1.303464    1.075182    1.376438
 H    6.599207   -0.396550   -1.928538
 H   -4.228852    2.213467   -2.380542
 H   -2.805575    3.169900   -2.859567
 H   -1.636683    4.270178   -0.811074
 H   -2.559516    4.083503    0.709791
 H   -1.463240    1.436047   -2.164951
 H   -0.710153    2.160393   -0.098776
 H    1.534911    3.399746    0.561567
 H    2.805250    4.522079    0.072313
 H    2.279518    3.253351   -1.036856
 H    2.857461    2.690400    2.634687
 H    4.527972    2.143593    2.451296
 H    4.124060    3.844548    2.207242
 H    4.471134    2.688180    0.028348
 H    2.605006   -3.467980   -0.524307
 H    4.023783   -3.980896   -1.448349
 H   -3.280373    1.769081    1.244032
