58 
3rwp_ligand_ani.xyz
 C   -4.421374    1.077771   -1.111771
 C   -3.051420   -0.891624   -1.196112
 C   -5.531493    0.328688   -1.488175
 C   -4.149148   -1.659184   -1.572966
 C   -0.271404   -3.009022    2.022124
 C   -2.165707   -1.871573    2.519068
 C    2.170878    0.512878    0.662995
 C    5.621085    0.025000   -2.023633
 C    3.540400   -0.804278   -0.536593
 C    2.372010   -0.807012    0.329089
 C   -3.167829    0.479815   -0.958372
 C   -5.375114   -1.029918   -1.711361
 C    0.265374   -1.861995    1.431280
 C    3.941469    0.530735   -0.667024
 C   -1.634747   -0.709533    1.918813
 C    4.348246   -1.728988   -1.264030
 C    1.615663   -1.988242    0.785804
 C   -1.922191    2.716364   -0.993160
 C   -2.783114    2.787978    1.172710
 C   -1.956499    1.264984   -0.496252
 C   -1.935687    1.528678    1.034647
 C    1.950976    3.492345    0.166352
 C    3.892346    2.989633    1.701292
 C    3.274319    2.752329    0.324883
 N   -1.489159   -3.004367    2.577931
 N    4.965032    0.990613   -1.393586
 N    5.379470   -1.281973   -2.005356
 N   -0.412739   -0.707229    1.397064
 N    3.093744    1.320279    0.073232
 N    4.130285   -3.049738   -1.263511
 N   -2.369402    0.456671    1.893087
 O    2.056766   -3.132634    0.654906
 O   -2.677331    3.481102   -0.060266
 F   -6.445822   -1.757587   -2.077161
 H   -4.540032    2.147163   -0.956012
 H   -2.081129   -1.372907   -1.088294
 H   -6.508231    0.784085   -1.616883
 H   -4.069663   -2.725358   -1.764324
 H    0.293252   -3.933183    2.043379
 H   -3.157725   -1.854685    2.968412
 H    1.402376    0.934989    1.297830
 H    6.464964    0.343234   -2.634002
 H   -2.375635    2.847566   -1.980542
 H   -0.883376    3.079143   -1.033004
 H   -2.454711    3.441814    1.989387
 H   -3.832740    2.515695    1.362054
 H   -1.060286    0.710355   -0.783696
 H   -0.899907    1.765667    1.296907
 H    1.232872    3.188527    0.937894
 H    2.110671    4.571221    0.264990
 H    1.512211    3.296935   -0.817823
 H    3.223595    2.635600    2.494984
 H    4.845207    2.460865    1.789549
 H    4.071657    4.059314    1.854240
 H    3.973711    3.087247   -0.443616
 H    3.447814   -3.440431   -0.625194
 H    4.787021   -3.633854   -1.755128
 H   -3.367841    0.296781    1.886543
