66 
3rx5_ligand_ani.xyz
 O    7.299306    0.145030   -1.031260
 C    6.397464   -0.837423   -1.533877
 C    5.259321   -1.202567   -0.564991
 C    5.817844   -1.563346    0.812803
 N    6.409506   -0.323227    1.391003
 C    5.327379    0.665579    1.699074
 C    4.594811    1.102106    0.431055
 O    5.465474    1.967877   -0.320138
 C    4.172018   -0.113043   -0.420945
 O    3.056679   -0.725929    0.228642
 C    1.809882   -0.477396   -0.338408
 C    0.779496   -1.319763    0.392128
 O    1.027570   -2.682915    0.151143
 C   -0.645913   -0.986787   -0.028704
 O   -1.473166   -1.697877    0.879858
 O    1.507584    0.894763   -0.181277
 C    0.239702    1.248570   -0.724374
 C    0.102647    2.760936   -0.662920
 O   -0.227313    3.147233    0.662600
 C   -0.877239    0.526827    0.026609
 O   -2.080796    0.925684   -0.613738
 C   -3.255201    0.490004   -0.013099
 C   -4.348587    1.532463   -0.240063
 O   -4.028903    2.746142    0.409923
 C   -5.667755    1.032172    0.328342
 O   -6.747685    1.865969   -0.039650
 C   -5.987038   -0.370565   -0.182304
 O   -7.094016   -0.912499    0.501274
 O   -3.648439   -0.719224   -0.607197
 C   -4.784101   -1.278964    0.046988
 C   -4.930693   -2.692135   -0.484070
 O   -3.763557   -3.392292   -0.060944
 H    6.818332    0.994967   -1.052300
 H    5.983140   -0.514469   -2.501182
 H    7.006288   -1.732504   -1.711387
 H    4.754386   -2.079304   -0.985074
 H    6.583211   -2.337610    0.740066
 H    5.017375   -1.925582    1.461137
 H    7.033449    0.062667    0.635160
 H    6.977715   -0.517235    2.229079
 H    5.749313    1.538328    2.197040
 H    4.596912    0.198601    2.366219
 H    3.695090    1.652945    0.719887
 H    4.915565    2.542559   -0.867837
 H    3.876135    0.237447   -1.421615
 H    1.818796   -0.737314   -1.415058
 H    0.863855   -1.076898    1.462882
 H    0.315531   -3.142413    0.618750
 H   -0.822737   -1.330328   -1.060807
 H   -2.235785   -2.064297    0.399764
 H    0.202425    0.942621   -1.783034
 H    1.054878    3.201600   -0.988312
 H   -0.682516    3.078797   -1.364566
 H   -0.004157    4.078402    0.770408
 H   -0.877938    0.835358    1.081061
 H   -3.092766    0.339406    1.072373
 H   -4.463858    1.672808   -1.328117
 H   -3.112713    2.955721    0.177093
 H   -5.576180    0.985216    1.428907
 H   -6.539937    2.752677    0.286150
 H   -6.173273   -0.306648   -1.268039
 H   -7.819167   -0.282732    0.386583
 H   -4.587646   -1.347420    1.131268
 H   -5.842319   -3.156130   -0.085754
 H   -4.994928   -2.655100   -1.579605
 H   -3.669137   -4.197243   -0.581511
