87 
3rx7_ligand_ani.xyz
 O    2.613135    1.842381    0.613560
 C    3.896375    1.236833    0.652660
 C    4.848860    1.960154   -0.278048
 O    4.971590    3.292996    0.174556
 C    6.196146    1.257690   -0.309061
 O    6.966837    1.914644   -1.288662
 C    5.992172   -0.233761   -0.631292
 C    7.270929   -1.046363   -0.478115
 O    8.239189   -0.518055   -1.380233
 O    5.057791   -0.815042    0.266967
 C    3.782323   -0.226427    0.228876
 O    2.999612   -0.947199    1.136245
 C    1.675835   -1.225974    0.724392
 C    0.838663   -1.338253    2.001679
 O   -0.510738   -1.714969    1.692127
 C    0.802612   -0.035198    2.793643
 O    0.348815    1.057982    2.019779
 C    1.600738   -2.533886   -0.048439
 O    2.278080   -2.398251   -1.276870
 C    0.145759   -2.872223   -0.324229
 O    0.135133   -4.106317   -1.006480
 C   -0.667732   -2.930014    0.974082
 O   -2.034235   -3.165197    0.745957
 C   -2.760207   -2.154265    0.073351
 C   -3.988231   -1.783994    0.918611
 O   -4.854607   -0.863788    0.239552
 C   -3.631420   -1.236224    2.291127
 O   -2.696654   -0.181384    2.222493
 C   -3.318364   -2.643286   -1.249260
 O   -2.305214   -3.239681   -2.043390
 C   -3.948195   -1.461705   -1.986353
 O   -4.907834   -1.909590   -2.928662
 C   -4.481173   -0.377961   -1.022508
 O   -3.488576    0.618763   -0.926079
 C   -3.914021    1.988225   -0.800951
 C   -4.348762    2.320578    0.646124
 O   -5.222330    3.442528    0.676216
 C   -3.144173    2.694902    1.523818
 N   -1.917020    2.081599    0.977231
 C   -1.519179    2.692321   -0.316735
 C   -2.730183    2.843947   -1.273702
 C   -3.129813    4.306178   -1.460512
 O   -2.024996    4.977806   -2.042394
 H    2.769689    2.798878    0.656952
 H    4.296940    1.262298    1.675478
 H    4.426245    1.943415   -1.298901
 H    5.612127    3.721791   -0.410520
 H    6.658613    1.346606    0.691147
 H    7.700955    1.317802   -1.513958
 H    5.630480   -0.319571   -1.672553
 H    7.612124   -0.963841    0.563216
 H    7.060816   -2.100999   -0.695496
 H    9.107381   -0.868941   -1.153626
 H    3.360681   -0.291170   -0.790573
 H    1.286565   -0.424201    0.079629
 H    1.286647   -2.119627    2.635757
 H    1.801369    0.167307    3.198615
 H    0.111858   -0.148247    3.639450
 H    1.100807    1.357737    1.471425
 H    2.053576   -3.334307    0.560820
 H    2.032104   -3.178865   -1.796452
 H   -0.262221   -2.070785   -0.963114
 H   -0.718815   -4.145368   -1.470639
 H   -0.328115   -3.767755    1.599176
 H   -2.144455   -1.262218   -0.093851
 H   -4.578173   -2.699045    1.083087
 H   -4.545906   -0.851158    2.756181
 H   -3.249364   -2.054696    2.915055
 H   -1.812751   -0.589660    2.231886
 H   -4.095268   -3.395413   -1.045829
 H   -2.710863   -3.451689   -2.897455
 H   -3.164299   -0.986905   -2.581424
 H   -5.620730   -2.340331   -2.438324
 H   -5.399114    0.059381   -1.444784
 H   -4.771484    2.149747   -1.477871
 H   -4.837179    1.432313    1.067598
 H   -6.066136    3.169722    0.295727
 H   -3.043013    3.782896    1.537909
 H   -3.304675    2.356742    2.550182
 H   -1.133226    2.072922    1.641331
 H   -2.141194    1.088404    0.820965
 H   -0.741606    2.067699   -0.768351
 H   -1.079992    3.678562   -0.134942
 H   -2.436048    2.472336   -2.259333
 H   -4.012768    4.361505   -2.116363
 H   -3.406093    4.754830   -0.495205
 H   -2.220094    5.921926   -2.045030
