87 
3rx7_ligand_xtb.xyz
 O    2.155798    1.428919    0.199657
 C    3.471182    0.956260    0.437958
 C    4.453597    1.645570   -0.502811
 O    4.348818    3.033621   -0.296446
 C    5.872246    1.123405   -0.255261
 O    6.702441    1.731759   -1.207167
 C    5.861294   -0.413269   -0.363858
 C    7.202522   -1.020635    0.059589
 O    8.212513   -0.538293   -0.800509
 O    4.887178   -0.978849    0.489458
 C    3.581206   -0.567839    0.208750
 O    2.767835   -1.286994    1.093367
 C    1.449933   -1.515178    0.643062
 C    0.587918   -1.703894    1.900936
 O   -0.768473   -1.902425    1.547207
 C    0.656177   -0.478470    2.828042
 O    0.302802    0.724763    2.189502
 C    1.303505   -2.757872   -0.247171
 O    2.003104   -2.561254   -1.447357
 C   -0.187206   -2.966330   -0.563145
 O   -0.304808   -4.153384   -1.294984
 C   -1.029759   -3.028259    0.725758
 O   -2.405599   -3.088695    0.504318
 C   -3.007514   -1.938331   -0.066482
 C   -4.205246   -1.508353    0.797978
 O   -4.907557   -0.402461    0.215333
 C   -3.827107   -1.170240    2.250347
 O   -2.765056   -0.256759    2.361532
 C   -3.565583   -2.208603   -1.473394
 O   -2.565568   -2.752047   -2.297360
 C   -4.103370   -0.878482   -2.050717
 O   -5.241406   -1.064124   -2.841912
 C   -4.366061    0.160318   -0.931873
 O   -3.168949    0.866264   -0.640732
 C   -3.172216    2.279857   -0.796523
 C   -3.944008    2.979289    0.352875
 O   -3.873785    4.378554    0.218811
 C   -3.329250    2.614858    1.716669
 N   -1.948197    2.138571    1.537294
 C   -1.207753    2.997683    0.600924
 C   -1.690506    2.697894   -0.820124
 C   -1.389247    3.896137   -1.724995
 O    0.003583    4.096055   -1.666921
 H    2.258458    2.353529   -0.074951
 H    3.752156    1.169182    1.479732
 H    4.179743    1.406813   -1.545016
 H    5.120323    3.438686   -0.712208
 H    6.180940    1.406031    0.765810
 H    7.514658    1.207200   -1.276609
 H    5.657778   -0.681676   -1.413421
 H    7.403651   -0.738362    1.100854
 H    7.115245   -2.110842    0.004276
 H    9.041454   -0.983915   -0.596078
 H    3.314037   -0.799940   -0.835758
 H    1.089916   -0.652515    0.067012
 H    0.964641   -2.576413    2.451476
 H    1.670875   -0.429600    3.233551
 H   -0.053966   -0.614029    3.647201
 H    1.004791    0.937930    1.543629
 H    1.693573   -3.637605    0.284886
 H    1.808474   -3.318814   -2.016009
 H   -0.522181   -2.109982   -1.167723
 H   -1.199222   -4.180810   -1.663497
 H   -0.795419   -3.960911    1.261683
 H   -2.277402   -1.126133   -0.126210
 H   -4.913519   -2.346497    0.840434
 H   -4.698581   -0.708677    2.721244
 H   -3.595140   -2.106313    2.765699
 H   -1.943820   -0.757245    2.206343
 H   -4.396405   -2.926132   -1.380117
 H   -2.936010   -2.902361   -3.176153
 H   -3.343334   -0.459684   -2.720708
 H   -5.973107   -1.383809   -2.298985
 H   -5.131971    0.857605   -1.297398
 H   -3.646971    2.542146   -1.752996
 H   -4.988444    2.642250    0.337870
 H   -4.487481    4.690830   -0.453725
 H   -3.337975    3.516198    2.332320
 H   -3.903178    1.826750    2.201141
 H   -1.446041    2.032458    2.425436
 H   -2.025208    1.171612    1.166335
 H   -0.139110    2.811012    0.677359
 H   -1.412028    4.040884    0.851265
 H   -1.129564    1.845029   -1.212362
 H   -1.713261    3.678766   -2.751333
 H   -1.926990    4.782506   -1.362974
 H    0.251505    4.814553   -2.257964
