17 
3rxe_ligand_xtb.xyz
 C   -0.214562   -0.031888   -0.019945
 C    0.516597   -1.200054    0.176086
 C    1.897584   -1.164457    0.199835
 C    2.565136    0.036590    0.020872
 C    1.844865    1.199586   -0.192662
 C    0.461705    1.168958   -0.211775
 C   -1.690669   -0.106267   -0.033183
 N   -2.236518   -1.181917   -0.422376
 N   -2.356943    1.034714    0.344203
 H   -0.022935   -2.124828    0.304028
 H    2.457484   -2.074596    0.357950
 H    3.644783    0.065951    0.040598
 H    2.362456    2.135394   -0.347437
 H   -0.088054    2.079192   -0.405098
 H   -3.253814   -1.168082   -0.411356
 H   -3.352584    0.971824    0.484885
 H   -1.877049    1.730763    0.888277
