22 
3rxj_ligand_dft.xyz
 C   -3.314794   -0.296943   -0.015793
 O   -4.157123    0.755941    0.100022
 C   -1.851616    0.006488    0.020580
 C   -0.977047   -1.028680    0.360041
 C   -1.316317    1.257200   -0.297163
 C    0.390999   -0.822648    0.413378
 C    0.053515    1.468822   -0.271602
 C    0.925060    0.434269    0.089947
 N    2.291932    0.693265    0.169406
 C    3.325301   -0.215321   -0.116056
 N    3.255314   -1.336991   -0.716709
 N    4.548119    0.290398    0.306652
 O   -3.756591   -1.410075   -0.138265
 H   -3.669543    1.545163    0.368262
 H   -1.393524   -2.002056    0.596938
 H   -1.955741    2.075034   -0.621715
 H    1.049500   -1.626716    0.722398
 H    0.455772    2.439370   -0.549315
 H    2.566022    1.663297    0.099002
 H    2.332472   -1.490058   -1.117937
 H    5.293849   -0.373534    0.142800
 H    4.552733    0.656747    1.250083
