27 
3rxk_ligand_dft.xyz
 C    1.575888   -0.946288    0.333018
 N    2.776783   -1.844399    0.184492
 O   -2.330366   -0.585737   -0.550847
 C    1.966016    0.531660    0.465370
 N    0.690759    1.242374    0.133093
 O   -1.518776    0.540106    1.238051
 C    0.883384    2.621458   -0.423550
 C   -0.163322    0.319268   -0.716507
 C   -1.449342    0.099787    0.108182
 C   -3.615247   -0.838024    0.101267
 C    0.665873   -0.963111   -0.899317
 H    1.051958   -1.295542    1.227596
 H    3.351294   -1.609308   -0.635901
 H    3.392174   -1.812677    1.008828
 H    2.488027   -2.826137    0.073901
 H    2.716781    0.818901   -0.278499
 H    2.304810    0.834811    1.458087
 H    0.113873    1.325475    1.001952
 H    1.484727    3.201384    0.277913
 H   -0.097822    3.084806   -0.533939
 H    1.383501    2.550558   -1.390562
 H   -0.399879    0.799945   -1.667104
 H   -4.113865    0.115232    0.276103
 H   -3.447067   -1.363102    1.041425
 H   -4.169330   -1.449809   -0.605315
 H    0.025085   -1.845398   -0.965593
 H    1.256573   -0.898411   -1.820381
