27 
3ryj_ligand_ani.xyz
 S   -4.254544   -0.379421    0.261679
 N    2.450027   -0.012707   -0.695037
 O    1.918267    2.183769   -0.430942
 C    0.135604    0.615046   -0.312719
 C   -1.717515   -0.902690   -0.619247
 C   -0.377862   -0.589493   -0.800450
 C   -2.538764    0.005121    0.046484
 C   -0.706741    1.518468    0.337147
 C   -2.045843    1.213940    0.531078
 C    1.569707    1.015587   -0.484171
 F    4.329875   -1.789100    0.294232
 F    4.383252    0.022695    1.487321
 F    5.963390   -0.373861    0.054299
 C    3.862223    0.228416   -0.824109
 O   -4.396595   -1.825810    0.204999
 C    4.641807   -0.475036    0.269550
 N   -4.972133    0.232856   -1.119819
 O   -4.750014    0.405921    1.381293
 H    2.159037   -0.948978   -0.453940
 H   -2.123125   -1.846237   -0.972202
 H    0.257629   -1.277149   -1.354037
 H   -0.288115    2.458294    0.682093
 H   -2.708178    1.896222    1.055400
 H    4.029724    1.305588   -0.759959
 H    4.241823   -0.135277   -1.785177
 H   -5.411572   -0.516004   -1.644800
 H   -5.627376    0.968427   -0.877089
