27 
3ryv_ligand_dft.xyz
 S   -3.356346   -0.144756    0.145681
 N    3.400596   -0.516285   -0.553623
 O    3.159973    1.572434    0.290055
 C    1.171412    0.295095   -0.012465
 C   -1.025772    1.299216   -0.024264
 C    0.355050    1.425925   -0.072503
 C   -1.583098    0.029289    0.097130
 C    0.593934   -0.967226    0.137781
 C   -0.788123   -1.106446    0.194775
 C    2.660322    0.516013   -0.069141
 C    4.849796   -0.425461   -0.647901
 O   -3.908316    1.100271    0.654580
 C    5.543598   -0.736747    0.675189
 O   -3.655366   -1.434554    0.747735
 N   -3.777148   -0.244411   -1.473776
 H    2.934662   -1.315115   -0.951685
 H   -1.667618    2.172807   -0.060210
 H    0.824264    2.400962   -0.146186
 H    1.216294   -1.849804    0.254686
 H   -1.247218   -2.078647    0.336772
 H    5.101113    0.588865   -0.970990
 H    5.173917   -1.118064   -1.430284
 H    5.220255   -0.025752    1.440089
 H    5.306163   -1.749964    1.015259
 H    6.629769   -0.654718    0.564346
 H   -4.381721    0.530093   -1.728810
 H   -4.205513   -1.142853   -1.672656
