33 
3ryz_ligand_dft.xyz
 S    5.941941   -0.621066   -0.174049
 N   -0.622377    0.752349    0.873561
 O   -0.082353    2.381783   -0.613005
 C    1.641039    0.854600   -0.000687
 C    3.236513   -0.954512    0.139375
 C    1.925111   -0.497483    0.201093
 C    4.254463   -0.044708   -0.120224
 C    2.673762    1.745489   -0.298065
 C    3.987065    1.301491   -0.352839
 C    0.243794    1.404103    0.036978
 F   -2.557601   -1.214990    0.862566
 F   -4.616143    1.446864   -0.128922
 F   -6.522140   -0.546089   -0.173930
 F   -2.482209   -0.162252   -1.054082
 F   -4.714943    0.136992    1.627121
 F   -4.954654   -2.040911   -0.134639
 F   -5.065712   -0.624527   -1.772870
 C   -2.021303    1.076469    0.905932
 O    6.687055    0.280602   -1.036799
 C   -2.831210   -0.033298    0.244613
 O    5.906379   -2.058629   -0.389181
 C   -4.353369    0.203782    0.327670
 N    6.481821   -0.363889    1.390793
 C   -5.243372   -0.782977   -0.464721
 H   -0.292577   -0.008923    1.444938
 H    3.468575   -2.006065    0.267227
 H    1.124711   -1.214494    0.361040
 H    2.427606    2.783520   -0.493426
 H    4.796510    1.982668   -0.591823
 H   -2.161817    2.008429    0.356922
 H   -2.374540    1.206701    1.932725
 H    7.260054    0.287846    1.393323
 H    6.721326   -1.245428    1.833306
