33 
3ryz_ligand_ani.xyz
 S    5.904214   -0.701199   -0.215031
 N   -0.639266    0.658136    0.837970
 O    0.026969    2.576783   -0.192565
 C    1.680769    0.909251    0.185064
 C    3.433720   -0.563607    0.952742
 C    2.142620   -0.068576    1.070110
 C    4.257510   -0.067615   -0.055767
 C    2.530321    1.413862   -0.800296
 C    3.818885    0.918733   -0.935527
 C    0.293274    1.473448    0.254989
 F   -2.552337   -1.254840    0.645328
 F   -4.691109    1.429916   -0.142382
 F   -6.539163   -0.555226   -0.229106
 F   -2.551832   -0.023483   -1.182252
 F   -4.703506    0.089773    1.601149
 F   -4.983604   -2.062338   -0.106063
 F   -5.042322   -0.694943   -1.793057
 C   -2.034131    1.015886    0.876075
 O    6.327760   -0.500404   -1.592000
 C   -2.866059   -0.025298    0.142762
 O    5.941286   -2.006385    0.425911
 C   -4.377237    0.186281    0.291236
 N    6.819377    0.331821    0.730200
 C   -5.254285   -0.811519   -0.482324
 H   -0.421493   -0.325064    0.919087
 H    3.798601   -1.340070    1.618451
 H    1.505556   -0.428462    1.874973
 H    2.157273    2.195536   -1.454185
 H    4.480011    1.281276   -1.716970
 H   -2.152022    1.990060    0.395032
 H   -2.394924    1.080177    1.910161
 H    7.504160    0.813183    0.156726
 H    7.249063   -0.181896    1.492347
