50 
3rz3_ligand_ani.xyz
 O    6.949341   -0.905596    1.631013
 C    6.314064   -1.782849    0.843597
 C    4.803572   -1.624921    0.889539
 O    6.882237   -2.610337    0.170918
 C    4.415626   -0.294731    0.220845
 C    2.883704   -0.078616    0.218338
 C    2.186171   -0.752076   -0.982769
 O    4.209224   -2.737933    0.280961
 O    4.942531   -0.290608   -1.079572
 N    2.539849    1.343179    0.303873
 C    2.922092    2.271446   -0.591217
 O    3.762347    2.111292   -1.477097
 C    2.238743    3.624285   -0.445676
 O    1.203701    3.552251    0.505202
 C    0.560374    4.791896    0.685216
 C    0.685786   -0.727729   -0.827647
 C    0.034100   -1.697623   -0.060020
 C   -1.337220   -1.643084    0.144091
 C   -2.101248   -0.607213   -0.400503
 C   -1.452183    0.359432   -1.173645
 C   -0.082663    0.295402   -1.388978
 C   -3.562230   -0.531542   -0.155865
 C   -4.353598   -1.681581   -0.226597
 C   -5.719343   -1.591051    0.002663
 C   -6.326579   -0.382653    0.322862
 C   -5.525143    0.750256    0.398282
 C   -4.160446    0.693367    0.153913
Cl   -6.258976    2.273805    0.801480
Cl   -6.700264   -3.022663   -0.100776
 H    7.900982   -1.067540    1.517492
 H    4.491708   -1.590028    1.940418
 H    4.855334    0.513264    0.826087
 H    2.484169   -0.516492    1.141789
 H    2.490120   -0.230885   -1.896830
 H    2.553261   -1.779904   -1.052840
 H    4.856410   -3.060985   -0.366569
 H    4.723611    0.594628   -1.438300
 H    1.740904    1.600179    0.867738
 H    1.857906    3.915444   -1.437240
 H    3.003225    4.362834   -0.153322
 H    1.260976    5.553591    1.060058
 H   -0.234877    4.648908    1.420192
 H    0.116846    5.151199   -0.255706
 H    0.607966   -2.511306    0.381404
 H   -1.820604   -2.398398    0.758781
 H   -2.034878    1.156356   -1.628944
 H    0.402530    1.062821   -1.989029
 H   -3.911926   -2.638870   -0.486528
 H   -7.393177   -0.325504    0.508448
 H   -3.558875    1.593978    0.233850
