39 
3rz8_ligand_xtb.xyz
 S    4.396785   -0.493584    0.303115
 N   -1.918974    1.834941   -0.186850
 O   -1.935101    0.275796   -1.821369
 C    0.071360    0.546034   -0.577886
 C    2.236904   -0.170600   -1.347386
 C    0.918490    0.153449   -1.611556
 C    2.691320   -0.114728   -0.045263
 C    0.544930    0.577713    0.731571
 C    1.862166    0.244632    0.997416
 C   -1.354201    0.854853   -0.924627
 C   -3.317332    2.179882   -0.291192
 O    4.926620   -1.335439   -0.728003
 C   -4.099194    1.780083    0.963750
 O    4.531817   -0.881100    1.676470
 C   -3.975022    0.295580    1.310353
 N    5.082218    1.038284    0.132189
 C   -4.541546   -0.630461    0.236605
 C   -4.507807   -2.091280    0.679622
 C   -5.039073   -3.018175   -0.406277
 H   -1.386033    2.280233    0.542642
 H    2.915165   -0.483875   -2.124541
 H    0.519557    0.103776   -2.613208
 H   -0.113510    0.829308    1.550674
 H    2.257286    0.240831    2.000693
 H   -3.702440    1.656271   -1.167064
 H   -3.412450    3.258555   -0.454825
 H   -5.148911    2.031165    0.803460
 H   -3.740330    2.373405    1.809661
 H   -4.504332    0.118159    2.250153
 H   -2.924064    0.045087    1.475469
 H    5.727813    1.072698   -0.639967
 H    5.516868    1.347581    0.986296
 H   -3.959101   -0.533824   -0.680202
 H   -5.572637   -0.343199    0.016569
 H   -5.103727   -2.212913    1.588036
 H   -3.478539   -2.369133    0.918712
 H   -6.070608   -2.770792   -0.648306
 H   -4.442134   -2.919712   -1.309911
 H   -5.001798   -4.054781   -0.079108
