26 
3rzb_ligand_ani.xyz
 C    3.396236    1.023321   -0.196920
 N    1.030398   -1.811920    0.243063
 S    0.545684    0.737066   -0.059909
 N    3.379697   -1.910647    0.197760
 N   -1.238081   -1.322089    0.266486
 C    2.217467    0.189044   -0.040334
 C    2.245864   -1.186995    0.127603
 C    0.061334   -0.932198    0.175625
 C   -2.412402   -0.539574    0.140894
 C   -2.654273    0.562177    0.963179
 C   -3.830716    1.289654    0.809670
 C   -4.773675    0.928597   -0.147800
 C   -4.538348   -0.181006   -0.953147
 C   -3.369156   -0.918265   -0.802949
 O    4.533378    0.537594   -0.228483
 N    3.191850    2.359914   -0.307773
 H    3.311374   -2.913429    0.187809
 H    4.242801   -1.411193    0.017199
 H   -1.342289   -2.328066    0.238646
 H   -1.935612    0.843566    1.728161
 H   -4.008551    2.149859    1.449984
 H   -5.687678    1.505589   -0.261303
 H   -5.268931   -0.482042   -1.699831
 H   -3.187181   -1.790206   -1.427149
 H    4.004938    2.944743   -0.416865
 H    2.272135    2.772046   -0.281925
