26 
3rzb_ligand_dft.xyz
 C    3.414412    0.990017   -0.167932
 N    1.005270   -1.800068    0.262969
 S    0.556084    0.725336   -0.176328
 N    3.338993   -1.974711    0.142293
 N   -1.254294   -1.303684    0.219472
 C    2.224836    0.165877   -0.119457
 C    2.229975   -1.203786    0.098623
 C    0.050315   -0.917122    0.154282
 C   -2.417606   -0.516557    0.121216
 C   -2.521385    0.726666    0.748830
 C   -3.696016    1.462910    0.631816
 C   -4.781706    0.960242   -0.077903
 C   -4.684788   -0.292270   -0.679082
 C   -3.508194   -1.024857   -0.589842
 O    4.546256    0.497186   -0.135005
 N    3.249865    2.351940   -0.281993
 H    3.261044   -2.883212    0.569023
 H    4.219954   -1.472699    0.153250
 H   -1.364974   -2.307443    0.175875
 H   -1.698755    1.106468    1.344929
 H   -3.764814    2.430703    1.119075
 H   -5.697947    1.536252   -0.157830
 H   -5.525246   -0.698510   -1.233458
 H   -3.424697   -1.990655   -1.080912
 H    4.094567    2.886962   -0.142219
 H    2.395599    2.788202    0.031065
