30 
3s0b_ligand_ani.xyz
 C    2.871187    0.666228    1.596893
 N    0.845575   -0.620618   -1.248082
 C    1.773183    0.218581    0.867550
 C    4.140817    0.692732    1.030441
 C    1.937590   -0.210853   -0.453682
 C    4.306771    0.261985   -0.282393
 C    3.218316   -0.187895   -1.017496
 C   -1.356079    0.077642   -0.402255
 C   -2.563769   -0.249980    0.269664
 C   -0.386799   -0.951844   -0.624704
 C   -2.790493   -1.590437    0.687490
 C   -0.640030   -2.235613   -0.202933
 C   -1.849592   -2.556832    0.453811
 C   -3.271243    2.067824    0.118471
 C   -3.510427    0.781124    0.517727
 C   -1.139744    1.422638   -0.810135
 C   -2.074304    2.395139   -0.553991
 H    2.728971    0.998173    2.622914
 H    1.122602   -1.275211   -1.967541
 H    0.785844    0.197046    1.323555
 H    4.992499    1.044348    1.606313
 H    5.292500    0.274351   -0.741275
 H    3.352209   -0.518828   -2.046000
 H   -3.721415   -1.829149    1.196048
 H    0.104957   -3.014680   -0.353505
 H   -2.020678   -3.582007    0.774294
 H   -4.004091    2.846568    0.316198
 H   -4.431665    0.524694    1.035531
 H   -0.216555    1.656730   -1.328320
 H   -1.896515    3.419654   -0.868375
