33 
3s0d_ligand_ani.xyz
 C   -3.013556   -1.243594   -1.128587
 N    2.486546   -2.161428    0.664206
 C   -2.962135   -0.844695    1.319066
 C   -2.794840   -0.405790   -0.114710
 C   -2.384193    1.030072   -0.357249
 C   -1.003971    1.411734    0.206434
 C    0.154727    0.623064   -0.406865
 C    1.515910    0.867415    0.257899
 C    2.642568    0.104681   -0.462492
 C    1.878709    2.355564    0.307477
 C    2.476907   -1.408913   -0.639822
 H   -3.306815   -2.277978   -0.961529
 H   -2.915922   -0.922441   -2.163947
 H    1.729375   -1.797332    1.266083
 H    2.338950   -3.168346    0.504059
 H    3.397294   -2.012392    1.133049
 H   -3.260084   -1.895133    1.375640
 H   -3.726234   -0.247216    1.833127
 H   -2.031882   -0.729667    1.887823
 H   -2.398926    1.223540   -1.437842
 H   -3.138107    1.695976    0.087625
 H   -0.854550    2.485691    0.040547
 H   -1.009758    1.270203    1.296504
 H    0.229514    0.867507   -1.478437
 H   -0.084600   -0.446124   -0.352324
 H    1.451059    0.517564    1.300830
 H    2.753517    0.539355   -1.464737
 H    3.591461    0.300700    0.056953
 H    1.873965    2.788748   -0.701486
 H    2.882697    2.498718    0.722455
 H    1.183065    2.930708    0.926555
 H    3.286946   -1.793552   -1.257565
 H    1.542464   -1.635756   -1.149736
