56 
3s1y_ligand_dft.xyz
 S   -4.383021    0.709714   -0.396067
 O   -3.231816    1.586541   -0.441268
 O   -4.637019    0.248277   -1.920450
 O   -5.640726    1.082152    0.189145
 N   -3.866820   -0.675007    0.369919
 C   -2.633628   -1.293965   -0.101703
 C   -2.369116   -2.655330    0.554988
 C   -0.852509   -2.860097    0.375012
 N   -0.335760   -1.499656    0.149847
 C   -1.376233   -0.481646    0.265143
 C   -1.438512    0.123066    1.667989
 O   -0.224124    0.860998    1.928989
 C    0.900979   -1.175391   -0.263626
 O    1.142591   -0.005205   -0.681927
 N    1.876729   -2.110855   -0.224586
 C    3.323334   -1.865199   -0.379391
 C    3.698364   -1.084277   -1.677316
 C    4.825634   -0.055810   -1.495527
 C    4.472195    1.219896   -0.702168
 N    3.317856    1.062304    0.248651
 C    2.825273    2.375659    0.785001
 C    1.843969    3.126370   -0.115783
 N    0.482147    2.504477   -0.159938
 C    3.521801    0.082387    1.371289
 C    3.963651   -1.305785    0.910864
 H   -5.588199    0.308442   -2.118642
 H   -4.641900   -1.315352    0.521669
 H   -2.640065   -1.418472   -1.193142
 H   -2.634303   -2.619315    1.616080
 H   -2.939802   -3.462645    0.092308
 H   -0.403920   -3.320562    1.261933
 H   -0.631061   -3.484115   -0.497315
 H   -1.217501    0.301051   -0.472229
 H   -2.297734    0.791079    1.736756
 H   -1.539190   -0.666606    2.419776
 H   -0.256937    1.122756    2.859282
 H    1.635559   -3.008089    0.171702
 H    3.745526   -2.867469   -0.482293
 H    4.034647   -1.808449   -2.422882
 H    2.815615   -0.608370   -2.106776
 H    5.146055    0.274347   -2.487607
 H    5.703143   -0.533247   -1.053503
 H    5.325494    1.583289   -0.122900
 H    4.173178    2.015062   -1.389862
 H    2.519068    0.629721   -0.285316
 H    2.361065    2.183892    1.754840
 H    3.694956    3.014637    0.958077
 H    1.732022    4.135995    0.284695
 H    2.198737    3.212864   -1.145409
 H    0.118054    2.226541    0.778963
 H    0.511919    1.581897   -0.646072
 H   -0.201658    3.114411   -0.617369
 H    2.548552    0.026291    1.868339
 H    4.245765    0.509171    2.070965
 H    3.740575   -1.987171    1.738416
 H    5.049158   -1.337221    0.792787
