56 
3s1y_ligand_ani.xyz
 S   -4.459257    0.701014   -0.354112
 O   -3.430097    1.707795   -0.476092
 O   -4.672069    0.026658   -1.822048
 O   -5.765931    1.019799    0.167757
 N   -3.879907   -0.595418    0.487610
 C   -2.667134   -1.236041   -0.020212
 C   -2.391725   -2.585828    0.644615
 C   -0.887330   -2.814788    0.428858
 N   -0.357943   -1.465035    0.198357
 C   -1.389549   -0.431837    0.248607
 C   -1.395816    0.302707    1.586431
 O   -0.172361    1.031505    1.739174
 C    0.859090   -1.172843   -0.346676
 O    1.071970   -0.061603   -0.844963
 N    1.806631   -2.165309   -0.301153
 C    3.265557   -1.941942   -0.376334
 C    3.691360   -1.148781   -1.637214
 C    4.847560   -0.166483   -1.413273
 C    4.501232    1.100179   -0.601485
 N    3.298237    0.998312    0.286835
 C    2.951881    2.329718    0.858151
 C    2.140866    3.211614   -0.097066
 N    0.818078    2.604513   -0.406866
 C    3.457300   -0.001757    1.385740
 C    3.865415   -1.405852    0.940735
 H   -5.371467    0.526125   -2.277069
 H   -4.649474   -1.231385    0.673980
 H   -2.737140   -1.374553   -1.103496
 H   -2.624297   -2.517362    1.713354
 H   -3.000214   -3.387936    0.217121
 H   -0.418496   -3.284565    1.303161
 H   -0.706706   -3.458479   -0.442323
 H   -1.221833    0.290095   -0.554077
 H   -2.245199    0.993170    1.616569
 H   -1.504160   -0.430832    2.397331
 H   -0.085836    1.249209    2.675989
 H    1.556541   -2.972557    0.250361
 H    3.673015   -2.952808   -0.482186
 H    3.981019   -1.872056   -2.409212
 H    2.825528   -0.613644   -2.025609
 H    5.214319    0.167278   -2.391029
 H    5.694866   -0.687086   -0.952872
 H    5.361624    1.393681    0.015755
 H    4.313780    1.930960   -1.287327
 H    2.493133    0.693608   -0.289608
 H    2.361898    2.167075    1.763830
 H    3.873317    2.841243    1.161623
 H    1.992448    4.187695    0.368407
 H    2.683599    3.368789   -1.033264
 H    0.379793    2.221843    0.451749
 H    0.923789    1.811782   -1.058178
 H    0.174487    3.291228   -0.831552
 H    2.502497   -0.041275    1.917942
 H    4.207292    0.371746    2.096717
 H    3.603615   -2.096193    1.751871
 H    4.956367   -1.462092    0.858454
