46 
3s22_ligand_dft.xyz
 C   -3.765608    0.243366   -1.252334
 C   -4.530020   -0.875263   -0.523550
 C   -3.832821    1.645357   -0.619317
 C   -3.935350   -1.400053    0.792792
 C    0.432743    0.338301   -1.152580
 C    0.717974   -0.472076    0.140422
 N   -2.571805    2.029570    0.076527
 C   -2.627117    3.332544    0.779279
 C    1.485277   -2.575617   -0.721550
 C    0.034167   -2.773955   -0.242179
 C    1.973039   -1.359154    0.078003
 C   -1.516808   -1.102031    0.843200
 N   -2.583906   -1.917375    0.633998
 N    3.115916   -0.726976   -0.579100
 N   -0.303990   -1.490385    0.371073
 O    4.148824    0.170883    1.517152
 O    0.045831    1.677238   -0.891383
 O   -1.641377   -0.011864    1.432563
 O    4.973004    0.932293   -0.721208
 O    2.727860    1.657362    0.143982
 S    3.772189    0.656035    0.018530
 H   -4.182730    0.319986   -2.260526
 H   -2.716902   -0.047951   -1.396618
 H   -4.616874   -1.718293   -1.219764
 H   -5.557439   -0.544714   -0.326929
 H   -4.632324    1.707969    0.125042
 H   -4.022232    2.411440   -1.375023
 H   -3.889055   -0.624095    1.558863
 H   -4.573346   -2.198772    1.180461
 H   -0.403361   -0.121489   -1.689039
 H    1.298277    0.325320   -1.821967
 H    0.742237    0.212560    0.987121
 H   -1.754303    2.030856   -0.561630
 H   -2.308015    1.265876    0.750750
 H   -3.399293    3.293082    1.548470
 H   -1.656620    3.514333    1.241443
 H   -2.854168    4.124019    0.063315
 H    1.509247   -2.336995   -1.790105
 H    2.096208   -3.466134   -0.558702
 H   -0.048472   -3.575192    0.499305
 H   -0.621840   -3.018482   -1.088700
 H    2.225597   -1.661342    1.101692
 H   -2.467050   -2.748357    0.073443
 H    3.850828   -1.364592   -0.871236
 H    4.545725    0.910543    2.009299
 H    0.841389    2.134214   -0.574889
