54 
3s2a_ligand_dft.xyz
 N   -2.747018   -2.964404   -1.517201
 N    4.864749   -3.049401    0.338735
 C   -1.422787   -1.571784    0.479215
 C   -2.791165   -1.389799    0.296298
 C   -2.234069    1.784169    0.538784
 C   -2.861388    1.908081   -0.699591
 C   -2.262075    2.667617   -1.694360
 C   -0.429094    3.202770   -0.179972
 C    1.372485   -3.858419   -0.302974
 C    3.544250   -2.841375    0.082740
 C    1.535270   -1.465575   -0.058567
 C    3.793762   -0.409860    0.234134
 C    2.401416    1.309113   -0.936675
 C    2.818849    2.676622   -1.470253
 C    3.522988    1.886513    1.147295
 O    2.910163    3.623689   -0.421702
 C    3.879005    3.234401    0.532747
 N    3.325441    0.895404    0.104307
 C    2.942451   -1.552400    0.062382
 C    5.117780   -0.657326    0.540836
 C    5.590165   -1.982871    0.588700
 C    2.725222   -3.980753   -0.135361
 C    0.752679   -2.583257   -0.235727
 C   -0.715087   -2.432734   -0.360914
 C   -1.435142   -3.117838   -1.340100
 C   -3.386803   -2.124616   -0.741632
Cl   -5.109114   -1.930624   -1.039849
 N   -3.555127   -0.536478    1.097330
 S   -3.005701    0.853651    1.847139
 O   -1.955105    0.508622    2.788086
 O   -4.225148    1.507376    2.281267
 C   -1.056407    3.298622   -1.413424
 F   -0.466964    4.012706   -2.379977
 C   -1.025955    2.423551    0.804612
 H   -0.918875   -1.061049    1.292987
 H   -3.802522    1.403391   -0.895566
 H   -2.710342    2.773469   -2.675452
 H    0.524795    3.695700   -0.017181
 H    0.758272   -4.743786   -0.440731
 H    1.052935   -0.498351    0.001048
 H    2.410324    0.575076   -1.746475
 H    1.371392    1.394264   -0.561891
 H    2.066833    3.059264   -2.164980
 H    3.785971    2.598512   -1.990666
 H    2.597656    1.998192    1.738336
 H    4.312196    1.556740    1.826802
 H    4.870171    3.174133    0.055682
 H    3.898323    4.017207    1.295171
 H    5.812228    0.164843    0.681450
 H    6.641894   -2.158325    0.809882
 H    3.212598   -4.949921   -0.135592
 H   -0.936641   -3.798056   -2.025575
 H   -4.557359   -0.525565    0.949315
 H   -0.554712    2.301628    1.773878
