57 
3s2o_ligand_ani.xyz
 C    2.968562    0.166730   -0.104982
 C    3.253187   -0.467728   -1.311382
 C    4.200188   -1.480608   -1.302544
 C    4.837935   -1.844504   -0.106404
 C    4.549524   -1.229827    1.098358
 C    3.592120   -0.215539    1.094226
 N    3.111364    0.534305    2.156852
 C    2.227181    1.331239    1.615882
 N    2.103977    1.199688    0.250100
 N    1.477336    2.272360    2.291911
Cl    6.027247   -3.116948   -0.143949
 C    1.348834    2.079037   -0.638379
 C    2.224642    2.704649   -1.732182
 C    3.445030    3.430828   -1.175692
 C    0.146972    1.335387   -1.223063
 C   -0.928092    1.038305   -0.183999
 N   -1.792335    0.038843   -0.487981
 O   -1.040809    1.673783    0.863497
 C   -2.921736   -0.270426    0.376140
 C   -4.078551    0.744335    0.229755
 C   -5.150402    0.415251    1.277909
 C   -5.691675   -1.003228    1.042298
 C   -6.306100   -1.081382   -0.363298
 C   -5.236549   -0.760696   -1.418098
 C   -4.691895    0.655523   -1.174925
 C   -3.461134   -1.688171    0.106376
 C   -4.091847   -1.778242   -1.294695
 C   -4.538195   -2.012323    1.153753
 H    2.753220   -0.192007   -2.234046
 H    4.456885   -1.998970   -2.220212
 H    5.043443   -1.522403    2.018168
 H    0.499266    2.254878    2.002751
 H    1.587063    2.165775    3.292148
 H    0.979895    2.897857   -0.018379
 H    1.590596    3.410273   -2.285078
 H    2.535096    1.941843   -2.454777
 H    3.152088    4.158714   -0.409162
 H    4.144258    2.726085   -0.713157
 H    3.974628    3.969294   -1.968763
 H    0.488538    0.405189   -1.690209
 H   -0.307695    1.947941   -2.013535
 H   -1.704311   -0.455389   -1.362373
 H   -2.556613   -0.209489    1.406579
 H   -3.678297    1.747332    0.405679
 H   -4.721555    0.497596    2.285880
 H   -5.967298    1.146670    1.214976
 H   -6.458826   -1.235113    1.793056
 H   -7.140359   -0.371777   -0.447302
 H   -6.714159   -2.086134   -0.538093
 H   -5.676001   -0.821491   -2.422568
 H   -3.937905    0.916531   -1.927654
 H   -5.504049    1.388633   -1.264382
 H   -2.629912   -2.399870    0.194298
 H   -4.478426   -2.793115   -1.455198
 H   -3.339345   -1.605055   -2.075390
 H   -4.104209   -1.981441    2.162133
 H   -4.913143   -3.032556    0.997276
