46 
3s2p_ligand_ani.xyz
 C   -2.976278   -1.345594    0.225216
 N   -3.118637    0.002372   -0.304501
 O    1.157370    3.563068   -0.391128
 C    0.172066    2.646685   -0.370096
 O   -5.809251   -0.705781    1.695806
 C   -1.133334    3.106058   -0.576149
 O   -4.599356   -2.457893   -1.210424
 C   -2.212004    2.243834   -0.547044
 C   -2.029304    0.873201   -0.300400
 C   -0.722288    0.417914   -0.106119
 C    0.387744    1.266830   -0.166464
 C   -4.442582    0.514847    0.033533
 C   -4.381393   -1.928432    0.082379
 C   -5.298095   -0.725550    0.377008
 C    3.699862   -2.554564   -0.282873
 C    4.198858   -3.192121    1.016931
 C    1.761273    0.699142   -0.031164
 N    2.761858    1.531866    0.320569
 C    3.964925    0.986814    0.531792
 C    4.752147   -2.674839   -1.389150
 N    4.299331   -0.293187    0.358076
 C    3.326118   -1.107042   -0.059524
 C    2.026713   -0.646073   -0.267175
 N    4.965124    1.840089    0.927724
 H   -2.655034   -1.343201    1.280706
 H   -2.257438   -1.929045   -0.360192
 H    1.988291    3.114478   -0.118034
 H   -5.066031   -0.736158    2.312159
 H   -1.280069    4.168628   -0.749635
 H   -4.327309   -1.776351   -1.840991
 H   -3.210088    2.639306   -0.708681
 H   -0.565871   -0.628832    0.135381
 H   -4.869666    1.084442   -0.802218
 H   -4.414751    1.179080    0.911203
 H   -4.567755   -2.742852    0.786438
 H   -6.179210   -0.778907   -0.267924
 H    2.790604   -3.077920   -0.604148
 H    4.444754   -4.247853    0.854792
 H    3.440537   -3.131120    1.804531
 H    5.098898   -2.676264    1.370771
 H    4.389676   -2.243125   -2.327829
 H    5.665826   -2.142478   -1.100579
 H    5.003791   -3.726836   -1.565823
 H    1.258412   -1.317495   -0.631590
 H    4.650371    2.688805    1.375415
 H    5.751638    1.373916    1.354920
