49 
3s3m_ligand_xtb.xyz
 C   -5.439655   -0.383078    2.478791
 O    1.835082   -1.118619   -2.125696
 O   -3.913451    2.102848    0.964913
 O    1.057710    2.340790    0.133475
 O   -1.454545    2.860292    0.929668
 F    6.908503   -1.956452    2.542063
 F    6.283547    1.711197   -0.312560
 C    5.186927   -2.042852    0.935195
 C    4.506473   -1.430274   -0.100234
 C    6.618706   -0.103352    1.128566
 C   -0.684818   -0.435477   -1.330275
 C   -6.260706   -2.059748   -0.093743
 C   -6.793344   -0.699753    0.341017
 C    4.074073    0.497480   -1.654620
 C   -3.043442   -0.992298   -1.423149
 N    2.714669    0.776157   -1.251051
 O   -5.140942   -1.882541   -0.942738
 C    1.706459   -0.070472   -1.508390
 C   -3.590584    1.069272    0.376964
 C    6.235444   -1.367443    1.534715
 C    5.911702    0.480191    0.092479
 C    4.854441   -0.158399   -0.542396
 C   -1.233939    1.778903    0.201203
 C    0.369805    0.364939   -0.996661
 C   -2.231736    0.894758   -0.156878
 C    0.174142    1.555663   -0.202223
 C   -5.693540    0.094263    1.047400
 C   -4.073759   -1.236774   -0.319874
 N   -4.461313    0.035642    0.259087
 N   -1.942060   -0.206597   -0.937006
 H   -4.665893    0.229699    2.934743
 H   -6.348737   -0.279442    3.064342
 H   -5.123269   -1.422865    2.507652
 H   -2.422541    2.917756    1.133772
 H    4.920189   -3.029732    1.277308
 H    3.688744   -1.937722   -0.588299
 H    7.437572    0.413485    1.601440
 H   -0.502115   -1.305965   -1.945375
 H   -6.993004   -2.602562   -0.692348
 H   -5.981269   -2.673798    0.773171
 H   -7.115778   -0.157483   -0.549390
 H   -7.646237   -0.818137    1.007234
 H    4.021662   -0.186076   -2.508537
 H    4.551777    1.431172   -1.957571
 H   -3.560356   -0.468965   -2.237583
 H   -2.685076   -1.950357   -1.800391
 H    2.511311    1.588874   -0.670308
 H   -5.970797    1.153115    1.086026
 H   -3.650454   -1.885572    0.477085
