76 
3s3q_ligand_ani.xyz
 N   -1.968406   -2.157051   -0.069372
 C   -2.558599   -0.894435   -0.054963
 O   -1.992036    0.077308    0.437823
 N   -3.819991   -0.810501   -0.583604
 C   -4.551925   -1.945194   -1.123224
 C   -6.043091   -1.758175   -0.865156
 O   -6.495760   -0.500982   -1.321172
 C   -5.832455    0.548644   -0.645286
 C   -4.337789    0.508221   -0.919271
 C   -0.582604   -2.198602    0.369464
 C    0.310250   -1.701565   -0.776769
 O    0.109736   -2.070990   -1.925679
 N    1.309642   -0.858507   -0.406182
 C    2.081276   -0.071727   -1.364042
 C    1.212208    0.925071   -2.148604
 C    0.236009    1.765679   -1.319878
 S    1.025663    2.561053    0.086943
 O    2.170942    3.324558   -0.402364
 O    1.208535    1.553094    1.138442
 C   -0.203851    3.710425    0.646864
 C    0.004902    5.071862    0.463720
 C   -0.960055    5.965371    0.915351
 C   -2.113219    5.492379    1.537618
 C   -2.308784    4.123351    1.708168
 C   -1.350584    3.218724    1.261478
 C    2.889806   -0.943496   -2.326202
 C    3.828545   -1.937900   -1.628761
 C    4.778259   -1.282548   -0.652025
 C    4.598588   -1.406043    0.727544
 C    5.460424   -0.774742    1.621298
 C    6.516644   -0.005092    1.144119
 C    6.702813    0.132972   -0.228698
 C    5.836850   -0.496688   -1.116687
 C   -0.145406   -3.604623    0.792531
 C   -1.056092   -4.281654    1.826708
 C   -0.477484   -5.643111    2.209241
 C   -1.265511   -3.411951    3.066771
 H   -2.092394   -2.633825   -0.959163
 H   -4.218946   -2.862607   -0.628641
 H   -4.378665   -2.047442   -2.204813
 H   -6.248001   -1.868327    0.211169
 H   -6.615387   -2.518621   -1.404363
 H   -6.267715    1.484699   -1.009414
 H   -6.016465    0.477725    0.438311
 H   -3.808936    1.239194   -0.304046
 H   -4.149874    0.745230   -1.977593
 H   -0.505315   -1.510649    1.217679
 H    1.235550   -0.433385    0.511660
 H    2.787060    0.501051   -0.749109
 H    0.622512    0.379313   -2.894952
 H    1.884523    1.603723   -2.687667
 H   -0.172072    2.573736   -1.933107
 H   -0.589885    1.177752   -0.902263
 H    0.916994    5.407666   -0.022213
 H   -0.810531    7.033113    0.782758
 H   -2.864653    6.194425    1.890495
 H   -3.210930    3.759434    2.192353
 H   -1.496688    2.145317    1.370536
 H    2.204244   -1.491351   -2.978296
 H    3.480360   -0.270167   -2.962572
 H    4.400090   -2.474076   -2.397823
 H    3.228862   -2.692806   -1.107672
 H    3.768908   -2.003178    1.103244
 H    5.307923   -0.885708    2.692393
 H    7.192988    0.486951    1.838872
 H    7.524933    0.734798   -0.609428
 H    5.981837   -0.379953   -2.190207
 H    0.874495   -3.532582    1.197802
 H   -0.079605   -4.237562   -0.104036
 H   -2.036172   -4.440726    1.357553
 H    0.503102   -5.524649    2.688288
 H   -0.345589   -6.282441    1.328856
 H   -1.132287   -6.168163    2.913737
 H   -1.888579   -3.931570    3.803510
 H   -0.307001   -3.176123    3.548952
 H   -1.764086   -2.467503    2.817976
