82 
3s3r_ligand_ani.xyz
 N   -1.674175   -2.806399   -1.834481
 C   -2.200023   -1.565809   -1.458767
 O   -2.447963   -0.683752   -2.273940
 C   -0.658650   -3.437319   -0.971867
 C    0.748523   -3.393196   -1.595480
 N    0.947184   -2.144776   -2.383553
 C    2.339669   -2.025589   -2.860184
 C   -0.035910   -2.050528   -3.517185
 C   -1.303243   -2.876885   -3.247355
 N   -2.415541   -1.402823   -0.121951
 C   -2.162441   -0.125663    0.497670
 C   -0.720723    0.337908    0.168070
 O    0.056166   -0.381812   -0.457182
 C   -2.387291   -0.199116    2.024685
 C   -3.720810   -0.800993    2.405251
 C   -3.794654   -2.074283    2.973155
 C   -4.908799   -0.107179    2.165889
 C   -5.024880   -2.643258    3.294664
 C   -6.140362   -0.669329    2.486533
 C   -6.200654   -1.940758    3.050244
 C    2.283530    0.420871    1.604067
 C    1.985535    1.897276    1.355011
 C    0.928958    2.167298    0.267696
 N   -0.355385    1.560635    0.618044
 C    0.784099    3.670857    0.014461
 C    0.041025    4.050610   -1.283078
 C   -1.439560    3.742852   -1.280675
 C   -1.957993    2.657792   -1.991560
 C   -3.315787    2.355788   -1.950154
 C   -4.184099    3.152106   -1.205755
 C   -3.681469    4.238448   -0.494253
 C   -2.320143    4.523873   -0.527351
 C    7.523913    0.259099    1.890432
 C    6.773610   -0.829164    2.330242
 C    5.485177   -1.031062    1.848346
 C    4.962397   -0.128972    0.927176
 S    3.300556   -0.364231    0.338138
 O    3.171107    0.379542   -0.920288
 O    3.011051   -1.801062    0.382070
 C    5.700680    0.958500    0.473983
 C    6.987933    1.149809    0.963008
 H   -0.628696   -2.907294   -0.018678
 H   -0.936458   -4.479557   -0.774776
 H    0.913170   -4.262105   -2.247294
 H    1.505032   -3.405447   -0.808397
 H    0.758437   -1.355502   -1.748260
 H    2.547804   -2.791490   -3.618561
 H    3.017154   -2.169292   -2.018221
 H    2.503589   -1.038311   -3.295072
 H    0.449892   -2.390574   -4.436956
 H   -0.302993   -0.998627   -3.633307
 H   -1.149622   -3.930589   -3.503211
 H   -2.130183   -2.497885   -3.847551
 H   -2.444734   -2.223827    0.460891
 H   -2.853412    0.605468    0.058049
 H   -1.578515   -0.789847    2.473420
 H   -2.307544    0.812233    2.441798
 H   -2.877104   -2.626630    3.173279
 H   -4.867341    0.885984    1.720579
 H   -5.063032   -3.637235    3.733656
 H   -7.055661   -0.114532    2.294928
 H   -7.162377   -2.382345    3.299311
 H    1.370053   -0.179961    1.633669
 H    2.811632    0.264683    2.551073
 H    2.915296    2.413215    1.082732
 H    1.635208    2.336393    2.298411
 H    1.265961    1.676649   -0.650790
 H   -1.074528    2.165934    0.989528
 H    1.791376    4.103024   -0.036053
 H    0.293237    4.141430    0.879541
 H    0.180854    5.125566   -1.453170
 H    0.522856    3.543393   -2.130062
 H   -1.280152    2.017651   -2.555021
 H   -3.675575    1.463950   -2.459184
 H   -5.247560    2.925735   -1.176300
 H   -4.351412    4.865492    0.089032
 H   -1.930829    5.370651    0.037122
 H    8.531199    0.412303    2.270133
 H    7.195087   -1.523834    3.051756
 H    4.890513   -1.881118    2.171742
 H    5.271535    1.634876   -0.260202
 H    7.576119    1.995367    0.617032
