82 
3s3r_ligand_xtb.xyz
 N   -0.346045   -1.594009   -2.901370
 C   -1.289974   -1.109824   -1.992288
 O   -2.258997   -0.496139   -2.390477
 C    1.057271   -1.762058   -2.597321
 C    1.854794   -0.526569   -3.080981
 N    0.930162    0.613470   -3.206313
 C    1.635821    1.891587   -3.337050
 C   -0.036651    0.376465   -4.301231
 C   -0.517740   -1.089433   -4.246918
 N   -1.107239   -1.437060   -0.683240
 C   -1.603520   -0.490890    0.294372
 C   -0.688280    0.737364    0.222258
 O   -0.189819    1.071621   -0.849141
 C   -1.710585   -1.154984    1.667059
 C   -2.587203   -2.376843    1.567083
 C   -2.036021   -3.644781    1.457171
 C   -3.968553   -2.235581    1.549527
 C   -2.852262   -4.756090    1.336343
 C   -4.785233   -3.344879    1.428194
 C   -4.228036   -4.608089    1.321087
 C    2.114749    0.882869    2.314839
 C    1.637718    2.323703    2.289058
 C    0.417443    2.575198    1.379840
 N   -0.448681    1.413345    1.345804
 C   -0.344354    3.816449    1.853168
 C   -1.405696    4.300757    0.858567
 C   -2.522279    3.317500    0.629460
 C   -2.789375    2.832376   -0.643946
 C   -3.822225    1.936720   -0.862032
 C   -4.604417    1.512046    0.199163
 C   -4.353601    1.995016    1.473206
 C   -3.322459    2.893014    1.684746
 C    6.655158   -1.593766    1.403702
 C    5.529005   -2.381230    1.588845
 C    4.271003   -1.851837    1.351834
 C    4.163833   -0.541260    0.927686
 S    2.542912    0.174996    0.680518
 O    2.647680    1.193724   -0.338606
 O    1.609570   -0.898445    0.399278
 C    5.278486    0.253440    0.736285
 C    6.533943   -0.280300    0.975271
 H    1.212634   -1.883329   -1.527177
 H    1.422224   -2.663512   -3.100006
 H    2.327071   -0.700120   -4.051090
 H    2.620071   -0.267730   -2.348038
 H    0.398736    0.676172   -2.293453
 H    2.294412    1.876040   -4.204781
 H    2.218035    2.059681   -2.431450
 H    0.913229    2.696881   -3.447689
 H    0.443546    0.594973   -5.257511
 H   -0.883725    1.048014   -4.157382
 H    0.051953   -1.725803   -4.925973
 H   -1.574451   -1.144326   -4.507391
 H   -0.238333   -1.867467   -0.403444
 H   -2.594786   -0.167906   -0.050908
 H   -0.710859   -1.434905    2.007934
 H   -2.158620   -0.457218    2.377750
 H   -0.961877   -3.765706    1.472466
 H   -4.404046   -1.250321    1.634848
 H   -2.413017   -5.739055    1.255067
 H   -5.857948   -3.224689    1.418802
 H   -4.864792   -5.474422    1.227803
 H    1.365202    0.205745    2.715396
 H    3.027249    0.794831    2.900541
 H    2.450496    2.967042    1.950683
 H    1.389944    2.608345    3.315693
 H    0.762148    2.711653    0.350628
 H   -0.958381    1.188344    2.185514
 H    0.377923    4.619525    2.008548
 H   -0.811109    3.598340    2.816249
 H   -1.830605    5.230226    1.246965
 H   -0.923356    4.528934   -0.093580
 H   -2.185222    3.163797   -1.476113
 H   -4.007399    1.558838   -1.855012
 H   -5.412143    0.816223    0.029886
 H   -4.970881    1.682649    2.303158
 H   -3.151311    3.282835    2.678621
 H    7.633916   -2.006922    1.592071
 H    5.629715   -3.403476    1.918113
 H    3.375342   -2.439241    1.478839
 H    5.149039    1.268053    0.393385
 H    7.413970    0.326211    0.829153
