39 
3s3v_ligand_ani.xyz
 C    3.166605   -0.086439    1.474951
 N    4.310621    0.429840    1.018871
 C    4.528509    0.224804   -0.289078
 N    5.666164    0.765830   -0.815095
 N    3.740908   -0.438239   -1.141427
 C    2.599864   -0.919898   -0.648626
 N    1.802947   -1.616789   -1.515296
 C    2.245870   -0.775264    0.714013
 C    0.966658   -1.343477    1.265370
 C   -0.306783   -0.698515    0.726512
 C   -0.363612    0.678672    0.515531
 C   -1.532129    1.261109    0.018906
 O   -1.700859    2.593151   -0.182720
 C   -0.629494    3.442746    0.163809
 C   -2.635679    0.466643   -0.308829
 O   -3.732413    1.019916   -0.906488
 C   -4.705977    1.475954    0.019209
 C   -2.600728   -0.903342   -0.024501
 O   -3.756678   -1.571666   -0.275918
 C   -3.783628   -2.953458    0.006779
 C   -1.437030   -1.483611    0.481625
 H    2.974107    0.069668    2.539364
 H    6.380381    1.026885   -0.153483
 H    5.963141    0.397107   -1.705735
 H    2.078725   -1.515854   -2.482260
 H    0.805070   -1.579859   -1.356129
 H    0.993325   -1.244629    2.359137
 H    0.920066   -2.421026    1.059520
 H    0.497478    1.296211    0.748545
 H   -0.385865    3.360972    1.231108
 H    0.266883    3.218179   -0.428931
 H   -0.963942    4.457585   -0.055751
 H   -5.075369    0.646583    0.635337
 H   -4.290643    2.259551    0.665303
 H   -5.529074    1.886913   -0.569979
 H   -3.043851   -3.499493   -0.593032
 H   -3.599650   -3.146776    1.071637
 H   -4.785587   -3.295948   -0.255289
 H   -1.404754   -2.547316    0.688257
