70 
3s43_ligand_xtb.xyz
 C    6.565223    0.886748    0.909587
 C    6.827262   -0.383246   -1.133375
 C    3.564447    0.686045    0.090944
 C    5.794436   -0.046361   -0.050949
 C    1.246629    1.400204   -0.068781
 C    0.491818    0.163197   -0.612139
 C    0.586658    2.726323   -0.464522
 C   -0.801611    2.861535    0.089337
 C   -1.905657    2.825185   -0.752773
 C   -1.007811    3.009146    1.456012
 C   -3.187280    2.928056   -0.241201
 C   -2.288638    3.101057    1.970226
 C   -3.382600    3.058322    1.122469
 C   -0.706560   -0.222850    0.279588
 C   -0.703174   -2.510536    1.282488
 C    0.779977   -2.908925    1.309311
 C   -3.591775   -1.046701   -0.524866
 C   -4.218007   -0.292331   -1.499864
 C   -5.332638    0.453163   -1.178281
 C   -5.826876    0.460326    0.131241
 C   -5.176185   -0.308015    1.104384
 C   -4.070863   -1.061624    0.772888
 C    1.139150   -3.658174    0.029889
 C    1.055889   -3.771274    2.538094
 C    8.124404    0.219110   -0.578559
 N    2.610962    1.394892   -0.554273
 N   -1.022371   -1.625914    0.190185
 N   -6.957850    1.161495    0.443684
 O    4.685577    0.604061   -0.662324
 O    3.454334    0.217727    1.198877
 O    0.110646    0.415868   -1.937372
 O   -2.466669   -3.425026   -0.773793
 O   -1.686471   -1.600787   -2.225636
 O    7.723845    1.303216    0.227039
 S   -2.162647   -2.034513   -0.933444
 H    6.832192    0.337435    1.823030
 H    5.986647    1.770866    1.176926
 H    6.530744    0.120090   -2.052583
 H    6.909726   -1.451041   -1.317215
 H    5.421314   -0.924965    0.485164
 H    1.318272    1.310779    1.019560
 H    1.201574   -0.680576   -0.580588
 H    0.552555    2.772804   -1.552822
 H    1.217354    3.537189   -0.092960
 H   -1.756702    2.704865   -1.815197
 H   -0.157363    3.054494    2.121014
 H   -4.034520    2.904302   -0.909992
 H   -2.434311    3.212422    3.034914
 H   -4.382585    3.134883    1.523976
 H   -1.581379    0.354183   -0.037327
 H   -0.490343    0.023504    1.321916
 H   -0.980504   -2.041974    2.237109
 H   -1.311766   -3.404053    1.130973
 H    1.385406   -1.998525    1.378025
 H   -3.815259   -0.301235   -2.499952
 H   -5.835227    1.035822   -1.936294
 H   -5.553264   -0.309158    2.116288
 H   -3.569979   -1.664614    1.513711
 H    2.206989   -3.861470   -0.007921
 H    0.600319   -4.602006   -0.015681
 H    0.860159   -3.073600   -0.843751
 H    2.104421   -4.055612    2.568919
 H    0.452927   -4.676335    2.509040
 H    0.822854   -3.228632    3.451487
 H    8.661323   -0.525963    0.028533
 H    8.791811    0.604739   -1.348653
 H    2.745833    1.564491   -1.539430
 H   -7.282463    1.857815   -0.204098
 H   -7.172739    1.312833    1.413622
 H   -0.484254   -0.305638   -2.223036
