75 
3s53_ligand_xtb.xyz
 N   -6.995787    2.253010   -0.938812
 C   -6.103558    1.215717   -0.998574
 C   -6.083582    0.237542    0.003427
 C   -5.139040   -0.766158   -0.021143
 C   -4.206477   -0.806591   -1.042320
 C   -4.208573    0.150613   -2.041408
 C   -5.152833    1.155427   -2.024199
 S   -2.976894   -2.098431   -1.034852
 O   -3.597170   -3.367695   -0.802008
 O   -2.178922   -1.954563   -2.228627
 N   -1.991229   -1.763384    0.258566
 C   -2.163793   -2.489387    1.493236
 C   -0.842764   -3.094355    1.988839
 C   -0.323435   -4.106858    0.973029
 C   -1.050584   -3.746666    3.352635
 C   -1.466782   -0.418895    0.307522
 C   -0.092155   -0.298094   -0.376188
 O   -0.196104   -0.182487   -1.771234
 C    0.693323    0.927900    0.131536
 N    2.032126    0.850462   -0.408058
 C    3.130906    0.957304    0.357726
 O    3.139902    1.165996    1.545804
 O    4.251608    0.807576   -0.399823
 C    5.475732    0.942070    0.299083
 C    5.859105   -0.304046    1.118906
 O    7.261790   -0.208383    1.254934
 C    7.776799    0.254518    0.047481
 O    8.108233   -0.812932   -0.810770
 C    7.755495   -0.456563   -2.129909
 C    6.477564    0.377053   -2.007883
 C    6.666595    1.083243   -0.661039
 C    0.044969    2.263544   -0.278566
 C   -1.026264    2.830131    1.917148
 C   -2.130414    3.136809    2.691511
 C   -3.381992    3.242383    2.107676
 C   -3.520344    3.052905    0.743862
 C   -2.413795    2.745345   -0.028752
 C   -1.156598    2.618452    0.548911
 H   -7.797683    2.144998   -0.341137
 H   -7.143324    2.790479   -1.776358
 H   -6.816590    0.277558    0.795309
 H   -5.121440   -1.533190    0.736660
 H   -3.470682    0.084846   -2.825268
 H   -5.165015    1.905090   -2.801522
 H   -2.592076   -1.833240    2.264025
 H   -2.868271   -3.293751    1.276172
 H   -0.112056   -2.284462    2.092540
 H   -0.260784   -3.652171   -0.012600
 H   -1.002033   -4.954172    0.908447
 H    0.661454   -4.468208    1.259629
 H   -1.790968   -4.540220    3.282629
 H   -1.393875   -3.017180    4.082987
 H   -0.118245   -4.176275    3.710024
 H   -2.165393    0.256883   -0.195394
 H   -1.385745   -0.107440    1.351207
 H    0.491424   -1.198415   -0.118570
 H   -0.821301   -0.865137   -2.088641
 H    0.797061    0.876721    1.219544
 H    2.118180    0.658932   -1.393567
 H    5.410546    1.807286    0.969872
 H    5.574704   -1.210589    0.568363
 H    5.419159   -0.317781    2.114409
 H    8.681611    0.833586    0.284681
 H    7.626904   -1.378991   -2.696518
 H    8.563315    0.136813   -2.584042
 H    6.360125    1.076739   -2.831294
 H    5.603361   -0.270392   -1.968312
 H    6.960072    2.124167   -0.788141
 H   -0.222034    2.201022   -1.333687
 H    0.803504    3.040844   -0.155162
 H   -0.050567    2.758353    2.375536
 H   -2.014092    3.297608    3.753374
 H   -4.244478    3.480133    2.712612
 H   -4.491350    3.142965    0.280204
 H   -2.528606    2.600742   -1.093749
