100 
3s56_ligand_ani.xyz
 C    4.314181   -0.305866    0.695188
 O    3.621816   -1.251975    1.080876
 N    6.389925    0.572874   -0.154808
 C    5.758180   -0.483388    0.302065
 C    6.345200   -1.763086    0.438618
 C    7.653182   -1.918672    0.070143
 C    9.734149   -0.875951   -0.842781
 C   10.373405    0.238271   -1.319981
 C    9.687276    1.474523   -1.410485
 C    8.376221    1.572682   -1.023061
 C    8.376662   -0.805313   -0.433611
 C    7.692187    0.432550   -0.526509
 N    3.859062    0.956905    0.587628
 C    2.490505    1.297273    0.920172
 C    1.554402    0.870637   -0.221601
 O    1.147143    1.678574   -1.059219
 C    2.319411    2.779512    1.201599
 C    0.907465    3.042859    1.700668
 O    0.167601    2.120791    2.018835
 N    0.531801    4.341585    1.792303
 C   -1.080735   -0.509512   -1.239573
 O   -1.170640    0.619658   -2.099532
 C    0.367053   -1.061371   -1.207266
 N    1.217697   -0.431678   -0.206264
 C    0.445269   -2.591518   -1.048113
 C   -0.187057   -3.170907    0.201596
 C    0.531827   -3.301481    1.394717
 C   -1.519741   -3.593671    0.180522
 C   -0.077900   -3.811445    2.538506
 C   -2.134424   -4.094293    1.325502
 C   -1.412823   -4.203268    2.510615
 N   -2.842839    0.824485   -0.081928
 C   -1.701311   -0.148608    0.132626
 C   -4.189929    0.272960    0.314093
 C   -4.529999   -0.904272   -0.608966
 O   -4.281133   -0.852341   -1.806066
 C   -5.299053    1.324956    0.184609
 C   -4.963236    2.614738    0.936461
 C   -6.077011    3.668086    0.834220
 C   -6.184418    4.285867   -0.565559
 C   -4.843301    4.865872   -1.024240
 C   -3.739464    3.807164   -0.964313
 C   -3.629757    3.195017    0.441074
 C   -2.528341    2.147648    0.558035
 N   -5.163878   -1.953306   -0.018751
 C   -5.903191   -3.001081   -0.754857
 C   -6.562224   -3.891308    0.299035
 C   -6.978088   -2.373818   -1.654301
 C   -4.941844   -3.833453   -1.607183
 H    5.745349   -2.579284    0.828095
 H    8.149063   -2.883532    0.155665
 H   10.252785   -1.829660   -0.769834
 H   11.412784    0.182778   -1.633241
 H   10.208802    2.349124   -1.790873
 H    7.820067    2.503605   -1.079224
 H    4.478800    1.638198    0.166725
 H    2.216515    0.728686    1.811765
 H    3.036632    3.093095    1.969356
 H    2.506031    3.361760    0.292574
 H   -0.425326    4.544764    2.041112
 H    1.105213    5.091419    1.441085
 H   -1.717519   -1.271590   -1.702350
 H   -0.392189    1.182852   -1.904951
 H    0.767795   -0.811088   -2.199324
 H    1.764090   -1.037045    0.400135
 H   -0.022992   -3.044551   -1.931005
 H    1.505594   -2.873348   -1.099537
 H    1.581972   -3.009920    1.435366
 H   -2.087502   -3.514176   -0.747749
 H    0.496284   -3.899534    3.457458
 H   -3.175502   -4.408840    1.296619
 H   -1.883914   -4.597346    3.407310
 H   -2.847020    0.947049   -1.118505
 H   -2.076553   -1.038327    0.642243
 H   -0.985260    0.330420    0.802191
 H   -4.118180   -0.056805    1.357801
 H   -6.233439    0.899583    0.570091
 H   -5.469171    1.529294   -0.877794
 H   -4.835557    2.348237    1.997086
 H   -5.868005    4.468876    1.557929
 H   -7.035077    3.221360    1.129632
 H   -6.515263    3.520229   -1.281580
 H   -6.958332    5.062996   -0.571928
 H   -4.926108    5.273542   -2.038691
 H   -4.570672    5.705409   -0.368887
 H   -2.772299    4.242354   -1.249789
 H   -3.952275    3.021612   -1.703332
 H   -3.347700    4.014606    1.119321
 H   -1.606825    2.527167    0.107864
 H   -2.321478    1.961447    1.617459
 H   -5.320434   -1.905820    0.978341
 H   -7.264075   -3.315754    0.914003
 H   -5.806544   -4.336534    0.956911
 H   -7.119741   -4.708194   -0.171978
 H   -6.521820   -1.730368   -2.410565
 H   -7.678370   -1.775157   -1.061161
 H   -7.544643   -3.163083   -2.161995
 H   -4.205354   -4.340338   -0.975133
 H   -5.500034   -4.605048   -2.150652
 H   -4.419649   -3.198837   -2.326444
