31 
3s68_ligand_ani.xyz
 O   -0.977066   -2.757955   -0.661015
 C   -0.868639   -1.595416   -0.313413
 C    0.498542   -0.999381   -0.133920
 C    1.536816   -1.891085    0.178172
 C    2.829193   -1.435301    0.337360
 O    3.831284   -2.287456    0.658516
 C    0.790034    0.344264   -0.333897
 C    2.102808    0.795144   -0.186329
 N    2.367390    2.208767   -0.389113
 O    1.444914    2.936282   -0.688307
 O    3.527496    2.611433   -0.247597
 C    3.138436   -0.073238    0.158698
 O    4.438443    0.241385    0.339466
 C   -2.100888   -0.774833   -0.079139
 C   -3.252111   -1.134563   -0.784771
 C   -4.432596   -0.429735   -0.616141
 C   -4.508169    0.639241    0.283528
 C   -5.793444    1.405539    0.459390
 C   -3.366470    0.969418    1.013546
 C   -2.175212    0.273387    0.838807
 H    1.318418   -2.947486    0.291967
 H    4.641279   -1.757409    0.712822
 H    0.035035    1.067167   -0.612419
 H    4.540722    1.202033    0.187631
 H   -3.197273   -1.979082   -1.465700
 H   -5.316856   -0.712766   -1.184532
 H   -6.085399    1.909477   -0.469298
 H   -6.616838    0.739112    0.740477
 H   -5.700064    2.168152    1.237655
 H   -3.403784    1.788985    1.727121
 H   -1.297341    0.550291    1.418218
