44 
3s6t_ligand_xtb.xyz
 C   -1.854729    4.326534    0.584918
 C   -2.690218    3.140068    0.172701
 O   -3.898500    3.203889    0.021790
 N   -1.963414    2.014166    0.018787
 C   -2.404187    0.730840   -0.507397
 C   -3.696044    0.189252    0.136400
 O   -4.848130    0.781290   -0.382372
 C   -3.822120   -1.309339   -0.184446
 O   -4.989024   -1.834564    0.377270
 C   -2.627432   -2.067635    0.376137
 C   -2.643828   -3.547400   -0.025576
 O   -1.595112   -4.260163    0.565059
 O   -1.391026   -1.531564   -0.096248
 C   -1.241855   -0.230813   -0.340341
 N   -0.105289    0.305450   -0.497589
 O    1.031211   -0.502684   -0.367476
 C    2.165106    0.266969   -0.212245
 O    2.153662    1.458417   -0.093515
 N    3.222659   -0.579639   -0.201734
 C    4.582129   -0.274999   -0.056638
 C    5.048042    1.029881    0.060576
 C    6.405356    1.261121    0.194707
 C    7.304763    0.208850    0.213809
 C    6.839467   -1.090352    0.097239
 C    5.486045   -1.334138   -0.037508
 H   -2.505807    5.171694    0.788198
 H   -1.166978    4.586458   -0.216556
 H   -1.274411    4.089780    1.472943
 H   -0.953624    2.081210    0.070634
 H   -2.607729    0.825686   -1.588633
 H   -3.641092    0.326107    1.230360
 H   -4.747924    1.759235   -0.289303
 H   -3.844228   -1.419883   -1.283172
 H   -5.689731   -1.188038    0.207181
 H   -2.636151   -1.998063    1.472717
 H   -3.575434   -3.993126    0.324937
 H   -2.598585   -3.615553   -1.122076
 H   -0.769170   -3.812439    0.344405
 H    2.996531   -1.559566   -0.307672
 H    4.349713    1.849306    0.045554
 H    6.761047    2.276536    0.283881
 H    8.362103    0.398248    0.318433
 H    7.531914   -1.918691    0.110621
 H    5.124243   -2.348728   -0.128783
