20 
3s71_ligand_dft.xyz
 N    2.741512   -0.730410    1.300997
 O   -0.104589   -0.979071   -0.053931
 S    2.363872    0.044103   -0.123933
 O    2.710127   -0.859105   -1.203696
 C    0.608676    0.176533   -0.047084
 O    2.851256    1.409967   -0.054887
 C   -0.160669    1.286826   -0.013881
 C   -2.788359    1.384961    0.040825
 C   -3.893227    0.550011    0.050362
 C   -3.752893   -0.849708    0.024564
 C   -2.504908   -1.453414   -0.011273
 C   -1.411312   -0.597595   -0.020126
 C   -1.516279    0.799233    0.005147
 H    3.254534   -1.587529    1.125341
 H    3.211281   -0.109090    1.950631
 H    0.195620    2.305862   -0.007274
 H   -2.902851    2.464028    0.059931
 H   -4.889344    0.980181    0.077580
 H   -4.642348   -1.471810    0.031926
 H   -2.379959   -2.529834   -0.033285
