20 
3s71_ligand_ani.xyz
 N    2.775323   -0.644221    1.335603
 O   -0.096746   -0.988771   -0.095182
 S    2.376401    0.036231   -0.119522
 O    2.759428   -0.922323   -1.131474
 C    0.619865    0.164750   -0.099974
 O    2.852834    1.404241   -0.095597
 C   -0.141293    1.274065   -0.045013
 C   -2.767659    1.391698    0.041537
 C   -3.880427    0.566327    0.060983
 C   -3.749557   -0.832076    0.030384
 C   -2.506659   -1.447104   -0.021955
 C   -1.407335   -0.599024   -0.043732
 C   -1.501118    0.795129   -0.011386
 H    2.491708   -1.616109    1.400537
 H    2.499242   -0.078195    2.131768
 H    0.224813    2.291067   -0.028243
 H   -2.869795    2.472681    0.066410
 H   -4.873823    1.005430    0.101027
 H   -4.645760   -1.446674    0.048472
 H   -2.395086   -2.526109   -0.043872
