20 
3s71_ligand_xtb.xyz
 N    2.659608   -0.784825    1.303552
 O   -0.094673   -0.959921   -0.081155
 S    2.372863    0.049329   -0.118289
 O    2.743835   -0.776065   -1.225813
 C    0.605718    0.196204   -0.063633
 O    2.924396    1.363827    0.006977
 C   -0.186282    1.292502   -0.010305
 C   -2.794454    1.380120    0.057255
 C   -3.890594    0.546266    0.059684
 C   -3.750949   -0.843293    0.014294
 C   -2.509600   -1.444616   -0.034634
 C   -1.404579   -0.606614   -0.037935
 C   -1.528252    0.798654    0.008385
 H    2.994373   -1.719071    1.135879
 H    3.257962   -0.270539    1.927806
 H    0.146688    2.308810    0.010944
 H   -2.903469    2.452599    0.091459
 H   -4.882753    0.970000    0.097170
 H   -4.636761   -1.459946    0.016927
 H   -2.393626   -2.515406   -0.071164
