20 
3s72_ligand_ani.xyz
 N   15.371148   -0.374994   16.047156
 S   14.950720    0.984239   16.897633
 N   15.092500    3.237311   15.337345
 O   15.530932    0.891604   18.223256
 C   15.816035    2.298841   16.004652
 N   17.098234    2.444959   15.949825
 O   13.537251    1.242079   16.669276
 C   15.891452    5.245953   13.995618
 C   17.068140    5.870656   13.607952
 C   18.326768    5.367668   13.988571
 C   18.441077    4.227288   14.768616
 C   17.264760    3.589250   15.167483
 C   16.015181    4.100393   14.777690
 H   15.981520   -0.979924   16.586449
 H   14.558024   -0.848499   15.667473
 H   14.920428    5.635327   13.702234
 H   17.017971    6.767947   12.997318
 H   19.226641    5.884308   13.664876
 H   19.406898    3.830405   15.068525
 H   14.085316    3.265190   15.278050
