19 
3s73_ligand_dft.xyz
 N    2.850006   -1.388859    0.826359
 S    2.467216   -0.069622   -0.089222
 O    2.821120   -0.376383   -1.457064
 S   -0.143921    1.566044    0.027067
 C    0.672604    0.023211   -0.010992
 O    2.957269    1.105247    0.602372
 N   -0.048115   -1.041078   -0.021058
 C   -2.453902   -1.609830   -0.018724
 C   -3.746631   -1.119592   -0.008405
 C   -3.994210    0.263348    0.010832
 C   -2.955606    1.179826    0.019699
 C   -1.649404    0.686137    0.006840
 C   -1.391415   -0.698488   -0.011628
 H    2.445663   -2.244293    0.457698
 H    2.652457   -1.251594    1.812011
 H   -2.244478   -2.673833   -0.036326
 H   -4.583655   -1.810229   -0.016542
 H   -5.018713    0.621756    0.018138
 H   -3.152956    2.246423    0.034216
