20 
3s74_ligand_dft.xyz
 N    2.937564   -0.374064    1.371548
 S    2.470593    0.207718   -0.123655
 O    2.971491   -0.748461   -1.094068
 S   -0.102136   -1.462925   -0.046345
 C    0.712603    0.079668   -0.057084
 O    2.773127    1.626787   -0.206538
 C   -0.119270    1.147789   -0.043164
 C   -2.647970    1.563521    0.014502
 C   -3.894892    0.969769    0.045106
 C   -4.022437   -0.429877    0.050746
 C   -2.907789   -1.249777    0.025643
 C   -1.646092   -0.648278   -0.003770
 C   -1.500770    0.754134   -0.010050
 H    3.709354   -1.024680    1.263501
 H    3.156894    0.380944    2.013494
 H    0.235037    2.171421   -0.060140
 H   -2.546870    2.644695    0.008479
 H   -4.787034    1.587561    0.064238
 H   -5.011663   -0.876401    0.074339
 H   -3.011238   -2.330079    0.028520
