20 
3s74_ligand_ani.xyz
 N    2.861879    0.229031    1.490328
 S    2.474690    0.146073   -0.126732
 O    2.957701   -1.129484   -0.618736
 S   -0.109789   -1.464263   -0.055189
 C    0.717070    0.056841   -0.103818
 O    2.840164    1.415098   -0.731711
 C   -0.105342    1.132078   -0.096030
 C   -2.631322    1.575194   -0.003681
 C   -3.883299    0.992482    0.054694
 C   -4.022928   -0.404433    0.082584
 C   -2.914224   -1.233726    0.052963
 C   -1.648139   -0.646750   -0.005257
 C   -1.492239    0.754754   -0.034513
 H    3.440185   -0.558264    1.763407
 H    3.272988    1.126215    1.722882
 H    0.251098    2.156178   -0.141418
 H   -2.519989    2.656498   -0.025530
 H   -4.770317    1.619529    0.078989
 H   -5.016349   -0.842075    0.127814
 H   -3.029562   -2.313819    0.074214
