20 
3s74_ligand_xtb.xyz
 N    2.820403   -0.303301    1.441451
 S    2.464727    0.191771   -0.122606
 O    2.950864   -0.802970   -1.028496
 S   -0.065876   -1.411672   -0.070646
 C    0.702519    0.132528   -0.089668
 O    2.868925    1.556782   -0.272391
 C   -0.147799    1.181335   -0.060883
 C   -2.670766    1.549080    0.018187
 C   -3.899111    0.930380    0.057418
 C   -4.000395   -0.461969    0.060418
 C   -2.872819   -1.255403    0.023771
 C   -1.630762   -0.636757   -0.016063
 C   -1.511951    0.768951   -0.019070
 H    3.349910   -1.159689    1.453128
 H    3.274408    0.423719    1.969006
 H    0.187642    2.201871   -0.075195
 H   -2.588050    2.625063    0.015376
 H   -4.799407    1.525392    0.086009
 H   -4.975839   -0.922973    0.091028
 H   -2.944902   -2.331228    0.024959
