13 
3s77_ligand_ani.xyz
 S    1.402446    0.029843   -0.142993
 O    1.595931    1.464432   -0.235072
 S   -1.440312    1.159980    0.003309
 C   -0.371218   -0.188525   -0.077593
 O    1.946854   -0.904826   -1.105375
 N   -0.917351   -1.357173   -0.054998
 C   -2.279821   -1.222704    0.037308
 C   -2.751467    0.052792    0.080964
 N    1.866035   -0.443525    1.376671
 H   -2.893846   -2.114226    0.070517
 H   -3.782485    0.376562    0.153567
 H    2.341398    0.300811    1.875528
 H    2.372755   -1.321646    1.363112
