13 
3s77_ligand_dft.xyz
 S    1.413393    0.105814   -0.096943
 O    1.650258    1.393388    0.524740
 S   -1.475324    1.166080    0.039604
 C   -0.359171   -0.152708   -0.018518
 O    1.841712   -0.203454   -1.442624
 N   -0.877517   -1.340408   -0.041839
 C   -2.245516   -1.252838   -0.021594
 C   -2.750713    0.013337    0.016530
 N    2.044310   -1.054940    0.893214
 H   -2.834735   -2.160902   -0.034225
 H   -3.787394    0.318512    0.040775
 H    1.805169   -0.912756    1.868835
 H    1.836941   -1.993927    0.566961
