58 
3s7a_ligand_xtb.xyz
 N   -1.562637   -3.814879   -1.541221
 C   -2.005388   -4.744619   -0.716528
 N   -3.100464   -5.432929   -1.093611
 N   -1.466180   -5.111797    0.468105
 C   -0.371249   -4.494799    0.852451
 N    0.205540   -4.819052    2.018946
 N    1.330394   -2.830508    0.426872
 C    1.784580   -1.895034   -0.380356
 C    1.119610   -1.590790   -1.586471
 N    0.037049   -2.200987   -1.983752
 C    3.009437   -1.128043    0.032797
 N    2.717608    0.287249   -0.074963
 C    0.218882   -3.468610    0.039598
 C   -0.452186   -3.166000   -1.175885
 O   -5.821777    1.763552   -1.097403
 O   -6.448917    3.864508   -1.387212
 C    5.991692    2.882444   -0.474152
 C    6.111188    1.726304    0.275555
 C   -0.123488    0.522378    2.296289
 C    4.782380    3.180034   -1.073532
 C    5.023131    0.885087    0.429651
 C    1.071203    0.139236    1.725053
 C    2.444109    2.711324   -1.618749
 C    1.191725    2.449529   -1.234514
 C   -0.431361    2.136018    0.560460
 C   -3.783299    2.337777    0.738899
 C   -2.893731    2.846846    1.877040
 C   -4.697377    3.441264    0.216453
 O   -2.040421    1.851660    2.388653
 C   -5.687957    2.913328   -0.808767
 C   -0.890706    1.533849    1.721384
 C    3.672838    2.350529   -0.928329
 C    0.778464    1.759370   -0.022627
 C    3.798436    1.180757   -0.161402
 C    1.540240    0.741668    0.561019
 H   -3.603858   -5.105668   -1.898120
 H   -3.538924   -6.041276   -0.426971
 H   -0.202894   -5.526321    2.601849
 H    1.035291   -4.322326    2.289855
 H    1.502395   -0.812725   -2.234798
 H    3.828291   -1.344479   -0.662459
 H    3.313879   -1.462338    1.035318
 H   -6.248783    4.754163   -1.068777
 H    6.837508    3.540994   -0.602185
 H    7.053082    1.471768    0.738961
 H   -0.486521    0.045985    3.192887
 H    4.687344    4.073273   -1.674847
 H    5.132714   -0.015075    1.014766
 H    1.636225   -0.651298    2.192045
 H    2.591169    3.312683   -2.507714
 H    0.379245    2.847316   -1.829959
 H   -0.995941    2.916928    0.074407
 H   -4.388221    1.506805    1.103387
 H   -3.167255    1.953646   -0.075364
 H   -3.517033    3.138361    2.728812
 H   -2.318459    3.726755    1.557949
 H   -4.107159    4.242106   -0.239800
 H   -5.269386    3.874222    1.043818
