107 
3s7f_ligand_xtb.xyz
 N   -9.442675   -1.087188   -1.884472
 C   -8.391853   -1.392788   -0.879863
 C   -7.434418   -0.177844   -0.982890
 O   -7.663881    0.636987   -1.870022
 C   -7.653274   -2.684663   -1.240519
 C   -8.430731   -3.983693   -0.952532
 C   -8.721381   -4.151599    0.536356
 C   -9.716890   -4.122482   -1.767417
 N   -6.455751   -0.111975   -0.097855
 C   -5.280105    0.734385   -0.193032
 C   -4.123296   -0.181503    0.280678
 O   -4.392020   -1.243189    0.812533
 C   -5.394690    1.984332    0.694766
 C   -6.431563    2.975779    0.158631
 C   -6.493505    4.252618    1.005264
 C   -7.525654    5.223162    0.439881
 N   -7.595920    6.479958    1.246475
 N   -2.882136    0.248024    0.054878
 C   -1.705387   -0.479047    0.483599
 C   -0.513993    0.480808    0.335935
 O   -0.684240    1.631116   -0.021507
 C   -1.517886   -1.779507   -0.321109
 O   -0.457660   -2.510943    0.255558
 N    0.672672   -0.052852    0.651633
 C    1.908533    0.702852    0.594906
 C    3.045405   -0.260257    0.271858
 O    3.035959   -1.420496    0.663245
 C    2.144686    1.431287    1.938675
 C    2.308908    0.466249    3.119936
 C    3.769265    0.298649    3.562789
 C    4.055309   -1.094415    4.110675
 N    4.305610   -2.012549    2.969533
 N    4.050418    0.247306   -0.458612
 C    5.117961   -0.560451   -1.025498
 C    6.175092   -0.921925    0.031562
 O    5.990453   -0.747116    1.226113
 C    5.709989    0.128613   -2.265216
 C    6.711241    1.244500   -1.943677
 C    7.301315    1.843235   -3.225293
 C    8.494083    2.756334   -2.958371
 N    9.750497    1.972046   -2.776811
 N    7.288605   -1.489272   -0.453379
 C    8.443845   -1.790174    0.355929
 C    9.651793   -0.960509   -0.054097
 O    9.601921   -0.078969   -0.892066
 O   10.718624   -1.313950    0.599327
 H  -10.356468   -0.859506   -1.486561
 H   -9.555263   -1.861940   -2.551134
 H   -9.022356   -0.213360   -2.354314
 H   -8.812950   -1.463881    0.124285
 H   -7.378164   -2.647425   -2.297747
 H   -6.724556   -2.723639   -0.668845
 H   -7.759802   -4.792935   -1.254877
 H   -9.110535   -5.148008    0.721565
 H   -7.816659   -4.031773    1.126827
 H   -9.468769   -3.443171    0.887795
 H   -9.548998   -3.923785   -2.826165
 H  -10.515945   -3.492593   -1.380538
 H  -10.071176   -5.147332   -1.696008
 H   -6.284950   -0.887501    0.548102
 H   -5.133530    1.030965   -1.236503
 H   -5.662964    1.672950    1.705859
 H   -4.417821    2.468080    0.737597
 H   -6.179249    3.234385   -0.870518
 H   -7.413640    2.503128    0.146905
 H   -5.507640    4.721126    1.012159
 H   -6.753104    3.987071    2.031744
 H   -7.268328    5.489273   -0.586652
 H   -8.515116    4.763441    0.438679
 H   -8.293735    7.129853    0.858562
 H   -7.856936    6.271869    2.220396
 H   -6.683353    6.955985    1.254804
 H   -2.666205    1.156843   -0.346081
 H   -1.809010   -0.762574    1.539255
 H   -2.454797   -2.343022   -0.267873
 H   -1.301188   -1.540898   -1.371988
 H   -0.485046   -3.418325   -0.066530
 H    0.730731   -1.054533    0.804493
 H    1.804333    1.458823   -0.192210
 H    1.275681    2.070520    2.093022
 H    3.016457    2.080202    1.854041
 H    1.728490    0.830880    3.966351
 H    1.884491   -0.499270    2.841829
 H    4.447939    0.476991    2.727054
 H    4.000144    1.038139    4.327741
 H    4.942420   -1.085073    4.744746
 H    3.213366   -1.462130    4.698413
 H    5.137346   -1.665694    2.444942
 H    3.538203   -1.957832    2.260708
 H    4.441120   -2.979933    3.270390
 H    4.029263    1.223045   -0.711736
 H    4.660218   -1.517329   -1.319254
 H    6.195474   -0.621043   -2.892475
 H    4.885710    0.534569   -2.854849
 H    6.220941    2.035346   -1.373811
 H    7.514904    0.844969   -1.325631
 H    7.602915    1.044238   -3.905296
 H    6.533283    2.421923   -3.738079
 H    8.324647    3.347998   -2.057831
 H    8.639572    3.438744   -3.796936
 H   10.529676    2.592164   -2.528376
 H    9.994975    1.490389   -3.650302
 H    9.653157    1.247206   -2.029525
 H    7.377632   -1.658800   -1.443422
 H    8.209342   -1.557142    1.399533
 H    8.714208   -2.848743    0.293849
 H   11.532339   -0.825626    0.383694
