107 
3s7f_ligand_ani.xyz
 N   -8.159008   -2.515460   -2.403733
 C   -7.901469   -1.874781   -1.064434
 C   -6.901672   -0.745201   -1.390680
 O   -6.383276   -0.713540   -2.497432
 C   -7.300071   -2.847514   -0.039282
 C   -8.249027   -3.880321    0.596607
 C   -9.475042   -3.221037    1.230072
 C   -8.668225   -5.020136   -0.337788
 N   -6.635616    0.177282   -0.416152
 C   -5.380968    0.903478   -0.467969
 C   -4.238867   -0.016595    0.005106
 O   -4.452388   -1.041110    0.640891
 C   -5.444606    2.177575    0.381783
 C   -6.471281    3.188950   -0.126014
 C   -6.502616    4.461395    0.717237
 C   -7.544680    5.456633    0.205650
 N   -7.592638    6.716003    1.025672
 N   -2.985326    0.392937   -0.317140
 C   -1.814076   -0.263899    0.209262
 C   -0.629390    0.702570    0.027376
 O   -0.790345    1.854084   -0.363119
 C   -1.581296   -1.629341   -0.451877
 O   -0.555967   -2.295006    0.281028
 N    0.578351    0.197083    0.348038
 C    1.782750    0.981290    0.211802
 C    2.924490   -0.005267   -0.042515
 O    2.898040   -1.145485    0.416497
 C    2.022886    1.868412    1.452329
 C    2.245212    1.077255    2.750494
 C    3.724308    0.931502    3.154419
 C    4.016692   -0.386683    3.880634
 N    4.254984   -1.476113    2.894028
 N    3.955611    0.436354   -0.805042
 C    4.976228   -0.459135   -1.318810
 C    5.884413   -0.988762   -0.193113
 O    5.938149   -0.513716    0.934608
 C    5.809319    0.254834   -2.396788
 C    6.733766    1.338077   -1.834764
 C    7.742349    1.862001   -2.861432
 C    8.945283    2.574696   -2.230582
 N    9.916529    1.594784   -1.635567
 N    6.676034   -2.037751   -0.552498
 C    7.697303   -2.512386    0.345862
 C    8.922927   -1.613055    0.403253
 O    9.113419   -0.621568   -0.262303
 O    9.807001   -2.066181    1.302950
 H   -9.114047   -2.315722   -2.749148
 H   -7.999825   -3.533314   -2.370366
 H   -7.441928   -2.051317   -3.017914
 H   -8.831387   -1.439647   -0.692438
 H   -6.446743   -3.363691   -0.503329
 H   -6.867718   -2.253755    0.772943
 H   -7.663477   -4.337631    1.406064
 H  -10.059602   -3.950983    1.802289
 H   -9.191541   -2.409742    1.911679
 H  -10.138341   -2.802599    0.463460
 H   -7.811502   -5.433520   -0.883472
 H   -9.427898   -4.708422   -1.062970
 H   -9.111706   -5.836905    0.244092
 H   -6.893539   -0.121949    0.517000
 H   -5.208878    1.175966   -1.515573
 H   -5.673479    1.901368    1.421041
 H   -4.449393    2.642813    0.399253
 H   -6.239870    3.448720   -1.169693
 H   -7.464500    2.723313   -0.138041
 H   -5.506348    4.927025    0.707871
 H   -6.720066    4.195157    1.761601
 H   -7.322612    5.729320   -0.825529
 H   -8.533502    4.999735    0.223956
 H   -8.312953    7.357208    0.670374
 H   -7.806216    6.469301    2.005989
 H   -6.669823    7.178736    0.982975
 H   -2.816162    1.316217   -0.699533
 H   -1.940885   -0.460693    1.281526
 H   -2.521241   -2.190474   -0.409441
 H   -1.295351   -1.489342   -1.503332
 H   -0.296718   -3.089908   -0.198765
 H    0.665829   -0.803678    0.503776
 H    1.653027    1.648932   -0.648540
 H    1.137633    2.506230    1.534084
 H    2.873048    2.534949    1.255864
 H    1.700469    1.554034    3.574721
 H    1.787435    0.084520    2.634562
 H    4.384634    0.980822    2.279165
 H    4.009199    1.772600    3.797506
 H    4.899086   -0.287890    4.518584
 H    3.174144   -0.663264    4.519918
 H    5.104971   -1.234364    2.355861
 H    3.488890   -1.516296    2.200352
 H    4.378908   -2.397697    3.336992
 H    3.931838    1.378131   -1.166878
 H    4.488354   -1.334887   -1.766455
 H    6.412948   -0.495644   -2.923514
 H    5.127764    0.668767   -3.149927
 H    6.141012    2.174644   -1.442200
 H    7.264709    0.926575   -0.970885
 H    8.122691    1.030350   -3.471788
 H    7.245547    2.548836   -3.556047
 H    8.618266    3.245577   -1.435888
 H    9.468961    3.169284   -2.979715
 H   10.672813    2.080322   -1.124477
 H   10.339026    1.020168   -2.389074
 H    9.425733    0.961040   -0.980046
 H    6.788856   -2.230478   -1.535759
 H    7.286961   -2.566760    1.358194
 H    8.014647   -3.518304    0.060866
 H   10.562509   -1.454754    1.294938
