46 
3s7l_ligand_ani.xyz
 C   -2.269491    4.985882   -0.489565
 N   -2.779789    2.556607   -0.683715
 O   -2.454602   -1.831239    1.927143
 C   -2.907502    3.865373   -1.304788
 N   -3.613319    2.200116    0.301726
 C   -1.842552    1.615363   -0.930506
 N   -2.293291   -2.763160   -0.166817
 C   -2.070901    0.570281   -0.055778
 N   -0.947054   -1.311274   -1.204448
 C   -3.198946    0.999744    0.679274
 N   -1.910904   -2.985102   -2.538746
 C   -1.224327   -0.679233    0.101347
 N    5.210013   -0.820982   -1.570114
 C   -2.047180   -1.798911    0.786102
 N    5.862028    1.114328   -0.343643
 C   -1.745869   -2.425305   -1.410857
 C   -3.120636   -3.927148    0.055933
 C    0.078663   -0.404703    0.867676
 C    0.043002   -0.139882    2.237011
 C    1.212116    0.194328    2.909558
 C    2.420186    0.277435    2.226826
 C    2.471426    0.007041    0.857513
 C    1.293909   -0.341819    0.197823
 C    3.751076    0.073449    0.109741
 C    4.067454   -0.847699   -0.888245
 C    6.047225    0.167423   -1.261183
 C    4.720036    1.051082    0.337741
 H   -2.393465    5.937618   -1.015085
 H   -2.749113    5.069299    0.489569
 H   -1.200273    4.808046   -0.342273
 H   -3.976476    4.049266   -1.445516
 H   -2.439618    3.794826   -2.291651
 H   -1.091385    1.759937   -1.698843
 H   -0.898279   -0.692836   -2.000069
 H   -3.707687    0.462885    1.469641
 H   -2.520979   -3.795297   -2.458217
 H   -3.359699   -3.957283    1.118899
 H   -2.582066   -4.838987   -0.222581
 H   -4.051993   -3.868570   -0.519938
 H   -0.895307   -0.219769    2.777267
 H    1.183212    0.396113    3.976728
 H    3.334018    0.526445    2.761260
 H    1.314728   -0.554385   -0.866228
 H    3.372586   -1.654111   -1.128249
 H    6.981177    0.205585   -1.818132
 H    4.557511    1.831196    1.082842
