41 
3s7m_ligand_xtb.xyz
 C   -4.883471   -1.669874    0.127034
 N   -3.581590   -1.162105   -0.220092
 O   -3.035536   -0.241817    1.801703
 S   -0.893125    3.719269    0.832093
 C   -2.777833   -0.500954    0.652488
 N   -1.825363   -0.599503   -1.450699
 C   -1.501954   -0.134551   -0.119403
 N   -3.406631   -1.911973   -2.510755
 C   -2.987875   -1.301736   -1.492299
 N    5.670218   -1.032801   -0.764449
 C   -0.269007   -0.841159    0.417172
 C   -0.360290   -1.948124    1.248579
 C    0.792472   -2.586081    1.676665
 C    2.034667   -2.135959    1.273402
 C    2.140995   -1.030072    0.432571
 C    0.979540   -0.393369    0.009509
 C    3.453763   -0.538413   -0.002303
 C    3.738186    0.824603   -0.069244
 C    4.993325    1.233451   -0.483644
 C    5.927260    0.262996   -0.815903
 C    4.472286   -1.418820   -0.372276
 C   -1.338005    1.363168   -0.060808
 C   -1.583918    2.245240   -1.143896
 C   -1.378400    3.542740   -0.808334
 C   -0.964354    2.022089    1.069890
 H   -4.907281   -2.758682    0.040663
 H   -5.646541   -1.237380   -0.523000
 H   -5.079464   -1.383123    1.159317
 H   -1.121781   -0.744569   -2.153528
 H   -4.307209   -2.361129   -2.406461
 H   -1.324261   -2.305524    1.576581
 H    0.717056   -3.440089    2.332929
 H    2.929465   -2.627243    1.625447
 H    1.048210    0.455828   -0.655628
 H    2.990596    1.549616    0.220975
 H    5.244370    2.281389   -0.540670
 H    6.925415    0.529307   -1.137093
 H    4.305057   -2.488348   -0.366827
 H   -1.898035    1.915033   -2.117328
 H   -1.484036    4.413043   -1.424397
 H   -0.738049    1.601713    2.028681
