24 
3s9i_ligand_ani.xyz
 O   -3.093678    1.709494   -0.509112
 C   -2.288292    0.545548   -0.559682
 C   -2.743089   -0.403822    0.544358
 O   -3.708738   -1.241925    0.132870
 O   -2.333837   -0.381881    1.679642
 C   -0.851639    0.964750   -0.329723
 C    0.094200   -0.213264   -0.492969
 C    1.553899   -0.058452   -0.201887
 C    2.373990   -1.179983   -0.348384
 C    3.733981   -1.091254   -0.078939
 C    4.287160    0.118642    0.337267
 C    3.475557    1.240790    0.479441
 C    2.114075    1.152526    0.209084
 O   -0.344874   -1.289380   -0.857371
 H   -3.993058    1.446271   -0.742802
 H   -2.375015    0.028072   -1.521465
 H   -3.951714   -1.772394    0.910129
 H   -0.755804    1.393143    0.675350
 H   -0.598946    1.760012   -1.041199
 H    1.925668   -2.113363   -0.676052
 H    4.365331   -1.968858   -0.193254
 H    5.351006    0.185087    0.549614
 H    3.900587    2.187308    0.802730
 H    1.481903    2.031378    0.317318
