37 
3s9t_ligand_ani.xyz
 N   -4.873194   -0.560502   -0.221955
 C   -3.541682   -0.664751   -0.193900
 N   -2.658167    0.284011   -0.465763
 C   -3.149757    1.494044   -0.766066
 C   -4.518006    1.716563   -0.828913
 C   -5.358217    0.638964   -0.544662
 S   -2.951831   -2.267551    0.240000
 C   -1.168616   -1.991826    0.249760
 C   -0.677412   -1.118027    1.401949
 O   -1.278191   -1.042495    2.449358
 C   -2.137872    2.573342   -1.015199
 C   -6.849778    0.782078   -0.582261
 C    0.570438   -0.332327    1.159933
 C    1.587912   -0.820007    0.345991
 C    2.737332   -0.065076    0.128814
 C    2.849680    1.202004    0.713238
 C    1.828303    1.687548    1.529342
 C    0.697423    0.918232    1.758946
 S    4.052479   -0.701013   -0.901138
 O    5.230959   -0.879223   -0.070999
 O    4.087857    0.085056   -2.122168
 N    3.507486   -2.228709   -1.310872
Cl    4.231392    2.210266    0.461198
 H   -4.922085    2.691971   -1.082622
 H   -0.864262   -1.548193   -0.704003
 H   -0.715152   -2.984661    0.329919
 H   -1.480136    2.658654   -0.142379
 H   -1.512470    2.311203   -1.873948
 H   -2.609912    3.541600   -1.201893
 H   -7.274518    0.087190   -1.312307
 H   -7.273235    0.535652    0.395648
 H   -7.149746    1.798557   -0.848827
 H    1.504239   -1.795748   -0.116012
 H    1.933731    2.669219    1.981174
 H   -0.103951    1.283356    2.394907
 H    4.157814   -2.927333   -0.966632
 H    3.389275   -2.293836   -2.316401
