43 
3sap_ligand_ani.xyz
 N    2.680096   -0.123956   -0.181608
 C    3.793247    0.592928   -0.351173
 C    5.057370    0.031605   -0.484406
 C    5.073584   -1.363812   -0.437858
 N    3.989779   -2.110118   -0.266602
 C    2.836032   -1.444620   -0.143151
 C    6.310137    0.852858   -0.606428
 C    6.978900    1.154449    0.743262
 C    8.314626    1.892401    0.619768
 C    8.194005    3.288499    0.011025
 S    1.430245   -2.470217    0.089077
 C    0.137760   -1.199742    0.132731
 C   -1.218111   -1.885594    0.228511
 O   -1.297948   -3.085475    0.381059
 C   -2.439297   -1.036802    0.123941
 C   -3.679287   -1.680504    0.091275
 C   -4.848165   -0.944078   -0.014762
 C   -4.769800    0.446774   -0.072420
 C   -3.543421    1.105604   -0.045144
 C   -2.378692    0.357225    0.055417
 S   -6.268124    1.399037   -0.176776
 O   -5.910873    2.712802   -0.676630
 O   -7.271472    0.561454   -0.805533
 N   -6.795840    1.637947    1.380363
 H    3.656132    1.673565   -0.387908
 H    6.008029   -1.916290   -0.548231
 H    6.066164    1.791927   -1.117680
 H    7.023893    0.319391   -1.246611
 H    7.137783    0.210353    1.279432
 H    6.289316    1.746531    1.359852
 H    9.008749    1.289482    0.017074
 H    8.766249    1.970754    1.616734
 H    7.828414    3.251217   -1.020776
 H    7.498603    3.909728    0.588116
 H    9.163175    3.798160   -0.003616
 H    0.190948   -0.581324   -0.767322
 H    0.290625   -0.539358    0.991441
 H   -3.705689   -2.763902    0.146323
 H   -5.815217   -1.435001   -0.069190
 H   -3.509022    2.188124   -0.116133
 H   -1.419988    0.867620    0.079928
 H   -6.188186    2.232954    1.931076
 H   -7.073149    0.784448    1.850906
