43 
3sap_ligand_xtb.xyz
 N    1.787014   -0.943511    0.087926
 C    1.759056    0.344833   -0.195130
 C    2.919961    1.099404   -0.319411
 C    4.106994    0.391526   -0.119154
 N    4.141413   -0.895409    0.161282
 C    2.975594   -1.517854    0.247207
 C    2.888462    2.567087   -0.597482
 C    2.773423    3.355148    0.714671
 C    2.795167    4.868529    0.502095
 C    1.559387    5.391879   -0.220538
 S    2.959293   -3.218690    0.574682
 C    1.142198   -3.389657    0.623983
 C    0.527176   -2.656765   -0.563619
 O    0.941143   -2.833623   -1.688421
 C   -0.716033   -1.863046   -0.312759
 C   -1.070580   -0.939696   -1.298646
 C   -2.180450   -0.131998   -1.140682
 C   -2.943995   -0.263444    0.002040
 C   -2.634426   -1.193247    0.973290
 C   -1.516576   -1.996344    0.819209
 S   -4.378265    0.772692    0.209229
 O   -4.732664    0.825756    1.597379
 O   -4.189473    1.993392   -0.518607
 N   -5.540895   -0.140198   -0.594596
 H    0.773717    0.775531   -0.328528
 H    5.071530    0.877374   -0.194614
 H    2.034407    2.795142   -1.236075
 H    3.802930    2.863371   -1.115281
 H    3.606711    3.074569    1.363930
 H    1.847771    3.073127    1.221912
 H    3.690416    5.141502   -0.061070
 H    2.861436    5.350007    1.480184
 H    1.510923    5.019131   -1.240376
 H    0.654756    5.088547    0.301872
 H    1.581987    6.478205   -0.261525
 H    0.804055   -3.002272    1.581354
 H    0.941153   -4.457935    0.546220
 H   -0.451219   -0.874257   -2.180718
 H   -2.459738    0.607241   -1.874421
 H   -3.265918   -1.262163    1.844678
 H   -1.290474   -2.730939    1.575917
 H   -6.266610   -0.456109    0.027527
 H   -5.921195    0.347396   -1.389111
