25 
3sb0_ligand_ani.xyz
 C    4.456209   -0.764485    0.836901
 C    3.297486    0.086559    0.391116
 C    3.428999    1.469520    0.288919
 C    2.371256    2.273543   -0.118628
 C    1.163439    1.673988   -0.420499
 F    0.155307    2.469125   -0.826585
 C    0.954300    0.295701   -0.342013
 C   -0.379909   -0.330553   -0.700978
 O   -0.444913   -1.257674   -1.478522
 C   -1.571359    0.248506   -0.056158
 C   -2.768928   -0.371585   -0.051297
 O   -2.987592   -1.585594   -0.539066
 C   -4.026621    0.225428    0.553922
 O   -4.019457    1.472668    1.021315
 O   -5.022397   -0.458005    0.599029
 C    2.053190   -0.470281    0.065537
Cl    1.879201   -2.190763    0.220534
 H    5.337853   -0.146585    1.027438
 H    4.214912   -1.307626    1.756453
 H    4.716289   -1.506118    0.074794
 H    4.383122    1.927745    0.533785
 H    2.462949    3.350553   -0.199305
 H   -1.436072    1.187817    0.466167
 H   -3.923306   -1.786261   -0.329228
 H   -3.173418    1.912109    0.857108
