31 
3sbi_ligand_ani.xyz
 N   -3.442532    0.859438   -0.588948
 C   -4.188298   -0.181356   -0.222483
 N   -5.475560   -0.157142    0.141558
 C   -6.049883    1.040328    0.155410
 C   -5.373042    2.206525   -0.188600
 C   -4.046098    2.047672   -0.558188
 S   -3.486148   -1.790790   -0.213971
 C   -1.769498   -1.413475   -0.579652
 C   -0.982854   -0.841400    0.596185
 O   -1.494250   -0.653667    1.679978
 C    0.456638   -0.529559    0.369627
 C    1.103597   -0.783329   -0.843656
 C    2.451155   -0.486772   -0.998454
 C    3.147262    0.065636    0.073092
 C    2.519637    0.326713    1.289242
 C    1.174498    0.026640    1.433491
 S    4.857436    0.491739   -0.112816
 O    4.997954    1.486836   -1.164113
 O    5.398328    0.716456    1.219212
 N    5.517505   -0.917482   -0.730219
 H   -7.096057    1.061633    0.455386
 H   -5.853209    3.178875   -0.171104
 H   -3.434659    2.899374   -0.847059
 H   -1.727795   -0.721658   -1.425828
 H   -1.315274   -2.359166   -0.891327
 H    0.561301   -1.220924   -1.676709
 H    2.954822   -0.686067   -1.939915
 H    3.095484    0.756489    2.102417
 H    0.659131    0.214330    2.369902
 H    6.103588   -0.682573   -1.525732
 H    6.041218   -1.411907   -0.014876
