32 
3sc1_ligand_ani.xyz
 C    3.734788   -1.967717   -0.774251
 C    4.657334   -1.070169   -0.247259
 C    2.378241   -1.679058   -0.703481
 C   -0.011821    1.038972   -0.667755
 C   -1.362525    1.296822   -0.711298
 C    4.206735    0.097616    0.357304
 C   -0.449379   -1.132970    0.282317
 C    0.456952   -0.190552   -0.156569
 C    1.920643   -0.488548   -0.128274
 C   -2.280526    0.353891   -0.246036
 C   -1.837273   -0.879638    0.263807
 C    2.848773    0.394226    0.447393
 C   -2.810870   -1.841547    0.740549
 C   -4.117354   -1.530215    0.687636
 C   -3.719025    0.682008   -0.304215
 C    2.447014    1.673978    1.144466
 N   -4.546012   -0.318823    0.186125
 O   -4.194011    1.720743   -0.732314
 O    2.491694    2.729978    0.188889
 H    4.070380   -2.891178   -1.238803
 H    5.722384   -1.281567   -0.299402
 H    1.650673   -2.368762   -1.125653
 H    0.701514    1.777196   -1.021821
 H   -1.746309    2.234297   -1.098308
 H    4.920792    0.805762    0.772838
 H   -0.091976   -2.084616    0.669104
 H   -2.486170   -2.797804    1.136975
 H   -4.906843   -2.193037    1.027136
 H    3.153290    1.876457    1.964120
 H    1.442650    1.574728    1.580471
 H   -5.533144   -0.100177    0.150596
 H    2.173134    3.532105    0.621258
