83 
3sdi_ligand_xtb.xyz
 C    5.927228    1.228568   -1.265327
 C    6.448312    2.328802   -0.644936
 C    7.832350    2.839950   -0.507056
 O    5.445342    3.025866   -0.082223
 N    4.271203    2.407954   -0.323231
 C    4.533268    1.334284   -1.030724
 C    3.485622    0.383339   -1.479459
 O    3.773327   -0.692157   -1.979784
 C    1.023816    0.105232   -1.563828
 C   -0.120329    0.932854   -0.965260
 N    2.238161    0.831231   -1.280096
 C    1.054375   -1.293046   -0.919298
 C    0.034999   -2.270415   -1.478366
 O   -0.796071   -1.978373   -2.325797
 N    0.148111   -3.499929   -0.959247
 C   -0.695898   -4.610246   -1.334385
 C   -1.746386   -4.986409   -0.269101
 C   -1.069543   -5.212629    1.084808
 C   -2.423103   -6.281056   -0.726325
 C   -2.791152   -3.878257   -0.147350
 O    0.109910    1.925056   -0.286690
 N   -1.341221    0.458922   -1.215137
 C   -2.504632    0.878508   -0.448407
 C   -2.303106    0.267366    0.952826
 O   -2.713608   -0.834881    1.256473
 C   -3.777832    0.373148   -1.112060
 C   -5.028499    0.826406   -0.348136
 C   -5.107645    2.323709   -0.259242
 C   -4.716172    2.990307    0.895075
 C   -5.540380    3.071118   -1.347617
 C   -4.757897    4.371853    0.961464
 C   -5.582698    4.452275   -1.284336
 C   -5.190928    5.106680   -0.128841
 C   -1.007120    0.542458    3.003458
 C    0.388196    0.032662    2.743193
 C    1.397278    0.922894    2.393607
 C    2.953423   -0.893814    2.092033
 C    0.676694   -1.324340    2.771326
 N   -1.587943    1.059238    1.775031
 C    2.659653    0.465147    2.070038
 C    4.311870   -1.385030    1.695790
 C    1.947135   -1.779797    2.456927
 H    6.429930    0.457578   -1.807790
 H    8.535855    2.105267   -0.886151
 H    7.946130    3.766970   -1.067745
 H    8.051293    3.051775    0.537826
 H    0.887340   -0.008803   -2.647401
 H    2.095553    1.697181   -0.765598
 H    0.917850   -1.205738    0.160730
 H    2.047236   -1.709996   -1.108249
 H    0.837046   -3.663762   -0.242793
 H   -0.055615   -5.474736   -1.537561
 H   -1.201925   -4.320256   -2.257655
 H   -0.672365   -4.279529    1.477573
 H   -0.259726   -5.935439    0.999442
 H   -1.792515   -5.594548    1.801414
 H   -1.702068   -7.093494   -0.791051
 H   -3.200100   -6.569011   -0.022726
 H   -2.879571   -6.148197   -1.704268
 H   -3.257637   -3.689117   -1.111281
 H   -3.566455   -4.167300    0.557949
 H   -2.350584   -2.950588    0.208307
 H   -1.419151   -0.401537   -1.760708
 H   -2.503565    1.971917   -0.381230
 H   -3.810498    0.743031   -2.138311
 H   -3.747940   -0.717884   -1.129841
 H   -5.003286    0.392768    0.652238
 H   -5.908513    0.439818   -0.866165
 H   -4.376612    2.419009    1.747745
 H   -5.850187    2.564222   -2.250678
 H   -4.451946    4.876567    1.866426
 H   -5.923085    5.020245   -2.138105
 H   -5.224539    6.184950   -0.078023
 H   -0.993432    1.348981    3.742226
 H   -1.653765   -0.264721    3.353783
 H    1.192257    1.982372    2.362807
 H   -0.099120   -2.028197    3.037394
 H   -1.105911    1.846431    1.355473
 H    3.423499    1.174150    1.788395
 H    4.379445   -1.456027    0.609168
 H    4.510921   -2.369227    2.113465
 H    5.083807   -0.695810    2.031383
 H    2.157167   -2.840434    2.489571
