83 
3sdi_ligand_dft.xyz
 C    5.753135    1.624602   -1.400609
 C    6.642346    1.516897   -0.380404
 C    7.966951    2.129232   -0.096006
 O    6.164658    0.655637    0.541287
 N    4.942453    0.181076    0.137584
 C    4.701251    0.757506   -1.015392
 C    3.432787    0.506237   -1.769203
 O    3.202732    1.078974   -2.818947
 C    1.227928   -0.510415   -1.561032
 C    0.449364    0.632137   -0.875732
 N    2.619746   -0.420979   -1.192931
 C    0.709044   -1.874388   -1.089292
 C   -0.587344   -2.339415   -1.730443
 O   -1.098038   -1.773219   -2.694918
 N   -1.105459   -3.449169   -1.159509
 C   -2.320260   -4.099229   -1.615798
 C   -3.592560   -3.716877   -0.832922
 C   -3.400485   -4.012888    0.659761
 C   -4.741799   -4.566987   -1.389135
 C   -3.903365   -2.228191   -1.021487
 O    1.013141    1.401096   -0.100829
 N   -0.877730    0.661797   -1.121943
 C   -1.787026    1.462946   -0.309644
 C   -1.900191    0.758563    1.058909
 O   -2.757568   -0.079001    1.308512
 C   -3.136164    1.610003   -1.000601
 C   -4.128246    2.464848   -0.194838
 C   -3.617340    3.860366    0.078866
 C   -3.014457    4.178202    1.298318
 C   -3.689826    4.849349   -0.905433
 C   -2.492985    5.448796    1.527019
 C   -3.173529    6.121257   -0.680490
 C   -2.571609    6.424614    0.538246
 C   -0.623415    0.276672    3.082348
 C    0.200670   -0.940458    2.708744
 C    1.566205   -0.819849    2.427866
 C    1.739999   -3.201313    1.989864
 C   -0.385348   -2.200545    2.613124
 N   -0.923466    1.118946    1.934784
 C    2.323892   -1.931370    2.078052
 C    2.563055   -4.394300    1.574924
 C    0.376445   -3.316697    2.263427
 H    5.809778    2.223401   -2.295310
 H    8.232271    2.827265   -0.892137
 H    7.946634    2.671594    0.854265
 H    8.743901    1.361245   -0.029244
 H    1.139439   -0.422978   -2.646634
 H    2.825153   -0.630182   -0.222512
 H    0.587328   -1.868196   -0.001652
 H    1.479153   -2.620975   -1.316168
 H   -0.669875   -3.783867   -0.311707
 H   -2.162429   -5.182994   -1.549640
 H   -2.442572   -3.842328   -2.671416
 H   -2.613689   -3.379349    1.083429
 H   -3.140373   -5.065935    0.830788
 H   -4.320596   -3.800383    1.214612
 H   -4.549080   -5.638655   -1.255477
 H   -5.679437   -4.329200   -0.875100
 H   -4.890209   -4.379742   -2.459247
 H   -3.986915   -1.975001   -2.084100
 H   -4.845915   -1.970063   -0.525486
 H   -3.128982   -1.602786   -0.568751
 H   -1.261190   -0.020086   -1.772210
 H   -1.330001    2.447988   -0.173729
 H   -2.964681    2.063335   -1.984067
 H   -3.572978    0.618202   -1.158598
 H   -4.348721    1.951124    0.746413
 H   -5.068397    2.516640   -0.755460
 H   -2.943321    3.417819    2.072529
 H   -4.158682    4.618454   -1.859625
 H   -2.024784    5.674944    2.480688
 H   -3.241112    6.877487   -1.457226
 H   -2.164970    7.415974    0.714674
 H   -0.086264    0.888329    3.813471
 H   -1.572108   -0.028891    3.527877
 H    2.045082    0.154974    2.475999
 H   -1.447031   -2.308999    2.816296
 H   -0.138320    1.609729    1.514303
 H    3.384675   -1.806586    1.868841
 H    2.798484   -4.353401    0.504232
 H    2.035219   -5.333532    1.765121
 H    3.515939   -4.425917    2.112565
 H   -0.101393   -4.293854    2.216623
