48 
3sgv_ligand_ani.xyz
 C   -3.328309    0.113231    0.233635
 N   -6.902183   -0.606324   -0.587562
 O   -7.878220    0.029544   -0.946394
 C   -3.294308    1.511910    0.060206
 N   -0.961660   -0.507305    0.204358
 O   -6.888955   -1.811038   -0.403918
 C   -4.462689    2.184305   -0.332647
 O   -2.266918    3.495332    0.956127
 C   -5.643623    1.507488   -0.568954
 O   -1.008567    2.193398   -0.303794
 C   -5.657177    0.134773   -0.363763
 O   -2.465317   -1.783305    1.357695
 C   -4.536436   -0.556888    0.048860
 O    3.457798   -1.433646   -1.343678
 C   -2.081834    2.383418    0.219037
 C   -2.205439   -0.800178    0.677000
 C    0.202358   -1.282835    0.334853
 C    0.341940   -2.296187    1.285608
 C    1.541612   -2.994912    1.358534
 C    2.603293   -2.712467    0.505234
 C    4.516865   -0.649873   -0.942941
 C    2.446743   -1.702045   -0.439375
 C    1.261546   -0.989797   -0.530655
 C    5.613273   -0.626574   -1.800583
 C    6.706128    0.164083   -1.485828
 C    6.736520    0.948629   -0.330118
 C    7.957181    1.790276   -0.043526
 C    5.625005    0.924006    0.523854
 C    5.586033    1.751803    1.784258
 C    4.523035    0.123804    0.212401
 H   -0.843866    0.374586   -0.287524
 H   -4.425323    3.259525   -0.483520
 H   -3.137111    3.462507    1.380239
 H   -6.546533    2.016609   -0.882859
 H   -4.580092   -1.622264    0.231657
 H   -0.485298   -2.529522    1.942189
 H    1.645372   -3.783174    2.099942
 H    3.537504   -3.263363    0.557133
 H    1.165811   -0.210383   -1.282039
 H    5.585688   -1.227496   -2.704600
 H    7.565543    0.181723   -2.154629
 H    8.845663    1.161234    0.089819
 H    8.169152    2.466866   -0.879732
 H    7.851519    2.402813    0.855151
 H    6.401599    1.488793    2.468542
 H    5.673904    2.823552    1.568416
 H    4.643393    1.599296    2.319145
 H    3.671094    0.116002    0.886269
