48 
3sgv_ligand_dft.xyz
 C   -2.842955   -0.055798    0.156852
 N   -6.465693    0.214707   -0.772394
 O   -7.282238    1.113197   -0.898860
 C   -2.533847    1.301109    0.361529
 N   -0.647436   -1.121743    0.000860
 O   -6.690552   -0.969674   -0.946996
 C   -3.524264    2.279404    0.193471
 O   -1.145203    2.622835    1.818262
 C   -4.810441    1.942197   -0.194819
 O   -0.160820    1.621724    0.114887
 C   -5.098844    0.598513   -0.377503
 O   -2.444025   -2.288145    0.815158
 C   -4.152802   -0.391982   -0.191180
 O    4.055589   -2.021583   -0.381128
 C   -1.171245    1.823960    0.742416
 C   -1.942022   -1.266634    0.373121
 C    0.405788   -2.053451    0.130270
 C    0.226062   -3.377213    0.531051
 C    1.346456   -4.201837    0.616341
 C    2.619466   -3.738816    0.320425
 C    4.341802   -0.675386   -0.486817
 C    2.779813   -2.411341   -0.077274
 C    1.681073   -1.567491   -0.179695
 C    4.796903   -0.188168   -1.700901
 C    5.139455    1.157962   -1.796250
 C    5.022649    2.022213   -0.709529
 C    5.386250    3.478600   -0.846510
 C    4.557894    1.513105    0.518012
 C    4.410821    2.415779    1.715908
 C    4.230134    0.164046    0.618063
 H   -0.369883   -0.208576   -0.343980
 H   -3.274464    3.325957    0.342993
 H   -2.004386    2.616876    2.263563
 H   -5.577144    2.691131   -0.347645
 H   -4.422062   -1.435243   -0.301243
 H   -0.760457   -3.744731    0.771671
 H    1.215634   -5.233949    0.927150
 H    3.492550   -4.378074    0.390278
 H    1.810224   -0.534166   -0.485026
 H    4.880466   -0.858026   -2.549934
 H    5.499651    1.545619   -2.745789
 H    5.719216    3.708254   -1.862523
 H    4.532858    4.128614   -0.618623
 H    6.193400    3.758758   -0.158796
 H    5.361333    2.896840    1.975326
 H    3.687429    3.216620    1.521460
 H    4.065206    1.859170    2.591054
 H    3.871467   -0.245275    1.558323
