53 
3sgx_ligand_ani.xyz
 O   -9.141700   -1.571330   -0.182103
 O   -5.793215    2.150097   -2.207011
 O    1.852007   -1.740693   -0.300018
 O   -9.103664    0.619064    0.079545
 O   -7.360265    2.441153   -0.689129
 C   10.848127    0.442536   -0.425441
 C   10.081083    1.264152    0.396121
 C   10.227518   -0.557737   -1.168894
 C   -1.535320    1.365947    2.238349
 C   -0.196702    1.301012    1.885756
 C   -2.473028    0.525924    1.646420
 C    8.703312    1.091834    0.464889
 C    8.851435   -0.737931   -1.085703
 C   -5.097432   -2.067526    0.312060
 C    4.364000    0.851330   -0.160684
 C    4.657724   -1.532427   -0.018262
 C    5.738637    1.012323   -0.235063
 C    6.031645   -1.368981   -0.094880
 C   -6.458053   -1.838595    0.233823
 C   -0.692749   -0.486829    0.335969
 C   -4.711488    0.174449   -0.478620
 N    1.604576    0.350613    0.606228
 O   -2.878469   -1.298314    0.093206
 C   -8.502181   -0.549289   -0.109911
 C   -6.497545    1.725694   -1.150575
 C    2.333322   -0.679435    0.059425
 C    0.231131    0.365371    0.934614
 C   -2.035408   -0.385882    0.688985
 C   -4.224129   -1.033097   -0.005635
 C    3.809897   -0.424573   -0.033874
 C    8.068624    0.087323   -0.272451
 C    6.596522   -0.093285   -0.196676
 C   -6.983124   -0.603075   -0.159718
 C   -6.090685    0.393296   -0.591954
 H   -5.206862    1.442254   -2.514563
 H   -8.481201    1.378604    0.023754
 H   11.924269    0.581211   -0.486108
 H   10.555363    2.048930    0.979723
 H   10.817399   -1.205908   -1.811728
 H   -1.857529    2.089329    2.982414
 H    0.520691    1.969587    2.354784
 H   -3.521108    0.583776    1.919824
 H    8.108071    1.731069    1.113715
 H    8.369916   -1.515623   -1.674900
 H   -4.696779   -3.024909    0.628349
 H    3.729398    1.731761   -0.232750
 H    4.216849   -2.522691    0.046705
 H    6.155571    2.011770   -0.335146
 H    6.681062   -2.240534   -0.057994
 H   -7.168645   -2.618084    0.486208
 H   -0.373949   -1.227310   -0.386945
 H   -4.012909    0.976208   -0.698017
 H    2.140028    1.101280    1.014743
