51 
3shj_ligand_xtb.xyz
 C   -3.076481    0.255592   -0.464425
 O   -1.969054    0.965638   -1.017213
 C   -0.928943    1.431800   -0.284503
 C    0.337670    0.952972   -0.615086
 C    1.467529    1.459212    0.020695
 C    2.741050    0.954177   -0.308103
 C    3.825799    0.573065   -0.674768
 C    5.150057    0.104660   -1.056033
 N    5.518952   -0.683667    0.107174
 C    4.850888   -1.992515    0.270560
 O    4.074922   -2.357082   -0.565474
 N    5.260456   -2.597241    1.380610
 O    6.278182   -0.264589    0.977218
 C    6.134306    1.229329   -1.318694
 C    1.341577    2.459599    0.995909
 C    0.086398    2.940023    1.310570
 C   -1.042360    2.448329    0.674879
 C   -3.672155    0.840171    0.813973
 C   -4.864071   -0.010986    1.254772
 C   -5.924359   -0.036424    0.155444
 C   -5.322641   -0.628629   -1.115841
 C   -4.856748   -2.061937   -0.837848
 C   -3.802285   -2.024159    0.264995
 C   -4.400128   -1.442459    1.541270
 C   -2.607709   -1.190445   -0.178041
 C   -4.136686    0.216492   -1.568139
 H    0.432749    0.188533   -1.370053
 H    5.052571   -0.579459   -1.908075
 H    4.922637   -3.517612    1.608268
 H    5.938023   -2.145189    1.979693
 H    5.779447    1.832576   -2.148980
 H    6.233798    1.862289   -0.439712
 H    7.110932    0.821411   -1.567675
 H    2.222406    2.851867    1.479523
 H   -0.018989    3.724316    2.044127
 H   -2.001177    2.894277    0.880063
 H   -2.923862    0.859798    1.610779
 H   -4.007363    1.862124    0.625007
 H   -5.284609    0.420161    2.168405
 H   -6.282707    0.976439   -0.038308
 H   -6.776694   -0.635036    0.478852
 H   -6.073110   -0.646416   -1.911698
 H   -4.441431   -2.500924   -1.746135
 H   -5.704282   -2.671913   -0.524293
 H   -3.453674   -3.045626    0.459670
 H   -3.658889   -1.440306    2.342981
 H   -5.247262   -2.045731    1.868309
 H   -1.839152   -1.163488    0.598851
 H   -2.164179   -1.600569   -1.086527
 H   -4.454725    1.237530   -1.786311
 H   -3.692964   -0.191637   -2.477010
