46 
3ska_ligand_ani.xyz
 C   -1.521574    2.171049    0.280810
 C   -2.350972    2.100664    1.379169
 C   -3.148581    3.192547    1.795371
 C   -3.098066    4.338974    1.065829
 N   -2.290261    4.421529   -0.029340
 C   -1.456015    3.411552   -0.498564
 C    3.378204   -0.744016   -0.630840
 C    3.099104   -1.111792    0.672653
 C    4.164668   -1.368184    1.553344
 N    5.444821   -1.294777    1.192234
 C    5.698442   -0.953636   -0.076032
 C    4.721957   -0.668108   -1.015244
 C   -2.346273   -2.355485   -0.266102
 C   -1.242608   -3.046419   -0.796579
 C   -0.073136   -2.377466   -1.103866
 C   -2.298388   -0.998767   -0.026627
 C   -1.109301   -0.305488   -0.306457
 C   -0.027290   -1.001195   -0.864974
 N    1.001983   -0.107891   -1.077577
 C    0.613735    1.122116   -0.610114
 C   -0.701254    1.063536   -0.166222
 C    1.591170    2.255986   -0.528342
 O    2.499642    2.432901   -1.298803
 C    2.285250   -0.446049   -1.646883
 C   -3.596088   -3.130899    0.027182
 O    1.406686    3.087862    0.513021
 F   -4.113612   -3.673411   -1.093423
 F   -3.354023   -4.155243    0.869643
 F   -4.556683   -2.373254    0.583516
 O   -0.755859    3.603701   -1.479432
 N    3.903816   -1.669941    2.875550
 H   -2.365885    1.179888    1.955445
 H   -3.785052    3.117696    2.670014
 H   -3.673458    5.228078    1.296680
 H   -2.246646    5.268200   -0.580116
 H    2.078632   -1.181173    1.033828
 H    6.751178   -0.903088   -0.351664
 H    4.996151   -0.388680   -2.028093
 H   -1.321049   -4.114178   -0.969911
 H    0.772448   -2.917611   -1.518743
 H   -3.178421   -0.490947    0.356790
 H    2.130060   -1.313371   -2.292699
 H    2.605295    0.381052   -2.280370
 H    0.619871    2.809884    1.008273
 H    3.021291   -2.120359    3.066622
 H    4.690271   -2.069886    3.366892
