49 
3ske_ligand_ani.xyz
 C   -0.120838    3.457372   -0.373037
 C   -1.474623    3.489561   -0.750390
 C   -2.149029    2.323044   -1.050228
 C    0.577774    2.272212   -0.278549
 C   -0.088320    1.068964   -0.569497
 C   -1.437769    1.120798   -0.967175
 N   -1.868538   -0.164011   -1.218231
 C   -0.834942   -1.035662   -0.961660
 C    0.283919   -0.318939   -0.592887
 C   -1.050779   -2.518956   -1.053077
 O   -1.809623   -3.055582   -1.821658
 O   -0.335203   -3.246370   -0.180211
 C   -3.231643   -0.542829   -1.518577
 C   -4.006289   -1.040755   -0.309921
 C    0.559272    4.755737   -0.060196
 C   -4.807444   -2.181990   -0.403292
 C   -5.497073   -2.602028    0.723299
 N   -5.445551   -1.984192    1.907057
 C   -4.680033   -0.896747    1.992506
 C   -3.943066   -0.387382    0.907507
 N    1.592214   -0.845496   -0.397085
 C    2.099666   -1.633685   -1.460499
 N    3.391541   -2.066651   -1.317635
 C    2.291532   -0.532687    0.809452
 O    1.742249    0.075002    1.701610
 O    1.431452   -1.902652   -2.435671
 C    4.571002   -0.850350    1.866161
 C    3.660773   -1.026636    0.855142
 C    4.188733   -1.791933   -0.218674
 C    5.484586   -2.176780   -0.008425
 S    6.061121   -1.601696    1.514361
 F    0.492730    5.610335   -1.100619
 F   -0.025667    5.378120    0.982835
 F    1.858280    4.599152    0.245936
 N   -4.589860   -0.292392    3.231243
 H   -1.986520    4.444370   -0.804991
 H   -3.194980    2.351283   -1.339928
 H    1.617845    2.283684    0.027595
 H    0.168103   -2.650058    0.395176
 H   -3.210955   -1.323307   -2.277552
 H   -3.718881    0.331418   -1.955365
 H   -4.876214   -2.737289   -1.333704
 H   -6.129321   -3.487747    0.677856
 H   -3.320150    0.492474    1.048211
 H    3.739196   -2.619595   -2.087174
 H    4.416767   -0.312817    2.793879
 H    6.128535   -2.758988   -0.653756
 H   -5.319211   -0.565902    3.874129
 H   -4.382350    0.695182    3.234578
