42 
3skh_ligand_ani.xyz
 C    1.459086    3.339370   -0.192911
 F    2.074410   -2.592174   -1.587175
 N   -1.011952    0.140142   -0.935212
 O   -0.175745   -3.146137    0.324548
Cl    2.564279    4.646918    0.137115
 C    0.173930    3.649889   -0.669489
 O   -1.618699   -2.693760   -1.288943
 C   -0.724708    2.637789   -0.950333
 C    1.865765    2.040844    0.016631
 C   -0.211195   -0.906528   -0.543644
 C    1.025646   -0.417611   -0.138571
 C    0.950038    1.006410   -0.249336
 C   -0.320787    1.316199   -0.744795
 C   -2.392280    0.066418   -1.359407
 C   -0.742067   -2.306909   -0.556833
 C    2.219791   -1.156437    0.285935
 C    2.917165   -0.826155    1.453441
 C    4.043781   -1.534681    1.851836
 C    4.511435   -2.592078    1.077929
 C    3.845312   -2.946261   -0.089435
 C    2.717850   -2.231423   -0.458054
 C   -3.409999   -0.017525   -0.231687
 C   -4.588039   -0.735265   -0.436824
 C   -5.569415   -0.800053    0.547194
 C   -5.378934   -0.143177    1.757822
 C   -4.205090    0.571963    1.974271
 C   -3.225405    0.633937    0.988072
 H    0.480840   -2.664475    0.852478
 H   -0.102027    4.688806   -0.817701
 H   -1.718285    2.882886   -1.315832
 H    2.871135    1.825778    0.367042
 H   -2.500188   -0.804527   -2.004666
 H   -2.579756    0.952719   -1.972429
 H    2.547056   -0.012962    2.073121
 H    4.556277   -1.256562    2.767713
 H    5.395036   -3.145372    1.381863
 H    4.177883   -3.768691   -0.713069
 H   -4.738583   -1.250962   -1.384065
 H   -6.482454   -1.362302    0.366733
 H   -6.141921   -0.187585    2.530888
 H   -4.047809    1.087755    2.918324
 H   -2.311708    1.193320    1.174003
