54 
3sl4_ligand_dft.xyz
 C   -3.548719    0.469650   -1.569105
 N   -3.979194   -0.747742   -0.905212
 C   -3.030362   -1.839414   -1.025869
 C   -1.641172   -1.324055   -0.743298
 C   -1.291278   -0.012915   -0.659288
 C   -2.308396    1.075250   -0.902712
 C   -4.872843   -0.787404    0.152546
 O   -5.151878   -1.828608    0.730583
 N   -5.484601    0.409043    0.471072
 C   -6.378721    0.438301    1.619190
 C   -7.115504    1.768975    1.678375
 S   -0.303517   -2.404727   -0.476370
 C    0.760894   -1.062900   -0.230335
 C    0.108584    0.154846   -0.344720
 C    0.838729    1.404888   -0.132603
 O    0.062403    2.496629   -0.210537
 C    0.715040    3.763160   -0.026455
 C    1.400317    4.225672   -1.299652
 O    2.036839    1.475730    0.107518
 N    2.100250   -1.212642    0.051477
 C    2.748689   -2.414505    0.157811
 C    4.239932   -2.343706    0.481061
 C    4.843206   -0.962612    0.532047
 C    4.886366   -0.247724    1.731078
 C    5.313015   -0.350055   -0.632538
 C    5.815794    0.946151   -0.599606
 C    5.854088    1.649005    0.601269
 C    5.388570    1.049162    1.767151
 O    2.176342   -3.480236    0.012982
 H   -4.378124    1.178492   -1.621941
 H   -3.303710    0.203267   -2.604813
 H   -3.087044   -2.269572   -2.035982
 H   -3.329579   -2.614897   -0.317917
 H   -2.569988    1.562030    0.046619
 H   -1.889689    1.858216   -1.540598
 H   -4.953678    1.254954    0.325990
 H   -5.828499    0.259407    2.553445
 H   -7.082316   -0.389059    1.507732
 H   -6.419020    2.607935    1.799849
 H   -7.694217    1.934321    0.764268
 H   -7.801076    1.785343    2.530668
 H    1.427601    3.679612    0.797165
 H   -0.092550    4.439721    0.260495
 H    2.218159    3.549687   -1.560240
 H    0.688542    4.263288   -2.129847
 H    1.813633    5.228959   -1.153719
 H    2.599577   -0.330102    0.168677
 H    4.737735   -2.966654   -0.269314
 H    4.364733   -2.862673    1.437926
 H    4.518009   -0.710962    2.643265
 H    5.279376   -0.894366   -1.573308
 H    6.177492    1.407909   -1.513456
 H    6.244569    2.661787    0.627749
 H    5.414141    1.591618    2.707382
