50 
3sl5_ligand_dft.xyz
 C   -1.314864    0.611900    0.809078
 C    0.119457    0.610167    0.637466
 C    0.660736   -0.653291    0.807532
 S   -0.546400   -1.844758    1.152195
 C   -1.792709   -0.632468    1.074136
 C   -3.246213   -0.977322    1.277657
 N   -4.068924    0.142621    0.850275
 C   -3.607510    1.437753    1.329848
 C   -2.245782    1.796908    0.729810
 N    2.001207   -0.954714    0.708647
 C    2.535002   -2.206650    0.850177
 C    4.056850   -2.286945    0.728483
 C    4.707059   -1.197621   -0.068626
 C    5.269521   -0.041631    0.394674
 C    5.733899    0.816212   -0.645707
 C    5.514993    0.296311   -1.884829
 S    4.738254   -1.240300   -1.802823
 O    1.857690   -3.187471    1.100569
 C    0.982261    1.744503    0.299927
 O    0.305983    2.877460    0.078764
 C    1.087590    4.027669   -0.274009
 C    0.122265    5.176403   -0.475390
 O    2.201797    1.689915    0.211131
 C   -4.824904    0.121269   -0.290750
 O   -5.020335   -1.133849   -0.742500
 C   -5.820865   -1.238345   -1.925293
 C   -5.894911   -2.706942   -2.286640
 O   -5.296467    1.109000   -0.820884
 H   -3.450366   -1.186296    2.337238
 H   -3.529170   -1.862992    0.708901
 H   -3.532996    1.376297    2.422228
 H   -4.357602    2.185096    1.073644
 H   -2.371234    2.109341   -0.313576
 H   -1.822422    2.653715    1.260635
 H    2.592898   -0.153482    0.481728
 H    4.277863   -3.280933    0.330443
 H    4.453779   -2.267146    1.750698
 H    5.343139    0.193036    1.451178
 H    6.206899    1.775279   -0.473386
 H    5.768336    0.726602   -2.843842
 H    1.655558    3.804694   -1.182028
 H    1.805181    4.229575    0.526844
 H   -0.593075    4.947143   -1.270326
 H   -0.434886    5.381918    0.443332
 H    0.673514    6.079476   -0.754569
 H   -5.361857   -0.645589   -2.722049
 H   -6.810650   -0.817190   -1.725566
 H   -4.896440   -3.110532   -2.478699
 H   -6.352765   -3.283865   -1.477817
 H   -6.499931   -2.836313   -3.189324
