70 
3sm2_ligand_xtb.xyz
 C    6.569953    0.902953    0.911140
 C    6.820764   -0.396528   -1.114519
 C    3.562950    0.697206    0.099357
 C    5.792078   -0.039100   -0.034714
 C    1.245218    1.406961   -0.069375
 C    0.497442    0.166531   -0.615277
 C    0.581404    2.730294   -0.467908
 C   -0.809997    2.858428    0.080015
 C   -1.909930    2.822362   -0.767469
 C   -1.023389    2.999047    1.446350
 C   -3.194319    2.919066   -0.261713
 C   -2.306970    3.084257    1.954838
 C   -3.396664    3.042124    1.101584
 C   -0.700512   -0.227351    0.273061
 C   -0.699579   -2.519676    1.263700
 C    0.785477   -2.909166    1.304813
 C   -3.591079   -1.047964   -0.517987
 C   -4.232183   -0.300667   -1.488766
 C   -5.344803    0.443268   -1.157221
 C   -5.821826    0.456875    0.158556
 C   -5.157071   -0.305122    1.127137
 C   -4.054096   -1.057932    0.785642
 C    1.164253   -3.650287    0.026312
 C    1.051685   -3.775996    2.532623
 C    8.121995    0.207251   -0.570867
 N    2.611529    1.405623   -0.549776
 N   -1.012241   -1.630970    0.172660
 N   -6.949610    1.158297    0.481568
 O    4.685270    0.609896   -0.651406
 O    3.449884    0.233399    1.208954
 O    0.118106    0.418158   -1.941193
 O   -2.463531   -3.422780   -0.795690
 O   -1.696989   -1.583670   -2.235684
 O    7.728230    1.305017    0.219450
 S   -2.163042   -2.030282   -0.944301
 H    6.837793    0.364975    1.831097
 H    5.995820    1.793003    1.168138
 H    6.524999    0.094674   -2.040494
 H    6.897676   -1.467291   -1.282778
 H    5.415146   -0.908328    0.513789
 H    1.313183    1.318713    1.019267
 H    1.211567   -0.673567   -0.582740
 H    0.551960    2.777067   -1.556345
 H    1.206828    3.543903   -0.093334
 H   -1.755679    2.707331   -1.829662
 H   -0.176530    3.044187    2.115882
 H   -4.038085    2.896632   -0.934934
 H   -2.458024    3.190110    3.019361
 H   -4.398762    3.113867    1.498615
 H   -1.576294    0.350289   -0.040049
 H   -0.484920    0.012188    1.317079
 H   -0.989682   -2.059171    2.218539
 H   -1.301025   -3.415845    1.100007
 H    1.384736   -1.995622    1.384573
 H   -3.841919   -0.313678   -2.493690
 H   -5.858828    1.020188   -1.911911
 H   -5.521203   -0.301877    2.143770
 H   -3.543113   -1.655959    1.523619
 H    2.235105   -3.838565   -0.004178
 H    0.639077   -4.601453   -0.025410
 H    0.883551   -3.067227   -0.847733
 H    2.100597   -4.057821    2.572912
 H    0.451334   -4.682454    2.493374
 H    0.807710   -3.238216    3.446047
 H    8.655778   -0.531615    0.046555
 H    8.790221    0.577847   -1.347595
 H    2.748435    1.571131   -1.535415
 H   -7.285043    1.848677   -0.167050
 H   -7.152122    1.315991    1.453095
 H   -0.481924   -0.299387   -2.226058
