42 
3sn7_ligand_ani.xyz
 C   -1.891822   -0.637986    2.330761
 F    0.583270   -3.791175   -0.813168
 N   -4.565669   -1.963216    0.023142
 O    4.195989   -0.895748    0.248288
 C   -2.730183   -0.793792    1.087819
 N   -1.849275    2.330639   -0.256624
 C   -3.738435   -1.756411    1.044740
 N   -0.167564    0.891780   -0.158639
 C   -4.424357   -1.169756   -1.038301
 N    2.589090    1.243942    0.096146
 C   -3.459203   -0.174687   -1.120205
 C   -2.561747   -0.010086   -0.068158
 C   -1.530182    1.056025   -0.178881
 C   -0.693151    3.041071   -0.206385
 C    0.387681    2.171122   -0.117199
 C    0.654111   -0.239871   -0.250551
 C    0.142930   -1.505274   -0.554160
 C    1.032872   -2.554979   -0.546251
 C    2.395439   -2.409761   -0.268120
 C    2.898091   -1.146674   -0.017031
 C    2.034672   -0.012747   -0.049205
 C    1.807282    2.284996    0.039708
 C    2.434286    3.640779    0.160556
 C    5.076866   -2.000925    0.297473
 C   -0.701630    4.534907   -0.254687
 H   -2.353848   -1.170342    3.165765
 H   -0.889075   -1.055508    2.186725
 H   -1.778449    0.415801    2.602355
 H   -3.884904   -2.401326    1.911964
 H   -5.116739   -1.334281   -1.861296
 H   -3.385131    0.462733   -1.997263
 H   -0.895379   -1.674250   -0.808199
 H    3.016687   -3.297664   -0.269723
 H    3.517881    3.533999    0.237507
 H    2.196873    4.264524   -0.707930
 H    2.066804    4.167072    1.048672
 H    4.781914   -2.714979    1.077013
 H    5.126611   -2.517592   -0.669544
 H    6.055853   -1.586283    0.537367
 H   -1.732681    4.896605   -0.241577
 H   -0.173224    4.965178    0.603511
 H   -0.217732    4.915154   -1.162859
