60 
3sn8_ligand_ani.xyz
 C    0.164832   -2.061736   -1.181588
 O    0.209577   -2.514888   -2.318999
 C    0.653709   -2.877328    0.004562
 C    2.128169   -3.287609   -0.161568
 C    3.096146   -2.138816    0.004324
 C    3.667173   -1.873182    1.252686
 C    4.535291   -0.799705    1.427803
 C    4.840647    0.030737    0.354285
 C    4.277042   -0.219852   -0.893442
 C    3.414859   -1.298781   -1.064946
 N   -0.294912   -0.802107   -0.925370
 C   -1.035318   -0.069682   -1.940524
 C   -0.979118    1.437210   -1.653430
 O   -1.940622    2.184753   -1.788012
 C   -2.477214   -0.580783   -2.140578
 C   -3.283747   -0.737316   -0.869860
 C   -3.978615    0.343308   -0.318310
 C   -3.353000   -1.976073   -0.227113
 C   -4.736791    0.178236    0.837353
 C   -4.108144   -2.142905    0.930096
 C   -4.808465   -1.065395    1.462161
 N    0.240828    1.895635   -1.278506
 C    0.401358    3.214275   -0.723286
 C    1.880198    3.545426   -0.659101
 O    2.743357    2.789259   -1.035228
 C   -0.277084    3.369539    0.669892
 C   -0.232023    2.110450    1.507776
 C   -1.415180    1.418071    1.780474
 C    0.976686    1.558941    1.936332
 C   -1.394554    0.180813    2.412506
 C    1.003997    0.323111    2.575668
 C   -0.178275   -0.376170    2.802750
 H    0.035441   -3.784310    0.034976
 H    0.499681   -2.345970    0.950193
 H    2.362321   -4.066665    0.573733
 H    2.238990   -3.738707   -1.153589
 H    3.427549   -2.511245    2.101551
 H    4.967647   -0.606856    2.407700
 H    5.512439    0.875054    0.494051
 H    4.502459    0.434824   -1.731036
 H    2.971657   -1.493200   -2.041455
 H   -0.462260   -0.539348    0.038928
 H   -0.495007   -0.244142   -2.880605
 H   -2.977781    0.107922   -2.829598
 H   -2.397522   -1.550994   -2.642693
 H   -3.910460    1.316754   -0.795120
 H   -2.816097   -2.823838   -0.647379
 H   -5.271553    1.025530    1.261092
 H   -4.152664   -3.113283    1.418882
 H   -5.401456   -1.188537    2.365472
 H    0.986064    1.233480   -1.102707
 H   -0.065590    3.943515   -1.396780
 H    2.147257    4.540311   -0.241913
 H    0.193647    4.212558    1.191358
 H   -1.322651    3.635078    0.495217
 H   -2.366738    1.846502    1.469159
 H    1.903774    2.095671    1.745887
 H   -2.325327   -0.358021    2.565632
 H    1.954385   -0.108004    2.876058
 H   -0.153577   -1.350467    3.288493
