82 
3sna_ligand_dft.xyz
 C   -5.696440    0.208106   -1.562115
 O   -6.687018    0.835968   -1.199897
 C   -5.741962   -0.756021   -2.727855
 N   -4.485419    0.319702   -0.953893
 C   -4.290993    1.204914    0.175301
 C   -3.043505    2.085568    0.053539
 O   -3.062939    3.244939    0.461468
 C   -4.191164    0.457402    1.527432
 C   -5.067222   -0.782940    1.637409
 O   -4.592100   -1.865057    1.959567
 N   -6.395876   -0.599801    1.420079
 N   -1.933804    1.487661   -0.428349
 C   -0.665459    2.177015   -0.527213
 C    0.305325    1.271883   -1.294973
 O   -0.062302    0.245763   -1.872621
 C   -0.167691    2.723523    0.846247
 O   -0.452851    4.085836    0.990183
 N    1.569994    1.728932   -1.356932
 C    2.635850    1.214477   -2.200767
 C    2.896640   -0.289564   -2.110386
 O    3.441187   -0.854275   -3.056656
 C    3.943526    1.975736   -1.867485
 C    4.342660    1.862364   -0.411867
 C    5.046576    0.746506    0.049694
 C    3.961908    2.842092    0.510215
 C    5.344362    0.610599    1.403308
 C    4.241544    2.700150    1.866345
 C    4.934774    1.580660    2.317519
 N    2.567853   -0.909918   -0.964609
 C    2.698094   -2.349613   -0.837239
 C    1.540608   -2.918898   -0.008059
 O    1.694747   -3.840083    0.781631
 C    4.068345   -2.779471   -0.318888
 O    5.109847   -2.286319   -1.134636
 C   -2.057394   -2.641542   -0.454322
 N    0.350531   -2.321143   -0.268343
 O   -2.250070   -1.432733   -1.188364
 C   -0.858944   -2.585621    0.494014
 C   -1.062244   -1.566197    1.621882
 C    1.296334   -0.762466    2.129191
 C    0.084337   -1.527218    2.631742
 O    1.201366    0.182233    1.342973
 N    2.495836   -1.145293    2.614062
 H   -6.532460   -1.489266   -2.548209
 H   -6.008359   -0.200052   -3.631053
 H   -4.794102   -1.275057   -2.891759
 H   -3.763359   -0.359908   -1.179279
 H   -5.142921    1.885671    0.180571
 H   -3.169489    0.114143    1.690618
 H   -4.438802    1.156583    2.333398
 H   -6.953812   -1.441496    1.389930
 H   -6.720796    0.170103    0.843306
 H   -1.952921    0.516652   -0.721031
 H   -0.793138    3.067125   -1.160577
 H   -0.625020    2.105068    1.629994
 H    0.911511    2.604992    0.965494
 H   -1.422013    4.150699    0.915784
 H    1.792202    2.536641   -0.794697
 H    2.391855    1.387826   -3.253903
 H    3.803038    3.028320   -2.140204
 H    4.721943    1.572673   -2.521197
 H    5.348661   -0.040684   -0.636217
 H    3.449740    3.740337    0.167267
 H    5.910784   -0.255155    1.737159
 H    3.926237    3.467995    2.565695
 H    5.166161    1.471608    3.373071
 H    2.233842   -0.356228   -0.174568
 H    2.587097   -2.754056   -1.852478
 H    4.091791   -3.874041   -0.257743
 H    4.219812   -2.387306    0.693733
 H    4.744526   -2.074700   -2.009427
 H   -1.936316   -3.477711   -1.152967
 H   -2.975215   -2.781753    0.121767
 H    0.382967   -1.457976   -0.803569
 H   -1.492596   -1.246113   -1.765063
 H   -0.736350   -3.583043    0.929237
 H   -1.173345   -0.565678    1.190764
 H   -2.000321   -1.809061    2.132779
 H   -0.249214   -1.006842    3.538467
 H    0.375026   -2.539842    2.932058
 H    2.615443   -2.025314    3.090594
 H    3.317979   -0.634965    2.312950
