82 
3sna_ligand_ani.xyz
 C   -5.305519    0.155371   -1.977141
 O   -6.224805    0.965059   -2.071553
 C   -5.094802   -0.982828   -2.947552
 N   -4.381556    0.225392   -0.981927
 C   -4.376276    1.294166   -0.007517
 C   -3.037197    2.023987    0.106907
 O   -3.011573    3.112380    0.685389
 C   -4.763087    0.823954    1.401999
 C   -6.118060    0.137149    1.572700
 O   -6.282497   -0.660079    2.480066
 N   -7.129649    0.520335    0.741511
 N   -1.931953    1.416063   -0.370773
 C   -0.606468    2.009499   -0.291617
 C    0.353089    1.153920   -1.144797
 O   -0.019524    0.183896   -1.805657
 C   -0.136249    2.213490    1.173113
 O   -0.483669    3.476363    1.658124
 N    1.647541    1.548173   -1.146900
 C    2.638637    1.038356   -2.084727
 C    3.049763   -0.421559   -1.868835
 O    3.769128   -0.971141   -2.709424
 C    3.901236    1.928334   -2.099995
 C    4.550104    2.110732   -0.744346
 C    5.335685    1.098684   -0.181072
 C    4.361334    3.288927   -0.017692
 C    5.902204    1.259567    1.079586
 C    4.931276    3.454054    1.243267
 C    5.699825    2.436138    1.795662
 N    2.609308   -1.060230   -0.770904
 C    2.775549   -2.494202   -0.629066
 C    1.561701   -3.077763    0.102584
 O    1.657702   -3.914274    0.990572
 C    4.105587   -2.871805    0.028161
 O    5.202606   -2.291958   -0.640549
 C   -1.989614   -2.873794   -0.777807
 N    0.379293   -2.577099   -0.343315
 O   -2.209797   -1.614754   -1.405242
 C   -0.896510   -2.845987    0.293018
 C   -1.220030   -1.865242    1.435227
 C    1.051946   -1.263937    2.481126
 C   -0.285865   -1.970845    2.642923
 O    1.213552   -0.301098    1.737576
 N    2.050446   -1.740002    3.271962
 H   -5.053031   -1.943190   -2.422387
 H   -5.914550   -0.991207   -3.666372
 H   -4.145177   -0.856788   -3.477806
 H   -3.721575   -0.540289   -0.887438
 H   -5.092330    2.048156   -0.349258
 H   -4.021052    0.117933    1.791746
 H   -4.738360    1.693231    2.070049
 H   -7.979427   -0.016369    0.841826
 H   -6.959094    0.910636   -0.182004
 H   -2.011554    0.571597   -0.926419
 H   -0.638755    3.019153   -0.733629
 H   -0.541810    1.398609    1.793618
 H    0.953035    2.143063    1.241387
 H   -1.442052    3.570010    1.495645
 H    1.908154    2.347738   -0.588479
 H    2.209147    1.038728   -3.093496
 H    3.628363    2.906263   -2.515310
 H    4.609365    1.472397   -2.799715
 H    5.508441    0.171392   -0.727523
 H    3.762976    4.093179   -0.445070
 H    6.505451    0.459434    1.500642
 H    4.768305    4.377227    1.793346
 H    6.143434    2.560162    2.780250
 H    2.173800   -0.544978   -0.008608
 H    2.779718   -2.898391   -1.654992
 H    4.180117   -3.967221    0.053052
 H    4.120379   -2.518304    1.065323
 H    4.931425   -2.085506   -1.553151
 H   -1.744350   -3.635660   -1.529054
 H   -2.943094   -3.163585   -0.316934
 H    0.423290   -1.769498   -0.957670
 H   -1.396961   -1.321965   -1.851154
 H   -0.822898   -3.853818    0.716334
 H   -1.234192   -0.832929    1.063196
 H   -2.239843   -2.091802    1.775290
 H   -0.769374   -1.515645    3.517703
 H   -0.106575   -3.022067    2.896052
 H    2.015372   -2.709297    3.552600
 H    2.972722   -1.374177    3.081757
