76 
3snc_ligand_xtb.xyz
 C    4.569888   -3.742544   -0.217965
 O    5.041959   -3.211458    0.766860
 C    5.379788   -4.571553   -1.195565
 N    3.269030   -3.644020   -0.553848
 C    2.270018   -2.953556    0.224836
 C    0.914708   -3.326631   -0.393278
 O    0.848020   -3.901937   -1.465393
 C    2.498147   -1.429206    0.180815
 C    1.835369   -0.661598    1.305049
 O    0.965249   -1.141588    2.032882
 N    2.256046    0.588754    1.452507
 N   -0.141201   -2.996682    0.361239
 C   -1.481592   -2.995989   -0.177278
 C   -1.782537   -1.582281   -0.687936
 O   -0.869115   -0.798668   -0.926295
 C   -2.495847   -3.531216    0.863921
 O   -3.266153   -2.552059    1.501149
 N   -3.070365   -1.280474   -0.881107
 C   -3.517234    0.033596   -1.301994
 C   -3.476796    0.980139   -0.083959
 O   -4.476616    1.413373    0.454885
 C   -4.955127   -0.086915   -1.846854
 O   -5.777392   -0.700177   -0.887359
 C   -4.995265   -0.918276   -3.123452
 N   -2.217119    1.264579    0.291887
 C   -1.904737    1.854685    1.577304
 C   -0.495602    2.450125    1.520206
 O    0.279411    2.415287    2.457704
 C   -2.058566    0.815828    2.716721
 O   -1.614816   -0.461458    2.352131
 C    0.776361    5.200361    0.108947
 N   -0.200575    2.993613    0.328901
 O   -0.162107    5.557105   -0.883896
 C    1.031235    3.687382    0.018056
 C    1.487069    3.245020   -1.376853
 C    3.994576    3.133361   -0.990122
 C    2.864209    3.766241   -1.781014
 O    3.880118    2.119782   -0.332745
 N    5.172011    3.784223   -1.086404
 H    4.980938   -5.582023   -1.243807
 H    5.330761   -4.129710   -2.188100
 H    6.414072   -4.607497   -0.866600
 H    2.893821   -4.087086   -1.385577
 H    2.316247   -3.284059    1.270228
 H    3.573500   -1.250539    0.236003
 H    2.127760   -1.026571   -0.765472
 H    1.803078    1.182739    2.137966
 H    2.938432    1.002284    0.831459
 H    0.045518   -2.399601    1.169652
 H   -1.458577   -3.661001   -1.050993
 H   -1.929899   -4.123847    1.595562
 H   -3.214984   -4.193835    0.373836
 H   -2.685907   -1.902950    1.939535
 H   -3.799469   -1.855499   -0.471930
 H   -2.834852    0.405458   -2.074075
 H   -5.315808    0.932154   -2.060882
 H   -5.788299   -0.122613   -0.108839
 H   -6.025846   -1.022759   -3.448929
 H   -4.589899   -1.908384   -2.935725
 H   -4.418227   -0.435623   -3.906927
 H   -1.478904    0.699898   -0.133454
 H   -2.617837    2.666908    1.767397
 H   -1.533735    1.191042    3.601729
 H   -3.122690    0.708995    2.943249
 H   -0.636340   -0.514348    2.370324
 H    0.388309    5.423414    1.111555
 H    1.716339    5.752330   -0.024355
 H   -0.929752    3.070867   -0.364480
 H   -0.405452    6.480806   -0.772303
 H    1.767052    3.407996    0.777080
 H    0.748854    3.597460   -2.098474
 H    1.504155    2.154168   -1.394990
 H    2.914465    4.850980   -1.686777
 H    3.036019    3.518642   -2.832103
 H    5.980175    3.391600   -0.631182
 H    5.295332    4.592821   -1.668708
