41 
3snd_ligand_xtb.xyz
 N    1.477940   -1.682994   -0.780555
 C    1.353471   -0.354639   -0.126944
 C    0.118607    0.221498   -0.853852
 O    0.000589   -0.033742   -2.039912
 C    2.584558    0.511061   -0.379137
 C    3.884899   -0.027077    0.238150
 C    5.036390    0.892750   -0.163461
 C    3.793489   -0.121643    1.759180
 C   -2.341650    2.709540   -0.011234
 N   -0.746832    0.905056   -0.118672
 O   -2.222493    2.580710    1.391414
 C   -2.036554    1.338138   -0.622652
 C   -3.126850    0.321319   -0.248400
 C   -2.055163   -1.901546    0.361088
 C   -2.793431   -1.113588   -0.698832
 O   -0.874874   -2.232694    0.277998
 N   -2.782919   -2.213732    1.436968
 H    1.324157   -1.487793   -1.791482
 H    2.367712   -2.151253   -0.602550
 H    0.641297   -2.230631   -0.450796
 H    1.162293   -0.489102    0.937699
 H    2.714026    0.626382   -1.457897
 H    2.391405    1.503359    0.032162
 H    4.101795   -1.024503   -0.164961
 H    4.879181    1.893424    0.230477
 H    5.976178    0.516019    0.229759
 H    5.122186    0.958259   -1.245159
 H    4.758220   -0.406399    2.169401
 H    3.066594   -0.863449    2.082523
 H    3.520677    0.841648    2.182973
 H   -1.624715    3.448855   -0.391649
 H   -3.352442    3.020029   -0.297632
 H   -0.602150    1.076018    0.866224
 H   -2.477915    3.409180    1.808974
 H   -1.955918    1.416553   -1.710477
 H   -3.275592    0.359820    0.832145
 H   -4.050560    0.640981   -0.730031
 H   -3.721599   -1.644317   -0.915331
 H   -2.199723   -1.085447   -1.612317
 H   -3.762156   -1.993485    1.497128
 H   -2.372654   -2.761537    2.177183
