41 
3snd_ligand_dft.xyz
 N    1.491903   -1.604086   -0.830638
 C    1.360109   -0.275818   -0.148816
 C    0.128817    0.314375   -0.847175
 O    0.028816    0.150619   -2.059850
 C    2.602640    0.589187   -0.344538
 C    3.919074    0.003414    0.194621
 C    5.052066    1.003761   -0.051340
 C    3.830097   -0.368070    1.677610
 C   -2.431637    2.667274    0.116625
 N   -0.774652    0.925029   -0.072595
 O   -2.346350    2.411736    1.507700
 C   -2.071063    1.360924   -0.580783
 C   -3.151910    0.286672   -0.359505
 C   -2.024044   -1.929348    0.316322
 C   -2.735004   -1.142997   -0.773801
 O   -0.847934   -2.309438    0.249090
 N   -2.759129   -2.214110    1.406003
 H    1.464493   -1.426742   -1.843727
 H    2.339142   -2.110701   -0.570966
 H    0.627974   -2.144728   -0.579981
 H    1.164667   -0.488745    0.903890
 H    2.700841    0.819375   -1.412838
 H    2.404566    1.542894    0.161127
 H    4.166165   -0.904900   -0.378521
 H    4.876475    1.931995    0.504423
 H    6.009780    0.591570    0.278885
 H    5.141257    1.255812   -1.112883
 H    4.797296   -0.724844    2.042889
 H    3.099636   -1.161575    1.878707
 H    3.550027    0.505079    2.279087
 H   -1.726547    3.451495   -0.189061
 H   -3.444088    2.973145   -0.179565
 H   -0.643480    0.995618    0.928464
 H   -2.545181    3.221349    1.991291
 H   -1.944371    1.539699   -1.651381
 H   -3.454919    0.308983    0.693138
 H   -4.028234    0.582297   -0.945635
 H   -3.634665   -1.707507   -1.044675
 H   -2.090502   -1.120426   -1.654862
 H   -3.738711   -1.984319    1.470691
 H   -2.349600   -2.772235    2.141274
