41 
3snl_ligand_dft.xyz
 C    1.097436   -1.618742    2.316393
 F    3.361063    1.408696   -0.966458
 N    3.744000   -3.028660    0.015708
Cl   -2.201542    4.032212    0.216498
 C    1.738751   -2.190677    1.081623
 F    2.900758    3.524291   -0.858938
 N   -1.331141   -3.121620   -0.266147
 C    3.096577   -2.514270    1.061096
 F    3.215837    2.390249    0.953621
 N   -1.039501   -0.929126   -0.121883
 C    3.032753   -3.260327   -1.087739
 N   -2.880900    1.170427    0.069369
 C    1.675210   -2.980344   -1.192654
 C    1.017775   -2.422168   -0.099100
 C   -0.434515   -2.154055   -0.181157
 C   -2.559755   -2.540895   -0.244503
 C   -2.416716   -1.167199   -0.147732
 C   -0.549487    0.387815   -0.116903
 C    0.803695    0.691726   -0.256192
 C    1.208614    2.013909   -0.213647
 C    0.284509    3.045501   -0.052395
 C   -1.058546    2.737676    0.049263
 C   -1.520635    1.405321    0.009778
 C   -3.308430   -0.049619   -0.029781
 C   -4.790658   -0.280249   -0.005333
 C    2.678503    2.335602   -0.277572
 C   -3.798708   -3.376802   -0.305976
 H    1.745981   -1.749702    3.186699
 H    0.905325   -0.544549    2.206162
 H    0.140069   -2.106330    2.526457
 H    3.695779   -2.350122    1.955646
 H    3.573102   -3.688847   -1.928404
 H    1.132087   -3.191613   -2.107485
 H    1.536526   -0.088141   -0.406414
 H    0.607536    4.079153   -0.023718
 H   -5.295191    0.678810    0.117515
 H   -5.127065   -0.747916   -0.936825
 H   -5.071283   -0.946675    0.816920
 H   -3.506323   -4.420251   -0.439193
 H   -4.388127   -3.301733    0.614084
 H   -4.446569   -3.089182   -1.140064
