41 
3snl_ligand_ani.xyz
 C    0.969680   -1.499371    2.375649
 F    3.361714    1.306693   -1.439143
 N    3.491830   -3.167276    0.120537
Cl   -1.779084    4.206061    0.359272
 C    1.536964   -2.178458    1.155292
 F    3.256574    3.266282   -0.510263
 N   -1.611064   -2.994246   -0.277388
 C    2.889323   -2.514469    1.111587
 F    3.489816    1.489899    0.707335
 N   -1.154834   -0.830024   -0.153572
 C    2.731091   -3.533703   -0.911218
 N   -2.772129    1.424263    0.045205
 C    1.377874   -3.235528   -1.000981
 C    0.778125   -2.490830    0.011183
 C   -0.648593   -2.106602   -0.149658
 C   -2.788288   -2.315400   -0.281683
 C   -2.543517   -0.950883   -0.180850
 C   -0.541323    0.428533   -0.200987
 C    0.825718    0.587417   -0.418031
 C    1.380670    1.848793   -0.290828
 C    0.578039    2.965666   -0.037163
 C   -0.787097    2.812281    0.081656
 C   -1.397552    1.542203   -0.020862
 C   -3.322064    0.245708   -0.054671
 C   -4.814288    0.158758   -0.016974
 C    2.868671    1.985975   -0.383956
 C   -4.094159   -3.034369   -0.389759
 H    1.692592   -1.534723    3.194087
 H    0.746563   -0.446174    2.177676
 H    0.042827   -1.980563    2.701329
 H    3.526742   -2.232470    1.950724
 H    3.227358   -4.086420   -1.705944
 H    0.788948   -3.550361   -1.858296
 H    1.450225   -0.248149   -0.700113
 H    1.014674    3.955959    0.050682
 H   -5.232458    1.165189    0.049507
 H   -5.204037   -0.334002   -0.914035
 H   -5.153065   -0.423161    0.847367
 H   -3.921914   -4.113053   -0.366042
 H   -4.762979   -2.772466    0.437802
 H   -4.616236   -2.791880   -1.323684
