75 
3spk_ligand_ani.xyz
 O    1.034512    1.530653    1.239541
 C    2.079340    0.729895    1.530734
 C    3.372087    0.885976    0.734960
 C    3.159498    1.668721   -0.549723
 C    1.760023    1.600369   -1.104715
 C    0.778077    2.155214   -0.058613
 O    1.986044   -0.022875    2.469487
 O    4.049761    2.308098   -1.067488
 C    0.937202    3.668441    0.191928
 C    1.276634    4.556336   -1.009078
 C    1.294973    6.034823   -0.629595
 C   -0.668249    1.755181   -0.393708
 C   -1.270454    2.332562   -1.678891
 C   -2.669414    1.815211   -1.935937
 C   -3.790711    2.516581   -1.482660
 C   -5.075913    2.017378   -1.674852
 C   -5.264961    0.803917   -2.327563
 C   -4.157246    0.091489   -2.780203
 C   -2.873620    0.591639   -2.581987
 C    4.053995   -0.500562    0.524094
 C    5.518784   -0.358301    0.095115
 C    6.460613    0.008725    1.241537
 C    3.255895   -1.393248   -0.415715
 C    3.400710   -1.344296   -1.804954
 C    2.576392   -2.112195   -2.622471
 C    1.615285   -2.961217   -2.084226
 C    1.509206   -3.054926   -0.699441
 N    0.639661   -3.996165   -0.083130
 C    2.318918   -2.273952    0.121072
 S   -1.003902   -4.003743   -0.326741
 O   -1.298253   -3.781121   -1.729244
 O   -1.490117   -5.163841    0.388850
 C   -1.532403   -2.520453    0.534685
 N   -0.993263   -2.300307    1.720733
 C   -1.442514   -1.241558    2.397127
 C   -2.424009   -0.389251    1.913480
 C   -2.969473   -0.633940    0.652637
 C   -2.509739   -1.729996   -0.058520
 C   -2.826313    0.787948    2.743235
 F   -3.977664    1.341548    2.339651
 F   -2.973290    0.439304    4.037306
 F   -1.883869    1.760672    2.718021
 H    4.044471    1.491437    1.358724
 H    1.699949    2.147656   -2.047829
 H    1.515644    0.548428   -1.302027
 H    0.014714    4.034032    0.668399
 H    1.729051    3.781500    0.941300
 H    2.259609    4.271431   -1.401404
 H    0.562029    4.395888   -1.825997
 H    0.318950    6.362692   -0.251983
 H    1.550956    6.665447   -1.487647
 H    2.036189    6.224938    0.155387
 H   -0.693977    0.659409   -0.444787
 H   -1.296073    2.032937    0.458589
 H   -1.302681    3.427111   -1.610490
 H   -0.629976    2.080430   -2.535418
 H   -3.665770    3.466917   -0.966435
 H   -5.932876    2.577547   -1.308999
 H   -6.266326    0.409811   -2.475444
 H   -4.295282   -0.866028   -3.278885
 H   -2.017444    0.006723   -2.916903
 H    4.028207   -0.988049    1.503939
 H    5.840347   -1.313876   -0.337978
 H    5.597695    0.389448   -0.700622
 H    7.496843    0.050549    0.891252
 H    6.407843   -0.736333    2.043947
 H    6.223019    0.986775    1.677241
 H    4.145370   -0.695818   -2.264360
 H    2.683446   -2.052349   -3.702351
 H    0.956425   -3.548737   -2.714050
 H    0.853582   -4.194380    0.890549
 H    2.185011   -2.327266    1.198869
 H   -0.997157   -1.060104    3.369966
 H   -3.730539    0.018273    0.231145
 H   -2.881450   -1.991340   -1.041546
