42 
3sqq_ligand_ani.xyz
 N   -1.279806   -3.053956   -0.383338
 N    0.921925   -2.373162   -0.156209
 N   -3.584947   -3.397513   -0.576369
 N    5.275232    2.503258    0.592533
 C   -2.688424   -1.194783   -0.054806
 C   -2.554507   -2.562283   -0.329594
 C   -0.410356   -2.102543   -0.152048
 C    2.034083   -1.512682   -0.098038
 C   -3.974810   -0.529128    0.047609
 C   -4.096904    0.960315   -0.088326
 C   -5.117097    1.660117    0.587739
 C   -5.204811    3.039184    0.395507
 C   -4.335259    3.720997   -0.449399
 C   -3.346074    3.021234   -1.127048
 C   -3.233369    1.648936   -0.944019
 C    2.075174   -0.271476   -0.741496
 C    3.224477    0.504249   -0.665264
 C    4.327797    0.043899    0.045857
 C    4.301472   -1.192571    0.682658
 C    3.157765   -1.970566    0.598352
 C   -6.104644    0.998432    1.514101
 O   -4.989555   -1.204483    0.237666
 O    6.662935    0.440766    1.132910
 O    6.308723    1.189968   -1.265649
 S   -1.074974   -0.524947    0.212915
 S    5.817440    1.001771    0.090268
 H    1.114629   -3.366077   -0.183287
 H   -3.370105   -4.381990   -0.581453
 H   -4.501523   -3.072249   -0.298741
 H    5.540744    2.674626    1.557179
 H    5.651101    3.212737   -0.029475
 H   -5.980823    3.589498    0.924008
 H   -4.433755    4.796342   -0.577477
 H   -2.662144    3.538346   -1.793208
 H   -2.460659    1.099027   -1.476184
 H    1.221864    0.083231   -1.309776
 H    3.260858    1.469462   -1.162903
 H    5.176514   -1.531281    1.227780
 H    3.122260   -2.942949    1.081384
 H   -6.731322    0.282363    0.977687
 H   -5.592875    0.440521    2.303159
 H   -6.744942    1.750818    1.983950
