18 
3srg_ligand_ani.xyz
 O   -3.301459   -0.761948   -0.002538
 N   -1.046989   -1.044403    0.000318
 C    0.258800   -0.586508    0.000558
 C    1.337480   -1.480153    0.001432
 C    2.631019   -0.994270    0.000659
 C    2.874044    0.389093   -0.001406
 C    1.815152    1.270232   -0.002164
 C    0.489558    0.799961   -0.000129
 C   -0.666129    1.668991    0.001972
 C   -1.922826    1.189043    0.001697
 C   -2.191627   -0.255738   -0.000532
 H   -1.223552   -2.041189    0.000412
 H    1.148945   -2.552323    0.003015
 H    3.466225   -1.689440    0.001803
 H    3.896453    0.758985   -0.002407
 H    1.988532    2.344576   -0.004290
 H   -0.495915    2.745392    0.004139
 H   -2.792920    1.836493    0.002884
