95 
3su2_ligand_xtb.xyz
 C   -3.192420    0.826633   -2.872942
 F    5.596669   -3.379579   -2.231375
 N    1.909599    3.089692   -0.179839
 O    3.834672    2.706944   -1.188662
 S   -6.549115   -1.467098    0.253743
 C   -3.360823    0.044093   -1.602388
 N   -2.154940   -0.526283   -1.062537
 O    3.094394    1.257922    0.412164
 C   -3.451865    1.575234   -1.606464
 N   -4.931211   -1.202458   -0.220481
 O    0.021725    1.154409   -1.135221
 C   -4.693716   -0.638995   -1.424153
 N    4.480513   -1.445840    1.472251
 O   -7.238369   -0.215997    0.220557
 C   -4.749517    2.249960   -1.369641
 N    0.185564    0.277712    0.918973
 O    3.456699   -0.546885    3.305228
 C    5.938478    1.921393   -0.219025
 O   -6.447265   -2.142994    1.510818
 C    5.749891    2.853407   -2.542238
 O   -2.649340   -0.837316    1.145401
 C    4.753616    0.609142   -2.019589
 O    2.256483   -1.618233    1.727862
 C    5.069483    1.999445   -1.472569
 O   -5.522440   -0.641325   -2.309460
 C   -5.244897    2.542216   -0.174874
 C   -1.855566   -0.788063    0.216823
 C    5.755668   -1.052035    1.779230
 C   -4.617014    2.225553    1.144678
 C    8.507562   -1.915737   -0.584635
 C   -0.354096   -1.007715    0.467631
 C    7.980196   -1.369247    0.544256
 C    7.703571   -2.601064   -1.531005
 C   -4.056249    3.481887    1.827982
 C   -2.833073    4.058406    1.110149
 C    2.974672    2.247915   -0.278568
 C    6.366310   -2.730055   -1.328849
 C   -1.581041    3.209864    1.332273
 C   -7.167670   -2.584947   -0.990392
 C    6.589756   -1.488762    0.775097
 C   -0.414078    3.628303    0.436551
 C    5.755411   -2.183465   -0.178688
 C   -0.093704   -1.967993    1.627829
 C    0.755534    2.653535    0.581743
 C   -7.912315   -3.769279   -0.468628
 C    1.036335   -1.301909    2.402618
 C    4.462237   -2.131196    0.289020
 C   -6.516418   -3.926979   -0.974839
 C    0.311531    1.288329    0.046070
 C    0.716552    0.185952    2.261360
 C    3.377403   -1.137842    2.265263
 H   -4.001547    0.749240   -3.583952
 H   -2.204672    0.872652   -3.307667
 H    1.770801    3.748119   -0.929973
 H   -1.347961   -0.339406   -1.652447
 H   -2.590492    2.052539   -1.153525
 H   -4.230782   -1.104226    0.523969
 H   -5.315008    2.491512   -2.258822
 H    6.151293    2.922253    0.150534
 H    6.873948    1.421118   -0.453105
 H    5.429633    1.360052    0.559180
 H    5.111264    2.934344   -3.417654
 H    5.939014    3.852475   -2.158837
 H    6.692377    2.398033   -2.830347
 H    4.131623    0.689619   -2.908551
 H    4.224463    0.023457   -1.273418
 H    5.675845    0.095768   -2.276352
 H   -6.194602    3.054622   -0.116487
 H    5.952892   -0.499740    2.674873
 H   -5.390562    1.794056    1.783875
 H   -3.833361    1.477596    1.031452
 H    9.565443   -1.836996   -0.784411
 H    0.154964   -1.311056   -0.453219
 H    8.596844   -0.848786    1.260214
 H    8.155862   -3.022198   -2.414895
 H   -3.787221    3.240516    2.858299
 H   -4.840386    4.241078    1.856749
 H   -2.643895    5.070958    1.473646
 H   -3.052839    4.126870    0.042715
 H   -1.277434    3.284059    2.379172
 H   -1.818995    2.162870    1.136778
 H   -7.432111   -2.076773   -1.900524
 H   -0.732454    3.634668   -0.609016
 H   -0.079898    4.633546    0.699472
 H   -0.986609   -2.026116    2.252177
 H    0.181783   -2.962205    1.285836
 H    1.050658    2.590044    1.632081
 H   -8.061354   -3.808102    0.599320
 H   -8.733518   -4.152329   -1.055403
 H    1.113883   -1.613578    3.448299
 H    3.554332   -2.519603   -0.122075
 H   -5.735822   -4.070411   -0.243118
 H   -6.347331   -4.425576   -1.917259
 H   -0.030760    0.483234    3.004270
 H    1.620897    0.783706    2.368037
