108 
3su6_ligand_xtb.xyz
 C    2.467552   -0.231542   -0.772279
 N    0.333166    0.983541   -0.826261
 O    3.191738   -0.484117   -1.722860
 C    0.934467   -0.352814   -0.843122
 C    0.473723   -0.993726   -2.156407
 C   -0.528669   -0.009581   -2.759843
 C    0.102086    1.603539    0.335868
 O    0.528739    1.137981    1.393930
 C   -0.739514    2.881243    0.363826
 N   -1.732887    2.691485    1.406883
 C   -2.645290    1.702832    1.199229
 O   -3.231186    1.337179    2.353270
 C    0.109712    4.151822    0.592948
 O   -2.919555    1.252215    0.111813
 C   -2.850773    0.427705   -2.713557
 O   -2.693134    1.450109   -3.345408
 N   -4.044167   -0.051566   -2.345531
 C    6.221359    1.972524   -0.279960
 C    6.664984    3.432976   -0.279156
 C   -0.793299    5.374236    0.415985
 N    2.900428    0.181034    0.424839
 C    4.252977    0.542666    0.736990
 C    5.243761   -0.593526    0.861334
 C    4.787767    1.848430    0.175929
 C    4.449418    1.733035    1.630003
 C   -5.231921    0.776512   -2.459920
 C   -6.276098   -0.031099   -1.761956
 C   -5.726319   -1.202840   -1.246629
 C   -4.257636   -1.250616   -1.557957
 C   -7.616116    0.259413   -1.610784
 C   -8.415547   -0.657338   -0.944465
 C   -7.874944   -1.828937   -0.448786
 C   -6.518797   -2.126560   -0.579468
 C   -5.979828   -3.415824   -0.022138
 N    5.236170   -1.454881   -0.177578
 O    6.021711   -0.686705    1.785082
 S    6.143293   -2.898928   -0.121331
 C    7.794543   -2.327159    0.240912
 O    6.081082   -3.410692   -1.455470
 O    5.633947   -3.707851    0.938917
 C    8.859614   -2.839840   -0.670775
 C    8.372001   -1.435084   -0.806550
 C   -6.181516   -3.540378    1.496089
 C   -5.609781   -2.362150    2.287313
 C   -4.085426   -2.318352    2.215439
 C   -3.406476   -1.072564    2.812569
 C   -4.092125    0.204830    2.279145
 C   -3.472130   -1.080884    4.340649
 C   -1.937700   -1.098493    2.369881
 C    0.726802    4.163900    1.994846
 C    1.224961    4.181067   -0.456084
 C   -0.091670    1.331331   -2.161432
 O   -1.830787   -0.395657   -2.339698
 H    0.591561   -0.896302    0.043843
 H    0.009378   -1.963286   -1.995715
 H    1.335633   -1.110788   -2.814766
 H   -0.505540    0.021693   -3.854542
 H   -1.299438    2.991375   -0.567018
 H   -1.407374    2.787282    2.357647
 H    6.315615    1.560091   -1.287736
 H    6.864252    1.393364    0.384029
 H    6.581728    3.852009    0.720611
 H    6.044511    4.021398   -0.951481
 H    7.698579    3.516171   -0.604523
 H   -0.241191    6.283325    0.641530
 H   -1.158935    5.437734   -0.606160
 H   -1.649423    5.311981    1.082761
 H    2.184405    0.394288    1.123754
 H    4.087342    2.397009   -0.445403
 H    3.567031    2.227892    2.006467
 H    5.262811    1.664982    2.336103
 H   -5.062062    1.747651   -1.979914
 H   -5.473335    0.959400   -3.513303
 H   -3.633751   -1.217158   -0.657953
 H   -3.978957   -2.139416   -2.137290
 H   -8.031130    1.172701   -2.008623
 H   -9.469572   -0.459345   -0.818991
 H   -8.519678   -2.537520    0.049628
 H   -6.502490   -4.248947   -0.500962
 H   -4.922679   -3.511802   -0.265771
 H    4.623894   -1.272383   -0.976207
 H    7.948469   -2.163390    1.292651
 H    8.544781   -3.549863   -1.419812
 H    9.840134   -3.021175   -0.257224
 H    9.008007   -0.620984   -0.492643
 H    7.735471   -1.207877   -1.648289
 H   -5.716479   -4.468793    1.834754
 H   -7.249860   -3.610971    1.707485
 H   -5.926325   -2.454743    3.327840
 H   -6.036834   -1.442243    1.887391
 H   -3.685389   -3.200252    2.721852
 H   -3.787977   -2.382550    1.168797
 H   -4.969637    0.450059    2.881073
 H   -4.390530    0.073828    1.234464
 H   -2.929017   -1.934326    4.739647
 H   -3.025696   -0.171581    4.735813
 H   -4.502418   -1.134563    4.683433
 H   -1.485732   -2.051193    2.636780
 H   -1.365703   -0.306521    2.847323
 H   -1.860308   -0.971962    1.290832
 H    1.150168    3.192865    2.238957
 H    1.518182    4.908300    2.043221
 H   -0.015957    4.420023    2.746821
 H    0.812511    4.135570   -1.461197
 H    1.797435    5.101092   -0.363326
 H    1.903222    3.341308   -0.320064
 H   -0.906789    2.048420   -2.182307
 H    0.758066    1.721455   -2.732174
