104 
3sud_ligand_xtb.xyz
 C    0.039010   -2.660678    0.571079
 N   -1.207217   -3.553422    2.445877
 O    0.696780   -3.646817    0.243201
 C   -0.397746   -2.431917    2.018871
 C    0.812910   -2.246820    2.972093
 C   -2.449664   -3.842143    1.999679
 N   -1.520402    2.312600   -0.440318
 C   -2.740265    5.585254    0.671429
 C   -0.400379    4.020432    0.762423
 C   -4.439129   -4.323492   -0.199100
 C   -4.446450   -2.946338   -0.796245
 C   -4.234516   -3.122674    0.676004
 C    5.052775    3.776150    0.361649
 C    5.611665    2.824110   -0.321829
 O    2.585228    3.072111   -0.976605
 S    2.961998    1.999166   -0.106928
 C    3.662855   -1.690160   -1.439145
 O    1.513228   -0.511834   -2.834224
 C    1.319102   -1.462706   -2.093966
 C    1.572435   -3.561196    3.183686
 C    6.013509   -2.672207   -0.761219
 C   -2.738650    4.310602    0.070765
 C   -5.735835   -2.388364   -1.351118
 N    3.279138    0.666104   -1.132154
 C    4.716578   -2.755827   -1.529996
 C   -5.555072    0.017422   -0.501174
 C   -1.608841    6.053744    1.273096
 O   -2.521752    0.695009   -1.691809
 C    1.868930    5.189670    1.900145
 O    0.638909    5.878386    1.911723
 C   -5.664849   -0.904943   -1.715435
 C   -5.961743    1.453531   -0.832425
 C   -2.582568    1.894162   -1.072080
 C   -3.784778    2.663598   -1.132327
 C   -1.554455    3.534563    0.132234
 N   -3.834077    3.836590   -0.559884
 C   -5.021228    2.169180   -1.815326
 C   -0.422962    5.280269    1.312527
 O    2.009182    1.577952    0.878807
 C    4.553122    2.397204    0.632662
 O    4.451604   -0.409680    0.452184
 C    4.466192   -1.856832   -2.705943
 C    3.853028   -0.439934   -0.599450
 N    2.291306   -2.120919   -1.446158
 C    7.085150   -3.536358   -1.418838
 O   -3.052719   -4.835637    2.316497
 O   -2.945439   -2.869134    1.186583
 C   -1.151250   -1.160345   -2.476261
 C   -0.087303   -1.989531   -1.770257
 N   -0.348889   -1.766006   -0.349025
 C   -1.067755   -0.524928   -0.142244
 C   -1.268369    0.052050   -1.556621
 C    1.769760   -1.217517    2.368566
 C    0.286054   -1.733006    4.314239
 H   -0.724682   -4.329840    2.871565
 H   -1.019796   -1.536606    2.074634
 H   -3.642929    6.174147    0.630457
 H    0.467320    3.382484    0.762966
 H   -3.588647   -4.963413   -0.373931
 H   -5.373670   -4.853461   -0.107461
 H   -3.564811   -2.668995   -1.359990
 H   -5.020044   -2.846995    1.370804
 H    4.924215    4.797148    0.618008
 H    6.292575    2.470814   -1.054431
 H    2.550475   -3.348029    3.608125
 H    1.052110   -4.221183    3.875156
 H    1.715556   -4.075219    2.236945
 H    6.349453   -1.636387   -0.716723
 H    5.844939   -3.006389    0.263919
 H   -6.540174   -2.551684   -0.630562
 H   -5.984627   -2.954120   -2.254481
 H    2.717953    0.561890   -1.981804
 H    4.330011   -3.766311   -1.612314
 H   -6.221699   -0.349404    0.283463
 H   -4.538691   -0.004529   -0.108094
 H   -1.580815    7.031385    1.728765
 H    2.586635    5.868649    2.359378
 H    2.177003    4.945417    0.878318
 H    1.814913    4.263212    2.480444
 H   -6.573538   -0.650047   -2.266732
 H   -4.814509   -0.741283   -2.378924
 H   -6.965035    1.437091   -1.264755
 H   -6.007710    2.042841    0.085796
 H   -4.749956    1.503187   -2.632588
 H   -5.542200    3.040131   -2.215385
 H    4.739320    1.835287    1.534124
 H    5.196679   -1.095059   -2.932117
 H    3.952922   -2.247181   -3.570973
 H    2.016566   -2.892938   -0.835947
 H    8.020520   -3.463165   -0.870441
 H    7.257586   -3.213479   -2.442946
 H    6.777899   -4.579368   -1.436206
 H   -2.102938   -1.687944   -2.522605
 H   -0.839502   -0.880472   -3.479920
 H   -0.138810   -3.062138   -1.984071
 H   -2.046767   -0.722690    0.307328
 H   -0.502290    0.172509    0.480045
 H   -0.475398    0.776591   -1.774574
 H    2.554915   -0.978243    3.081290
 H    2.249362   -1.610129    1.475819
 H    1.267362   -0.290270    2.106879
 H   -0.126803   -0.732836    4.205783
 H    1.094634   -1.692361    5.039770
 H   -0.491646   -2.388908    4.698917
