31 
3suv_ligand_ani.xyz
 C   -4.076702   -0.924961   -0.536598
 C   -2.599900   -0.667849   -0.329632
 O   -1.752270   -1.195678   -1.051008
 N   -2.264573    0.168111    0.683032
 C   -0.872785    0.472854    1.043680
 C   -0.028698   -0.791388    1.322807
 N    0.685494   -1.250961    0.105111
 C    1.678734   -0.261820   -0.410521
 C    3.081397   -0.680833    0.049059
 O    3.132475   -2.092803   -0.126035
 C    1.323756    1.165105   -0.003534
 O    1.953237    2.033366   -0.917432
 C   -0.189454    1.344459   -0.029874
 O   -0.437265    2.735130    0.174471
 H   -4.718891   -0.379252    0.160867
 H   -4.339657   -0.646856   -1.561105
 H   -4.261863   -1.997799   -0.430792
 H   -2.999072    0.539425    1.264800
 H   -0.927997    1.065734    1.961378
 H   -0.670383   -1.591544    1.690555
 H    0.702452   -0.566928    2.106634
 H    1.224687   -2.116139    0.276731
 H   -0.045995   -1.438372   -0.610183
 H    1.650047   -0.296591   -1.503796
 H    3.238015   -0.409109    1.107036
 H    3.843608   -0.167733   -0.551944
 H    3.942859   -2.425247    0.275840
 H    1.680346    1.368007    1.024011
 H    1.529879    2.896184   -0.791551
 H   -0.553837    1.038480   -1.018803
 H   -1.308155    2.934165   -0.188975
