31 
3suv_ligand_dft.xyz
 C   -4.067867   -0.874770   -0.583449
 C   -2.599796   -0.685729   -0.315464
 O   -1.745531   -1.253022   -1.005593
 N   -2.251820    0.117884    0.720820
 C   -0.867541    0.439017    1.046085
 C   -0.007132   -0.808360    1.338724
 N    0.692334   -1.234735    0.092777
 C    1.701379   -0.239013   -0.416489
 C    3.076250   -0.657989    0.090115
 O    3.159583   -2.046273   -0.153914
 C    1.304911    1.185344   -0.019228
 O    1.916633    2.028364   -0.948607
 C   -0.217661    1.340959   -0.034195
 O   -0.491083    2.699516    0.218430
 H   -4.712200   -0.251296    0.040035
 H   -4.259938   -0.657257   -1.636929
 H   -4.318725   -1.926468   -0.418967
 H   -2.979725    0.564122    1.258359
 H   -0.896612    1.032145    1.962993
 H   -0.621251   -1.640629    1.685042
 H    0.749678   -0.594369    2.095795
 H    1.201154   -2.122191    0.211741
 H   -0.085656   -1.376020   -0.593825
 H    1.677483   -0.313559   -1.506405
 H    3.177045   -0.433507    1.163057
 H    3.831031   -0.081550   -0.455313
 H    4.027422   -2.380493    0.101759
 H    1.660618    1.405138    1.002453
 H    1.611149    2.927251   -0.757636
 H   -0.578502    1.044934   -1.027272
 H   -1.218647    2.996278   -0.339183
