35 
3suw_ligand_dft.xyz
 O    2.631316   -0.792391    1.335279
 C    3.208686   -0.589710    0.277247
 C    4.695926   -0.783608    0.103315
 N    2.519899   -0.195996   -0.844829
 C    1.088082    0.027388   -0.847765
 C    0.677336    1.217961    0.044123
 O    1.223556    2.421593   -0.438795
 C   -0.839110    1.417046    0.026903
 O   -1.242191    2.403140    0.931597
 C    0.345850   -1.260315   -0.447088
 N   -1.121780   -1.005010   -0.417934
 C   -1.524608    0.138347    0.474174
 C   -2.003052   -2.154413    0.014946
 C   -3.265562   -1.476454    0.594417
 C   -3.038936    0.029697    0.355847
 O   -3.324580    0.373143   -0.986916
 H    5.106863   -0.257277   -0.762109
 H    4.900699   -1.852952   -0.010388
 H    5.199841   -0.445686    1.010281
 H    3.026427   -0.028252   -1.700140
 H    0.819094    0.291086   -1.877881
 H    0.992516    1.017735    1.075303
 H    2.124547    2.514108   -0.107460
 H   -1.153199    1.662694   -1.000314
 H   -0.731456    3.199867    0.728342
 H    0.539160   -2.066949   -1.157851
 H    0.651042   -1.571338    0.553701
 H   -1.440156   -0.726165   -1.354391
 H   -1.204185   -0.117219    1.490109
 H   -2.187311   -2.791765   -0.849798
 H   -1.445191   -2.720642    0.762591
 H   -3.357820   -1.688581    1.662302
 H   -4.176134   -1.820642    0.101064
 H   -3.549566    0.676019    1.073231
 H   -4.274493    0.493476   -1.103293
