104 
3sv6_ligand_dft.xyz
 C   -0.745493   -2.405711   -0.740699
 C    0.897744   -2.320592   -2.301745
 C    1.801530   -2.828896   -1.372329
 C   -2.135708   -2.032962   -0.293520
 C    0.153442   -2.943710    0.179370
 O   -2.522902   -2.281560    0.843709
 N   -0.376807   -2.097728   -1.985104
 N    1.433387   -3.149096   -0.129742
 N   -2.855244   -1.372304   -1.230988
 C   -4.070943   -0.594451   -0.978461
 C   -3.623284    0.738834   -0.355222
 O   -3.602515    1.768821   -1.016028
 C   -5.178354   -1.331084   -0.210643
 C   -5.504068   -2.679772   -0.862384
 C   -6.655793   -3.383226   -0.139976
 C   -7.901516   -2.496805   -0.073710
 C   -7.580180   -1.149716    0.578400
 C   -6.429003   -0.442328   -0.141846
 N   -3.168321    0.660982    0.931906
 C   -2.173406    1.634959    1.372491
 C   -2.104457    1.784325    2.910750
 C   -0.935329    2.725643    3.235000
 C   -3.421718    2.417438    3.380198
 C   -1.904502    0.442280    3.630363
 C   -0.869280    1.156542    0.717596
 O   -0.468735    0.010444    0.962024
 C    2.058143    1.099805   -0.758260
 N   -0.267861    1.922896   -0.212625
 O    2.998487    1.685658   -1.304345
 C    0.602386    1.285005   -1.219540
 C    0.465359    2.198305   -2.427874
 C    0.188653    3.593345   -1.843101
 C   -0.777912    1.927474   -3.287508
 C   -1.097191    3.289018   -3.930342
 C   -0.677115    3.278753   -0.612758
 C   -0.558558    4.365500   -2.945895
 N    6.760745   -0.798278   -0.485724
 N    2.217474    0.207983    0.230302
 C    3.486811   -0.024015    0.905214
 C    4.405595   -0.960930    0.077487
 C    3.207767   -0.595125    2.298472
 C    2.330047    0.294708    3.186439
 C    2.860393    1.718828    3.351265
 C    5.871867   -0.818600    0.536786
 C    8.162737   -0.623398   -0.279983
 C    9.102103   -1.425517   -1.136701
 C    8.950076   -1.747731    0.325772
 O    4.283462   -0.768056   -1.318740
 O    6.190714   -0.752586    1.715491
 H    1.212656   -2.066483   -3.309615
 H    2.848310   -2.949604   -1.630740
 H   -0.173616   -3.171831    1.188095
 H   -2.361458   -1.194213   -2.097200
 H   -4.462429   -0.327675   -1.964269
 H   -4.837970   -1.530902    0.810715
 H   -5.777415   -2.514245   -1.915628
 H   -4.615088   -3.318192   -0.858804
 H   -6.335632   -3.634783    0.880642
 H   -6.886017   -4.330505   -0.640592
 H   -8.278526   -2.324561   -1.091966
 H   -8.701765   -3.004247    0.477285
 H   -7.302041   -1.313774    1.628793
 H   -8.466716   -0.505342    0.583926
 H   -6.196123    0.503073    0.363229
 H   -6.744556   -0.185565   -1.164106
 H   -3.017642   -0.283080    1.281904
 H   -2.477424    2.596166    0.958432
 H   -1.055195    3.695497    2.736200
 H   -0.883051    2.910553    4.313133
 H    0.025500    2.298487    2.926804
 H   -3.419988    2.535040    4.469410
 H   -4.276161    1.791108    3.104269
 H   -3.569061    3.408082    2.933673
 H   -2.756969   -0.228645    3.476380
 H   -1.819603    0.617524    4.708526
 H   -1.005429   -0.073238    3.288236
 H    0.200969    0.285805   -1.417705
 H    1.378568    2.189566   -3.026630
 H    1.116068    4.083124   -1.533770
 H   -0.610445    1.136276   -4.025383
 H   -1.613263    1.612063   -2.649012
 H   -2.167098    3.403526   -4.123119
 H   -0.585282    3.379263   -4.894278
 H   -1.740431    3.276902   -0.875367
 H   -0.511550    3.986002    0.205045
 H   -1.364063    4.978474   -2.528542
 H    0.123179    5.050346   -3.458435
 H    6.370158   -0.778151   -1.417305
 H    1.364868   -0.192980    0.617345
 H    3.991158    0.945577    0.991718
 H    4.107809   -1.999606    0.272807
 H    2.729488   -1.577285    2.175557
 H    4.176301   -0.764414    2.774615
 H    2.257297   -0.184321    4.169962
 H    1.307631    0.328866    2.791630
 H    3.911255    1.715166    3.662294
 H    2.285837    2.266852    4.105587
 H    2.791076    2.281718    2.413263
 H    8.463571    0.387547   -0.012684
 H   10.013950   -0.944779   -1.476225
 H    8.660410   -2.114050   -1.851347
 H    8.397414   -2.641309    0.594368
 H    9.753974   -1.486992    1.005877
 H    4.087817    0.178044   -1.468681
