104 
3sv7_ligand_xtb.xyz
 C   -0.738861   -2.393140   -0.912093
 C    0.830945   -2.184591   -2.534372
 C    1.777625   -2.751981   -1.690176
 C   -2.114138   -2.074962   -0.422750
 C    0.213118   -2.969790   -0.073114
 O   -2.482634   -2.339087    0.710889
 N   -0.418552   -1.998458   -2.143844
 N    1.465209   -3.140004   -0.461926
 N   -2.860589   -1.456157   -1.360099
 C   -4.054866   -0.658685   -1.108197
 C   -3.532419    0.608613   -0.413578
 O   -3.412153    1.661636   -1.013715
 C   -5.145722   -1.412898   -0.339620
 C   -5.644348   -2.604746   -1.158518
 C   -6.731501   -3.354555   -0.394769
 C   -7.892792   -2.421885   -0.064650
 C   -7.399619   -1.223931    0.740917
 C   -6.311796   -0.475693   -0.023942
 N   -3.139819    0.429266    0.863738
 C   -2.168630    1.361065    1.417128
 C   -2.037632    1.218600    2.947705
 C   -1.123986    2.342096    3.446719
 C   -3.429364    1.385685    3.565032
 C   -1.456545   -0.135754    3.355150
 C   -0.890399    1.060276    0.629409
 O   -0.466331   -0.096429    0.571803
 C    2.071825    1.466433   -0.632211
 N   -0.312789    2.029108   -0.085885
 O    3.024014    2.094071   -1.072841
 C    0.634710    1.679050   -1.143770
 C    0.546845    2.839121   -2.122281
 C    0.139501    4.044104   -1.264916
 C   -0.583633    2.744632   -3.144702
 C   -0.837766    4.206543   -3.510880
 C   -0.749816    3.412685   -0.187090
 C   -0.613856    4.994167   -2.207263
 N    6.515670   -0.980665   -0.579938
 N    2.181804    0.509733    0.291729
 C    3.446116    0.147791    0.905953
 C    4.190243   -0.881570    0.025687
 C    3.190489   -0.394089    2.308755
 C    2.592142    0.647959    3.253386
 C    3.565988    1.767151    3.602090
 C    5.666431   -1.001614    0.461604
 C    7.929868   -1.117038   -0.455460
 C    8.632074   -2.072951   -1.369742
 C    8.488122   -2.401165    0.084374
 O    4.082847   -0.568661   -1.348359
 O    6.007113   -1.115238    1.620549
 H    1.075487   -1.858255   -3.535815
 H    2.804878   -2.882579   -1.996448
 H   -0.047101   -3.275742    0.929488
 H   -2.360028   -1.273796   -2.222371
 H   -4.448877   -0.354714   -2.084029
 H   -4.732274   -1.794306    0.596628
 H   -6.047241   -2.249727   -2.110660
 H   -4.810916   -3.276396   -1.372938
 H   -6.310928   -3.753246    0.530875
 H   -7.087648   -4.197153   -0.990881
 H   -8.350375   -2.070468   -0.992369
 H   -8.655014   -2.961883    0.500476
 H   -6.996562   -1.571411    1.694783
 H   -8.231443   -0.549877    0.954427
 H   -5.959114    0.374080    0.564335
 H   -6.725131   -0.085141   -0.957022
 H   -3.057631   -0.526723    1.196772
 H   -2.528112    2.366912    1.188570
 H   -1.567763    3.316518    3.251704
 H   -0.966306    2.247926    4.518258
 H   -0.153952    2.299305    2.956064
 H   -3.358481    1.368456    4.649736
 H   -4.089434    0.581951    3.250424
 H   -3.874048    2.332066    3.264536
 H   -2.052380   -0.960103    2.971836
 H   -1.430863   -0.209794    4.440004
 H   -0.444919   -0.255356    2.979022
 H    0.320643    0.726810   -1.592945
 H    1.508938    2.995281   -2.612460
 H    1.006792    4.519691   -0.805284
 H   -0.316135    2.139909   -4.009967
 H   -1.471884    2.314858   -2.678659
 H   -1.837578    4.358172   -3.913026
 H   -0.116759    4.524666   -4.265016
 H   -1.797649    3.439257   -0.503978
 H   -0.647557    3.914383    0.778187
 H   -1.562566    5.297346   -1.765779
 H   -0.034248    5.896974   -2.394826
 H    6.102670   -0.902660   -1.501284
 H    1.353084   -0.032168    0.529679
 H    4.056772    1.058010    0.943499
 H    3.727721   -1.868940    0.156569
 H    2.507327   -1.243259    2.223661
 H    4.136927   -0.754812    2.710894
 H    2.290145    0.141641    4.172401
 H    1.694402    1.074694    2.800437
 H    4.499491    1.351094    3.972444
 H    3.143028    2.410135    4.371008
 H    3.785493    2.382243    2.733023
 H    8.434971   -0.194472   -0.186347
 H    9.604320   -1.798278   -1.748592
 H    8.027493   -2.624261   -2.074140
 H    7.782432   -3.165527    0.367482
 H    9.356475   -2.349611    0.721136
 H    4.061899    0.398574   -1.435458
