72 
3svj_ligand_ani.xyz
 C    4.622545   -2.284508    2.150050
 C    5.940758   -1.848421    2.205955
 C   -5.416181   -2.677179    1.622670
 C   -4.183861   -3.305776    1.499420
 C   -5.809356   -1.733343    0.677521
 C    3.791188   -1.860036    1.120732
 C    6.421652   -0.985775    1.228288
 C   -3.341249   -3.001395    0.432604
 C   -4.983518   -1.392512   -0.392504
 C    4.246869   -0.983822    0.126200
 C   -3.736066   -2.018240   -0.488078
 C    5.580980   -0.557617    0.207346
 C   -0.037198    0.410105   -1.852264
 C   -1.529117    1.479238   -0.550556
 C   -2.018233   -0.554666   -1.373951
 C   -2.023358   -3.710045    0.257482
 C    0.421903    3.426806    0.813680
 C    2.853509    0.818262   -0.668020
 C    2.428462   -1.468570   -1.418958
 C    2.194839    1.338552   -1.943743
 C    1.802568   -0.917930   -2.701607
 C   -1.700036    4.822583    0.987454
 C   -3.217408    2.766539    0.642582
 C   -0.962897    3.722483    0.213390
 C   -5.428268   -0.397957   -1.435507
 C    0.006166   -4.478015    1.405435
 C    1.613801    2.365268    2.678342
 N   -0.335804    1.501959   -1.143532
 N   -0.845331   -0.642707   -2.020237
 N   -2.427969    0.487578   -0.636424
 N    3.415842   -0.515170   -0.919256
 N    1.199080    0.386972   -2.439284
 N   -1.845909    2.561491    0.212424
 N   -2.843837   -1.639551   -1.522371
 N   -1.322161   -3.906660    1.405248
 N    0.405199    2.710479    1.962545
 O   -1.595623   -4.066861   -0.837036
 O    1.442748    3.844420    0.284517
 S   -3.461930    4.565590    0.672074
Cl    6.224072    0.513766   -1.004047
 H    4.238366   -2.963731    2.906615
 H    6.596714   -2.178376    3.006248
 H   -6.070061   -2.921469    2.455929
 H   -3.883949   -4.062038    2.221765
 H   -6.781422   -1.251281    0.764373
 H    2.765367   -2.214717    1.082691
 H    7.448086   -0.630868    1.250503
 H    2.119985    0.805463    0.158426
 H    3.665290    1.488278   -0.368229
 H    1.620088   -1.671483   -0.689322
 H    2.938087   -2.415882   -1.619513
 H    2.955769    1.434805   -2.727357
 H    1.736885    2.313581   -1.773128
 H    1.043223   -1.594498   -3.096774
 H    2.583629   -0.769301   -3.454360
 H   -1.505243    4.742754    2.062777
 H   -1.399295    5.817406    0.652887
 H   -3.907019    2.316409   -0.074225
 H   -3.397312    2.312038    1.623975
 H   -0.776564    4.053632   -0.814109
 H   -6.495067   -0.179828   -1.332348
 H   -5.239441   -0.780032   -2.443031
 H   -4.872935    0.540900   -1.339335
 H    0.080768   -5.297991    2.127098
 H    0.198258   -4.864658    0.404104
 H    0.772427   -3.726134    1.641190
 H    1.778511    1.279625    2.687074
 H    2.448056    2.846943    2.165007
 H    1.572212    2.723566    3.711473
 H   -2.324233   -2.433394   -1.890235
 H   -1.663114   -3.461995    2.242797
 H   -0.466139    2.283409    2.235244
