27 
3sw8_ligand_ani.xyz
 C    3.600293   -1.605598   -0.662704
 C    2.336027   -2.097313   -0.371920
 C    3.854647   -0.245456   -0.550682
 C    1.301999   -1.241380    0.003593
 C    2.848682    0.619306   -0.132991
 C    1.573772    0.122253    0.155839
 C   -3.032089    1.624471    0.309915
 C   -0.038378   -1.883501    0.255938
 C   -2.445598   -1.799041   -0.181469
 C   -3.315776   -0.850144    0.641968
 N   -1.104416   -1.286038   -0.338434
 N   -3.508010    0.411344   -0.019190
 O   -3.211018    2.600860   -0.407858
 O   -0.131039   -2.915274    0.903209
 O   -4.175815    0.328768   -1.230600
Cl    3.220510    2.304527    0.014664
Cl    0.363795    1.203053    0.767891
 H    4.392317   -2.280447   -0.972059
 H    2.122831   -3.160079   -0.431935
 H    4.836365    0.160784   -0.772638
 H   -2.490952    1.642304    1.268041
 H   -2.907477   -1.953125   -1.159572
 H   -2.362175   -2.756820    0.329999
 H   -2.819260   -0.635255    1.593539
 H   -4.291145   -1.306117    0.850921
 H   -0.971374   -0.452394   -0.889578
 H   -4.113826    1.258741   -1.539721
