70 
3sxu_ligand_xtb.xyz
 N   -1.548438    1.422671   -0.698971
 C   -0.211222    2.022378   -0.877718
 C    0.687120    0.795885   -1.206858
 O    0.148895   -0.220112   -1.624200
 C    0.166051    2.737999    0.424185
 C    1.260930    3.779098    0.271081
 O    1.046468    4.821974    1.049327
 O    2.208777    3.666864   -0.461742
 N    1.975858    0.914949   -0.936900
 C    2.798494   -0.259501   -0.708895
 C    2.679805   -0.490166    0.811875
 O    3.322785    0.162183    1.610310
 C    4.248005   -0.085057   -1.196916
 C    5.062463   -1.309284   -0.752453
 C    4.884506    1.217371   -0.718833
 C    6.347932   -1.489010   -1.550675
 N    1.754898   -1.370089    1.252310
 C    0.846172   -2.241077    0.547743
 C   -0.542520   -1.593833    0.382634
 O   -0.846012   -0.545548    0.933286
 C    0.737600   -3.445623    1.497416
 C    0.716033   -2.771341    2.867740
 C    1.672510   -1.593538    2.696744
 N   -1.373320   -2.366943   -0.335342
 C   -2.805354   -2.279018   -0.597432
 C   -3.095038   -1.553344   -1.914496
 O   -2.696092   -0.459181   -2.233059
 C   -3.651200   -1.743057    0.588044
 C   -3.910565   -0.261835    0.642275
 C   -3.389380    0.515991    1.670577
 C   -4.743920    0.341800   -0.294726
 C   -3.647428    1.876758    1.728031
 C   -4.994918    1.702109   -0.246459
 C   -4.433973    2.477684    0.757508
 O   -3.858228   -2.293451   -2.691917
 H   -2.304882    2.093583   -0.544121
 H   -1.484858    0.744631    0.117269
 H   -1.781376    0.776034   -1.498122
 H   -0.218600    2.719445   -1.721752
 H   -0.706295    3.246246    0.839159
 H    0.510492    2.007866    1.163127
 H    1.765726    5.474158    0.994872
 H    2.377525    1.814100   -0.683503
 H    2.341968   -1.081970   -1.264079
 H    4.209556   -0.073038   -2.292642
 H    4.451012   -2.208388   -0.874866
 H    5.300773   -1.209556    0.307426
 H    5.923569    1.250536   -1.031575
 H    4.847407    1.280454    0.364369
 H    4.386829    2.084711   -1.146514
 H    6.864187   -2.389141   -1.227353
 H    7.020131   -0.647974   -1.409853
 H    6.129604   -1.582061   -2.612249
 H    1.224229   -2.520415   -0.437501
 H   -0.140514   -4.061475    1.313704
 H    1.629957   -4.063262    1.393671
 H    1.031718   -3.439517    3.664556
 H   -0.289080   -2.414613    3.093932
 H    2.676237   -1.811509    3.070057
 H    1.320571   -0.688135    3.195635
 H   -0.931850   -3.135217   -0.818512
 H   -3.127985   -3.313322   -0.762710
 H   -3.157099   -2.061586    1.506602
 H   -4.616903   -2.250705    0.535145
 H   -2.788216    0.056019    2.438610
 H   -5.227894   -0.259112   -1.050173
 H   -3.251122    2.463056    2.542870
 H   -5.648929    2.153664   -0.976131
 H   -4.644990    3.535051    0.805925
 H   -4.059264   -1.862812   -3.541342
