70 
3sxu_ligand_ani.xyz
 N   -1.416800    1.396478   -1.018009
 C   -0.051282    1.981958   -1.005743
 C    0.892363    0.793165   -1.268187
 O    0.441439   -0.238567   -1.750717
 C    0.151855    2.701917    0.339063
 C    1.251829    3.735700    0.382013
 O    1.014918    4.676566    1.303754
 O    2.259275    3.736867   -0.297935
 N    2.189170    0.946137   -0.928349
 C    3.009894   -0.220277   -0.650223
 C    2.907814   -0.524775    0.860808
 O    3.751868   -0.119129    1.650053
 C    4.453157   -0.044850   -1.159276
 C    5.263465   -1.317838   -0.878645
 C    5.152378    1.220698   -0.647984
 C    6.589586   -1.391628   -1.633087
 N    1.818167   -1.214336    1.328905
 C    0.892675   -2.088360    0.620380
 C   -0.521253   -1.484193    0.449141
 O   -0.912209   -0.489283    1.043713
 C    0.795013   -3.296021    1.571338
 C    0.778195   -2.617008    2.940785
 C    1.777828   -1.466640    2.783810
 N   -1.301536   -2.228237   -0.384981
 C   -2.745340   -2.233125   -0.576724
 C   -3.114523   -1.551664   -1.890332
 O   -2.507063   -0.675948   -2.461366
 C   -3.629762   -1.746208    0.611762
 C   -4.179617   -0.330372    0.603256
 C   -3.667436    0.647815    1.460107
 C   -5.270434   -0.000389   -0.208067
 C   -4.204585    1.933465    1.478843
 C   -5.813567    1.280009   -0.184758
 C   -5.280416    2.252221    0.656519
 O   -4.260461   -2.053313   -2.380662
 H   -2.160979    2.102870   -1.094914
 H   -1.519421    0.843832   -0.140325
 H   -1.485273    0.723656   -1.805416
 H    0.056433    2.688580   -1.834213
 H   -0.784258    3.202173    0.601995
 H    0.341851    1.964704    1.128042
 H    1.769115    5.290463    1.276430
 H    2.506561    1.861019   -0.622870
 H    2.551594   -1.033602   -1.218895
 H    4.344891    0.056289   -2.250863
 H    4.649218   -2.186139   -1.151828
 H    5.439128   -1.390731    0.201258
 H    6.150825    1.309130   -1.091269
 H    5.252177    1.192189    0.440577
 H    4.607597    2.133124   -0.919666
 H    7.085934   -2.350833   -1.453379
 H    7.281243   -0.602024   -1.320675
 H    6.434683   -1.292506   -2.714284
 H    1.279220   -2.374211   -0.362047
 H   -0.085920   -3.915726    1.382537
 H    1.687910   -3.918131    1.452935
 H    1.041250   -3.298150    3.754995
 H   -0.219643   -2.210981    3.140947
 H    2.783640   -1.726513    3.129789
 H    1.472701   -0.556630    3.311185
 H   -0.795214   -2.812163   -1.037211
 H   -3.007518   -3.283954   -0.732448
 H   -3.062413   -1.921955    1.529337
 H   -4.491030   -2.426299    0.633532
 H   -2.813393    0.408275    2.084591
 H   -5.688379   -0.759035   -0.864618
 H   -3.779067    2.684875    2.140634
 H   -6.659686    1.520096   -0.823274
 H   -5.701782    3.254018    0.672627
 H   -4.434160   -1.575140   -3.209702
