37 
3sym_ligand_ani.xyz
 C    1.984436    0.855197    0.563289
 F    3.917277    1.655289    1.571686
 N    1.350490   -0.005102   -0.307672
 C    3.310119    0.809529    0.740913
 C    4.155036   -0.161079    0.048053
 O    5.357506   -0.270437    0.147745
 N    3.401135   -0.996440   -0.781923
 C    2.042746   -0.982299   -1.016318
 O    1.500711   -1.746310   -1.788806
 C   -0.098952   -0.028777   -0.416865
 C   -0.729144   -0.853863    0.716725
 O   -0.183199   -2.141567    0.795148
 C   -2.268200   -0.825152    0.590409
 O   -2.858706   -1.402477    1.742794
 C   -2.698976    0.645495    0.594495
 O   -4.084398    0.775133    0.375109
 C   -1.966848    1.459274   -0.469280
 O   -0.549613    1.301143   -0.342706
 C   -2.209399    2.959261   -0.333576
 O   -1.506844    3.669311   -1.326839
 C   -2.805184   -1.568354   -0.642027
 O   -2.431698   -2.940523   -0.504395
 H    1.354711    1.568397    1.085384
 H    3.912616   -1.698580   -1.301609
 H   -0.314271   -0.459117   -1.401356
 H   -0.481421   -0.346176    1.658963
 H   -0.662874   -2.698127    0.159975
 H   -2.695389   -2.356105    1.663186
 H   -2.419041    1.052722    1.581621
 H   -4.512170    0.274902    1.084536
 H   -2.286427    1.146682   -1.475430
 H   -3.272766    3.176844   -0.459836
 H   -1.910350    3.283304    0.678680
 H   -0.587732    3.373585   -1.262136
 H   -3.897773   -1.471097   -0.662533
 H   -2.396443   -1.143385   -1.569518
 H   -2.591410   -3.400217   -1.337259
