33 
3syr_ligand_xtb.xyz
 C   -1.632141    0.781020   -0.645878
 F   -3.435178    1.780749   -1.720406
 C   -2.960533    0.914768   -0.813344
 C   -3.923063    0.139722   -0.035559
 O   -5.123227    0.177912   -0.095175
 N   -3.268172   -0.719187    0.853116
 C   -1.927079   -0.900746    1.044555
 O   -1.473073   -1.708662    1.823575
 C    0.318387   -0.233418    0.434199
 N   -1.116647   -0.084880    0.272936
 C    0.870168   -1.326227   -0.501202
 O    0.237634   -2.565239   -0.341175
 C    2.385396   -1.430445   -0.256155
 O    2.983805   -2.328365   -1.154836
 C    3.037715   -0.052658   -0.445495
 O    4.390107   -0.081273   -0.089977
 C    2.327516    0.982725    0.436069
 O    0.926619    0.996177    0.176713
 C    2.843852    2.400120    0.167831
 O    2.318730    3.329899    1.069875
 H   -0.915870    1.359863   -1.207896
 H   -3.871134   -1.308080    1.419906
 H    0.487273   -0.545827    1.481699
 H    0.701462   -1.030580   -1.545067
 H    0.028706   -2.716286    0.592872
 H    2.557984   -1.768176    0.781336
 H    2.397786   -3.091557   -1.244340
 H    2.922414    0.233994   -1.504031
 H    4.788683   -0.841297   -0.534048
 H    2.505259    0.729849    1.491657
 H    3.926608    2.405007    0.297917
 H    2.598668    2.671072   -0.868342
 H    1.356423    3.290987    1.017500
