31 
3sz1_ligand_ani.xyz
 C    2.489459   -1.775794    0.133411
 O    4.593132   -2.794690    0.262446
 C    3.877482   -1.648518    0.161687
 O    4.321377    1.929817   -0.092096
 C    4.499616   -0.401461    0.087502
 O    1.945960    2.979824   -0.245495
 C    3.719189    0.747736   -0.017779
 O    0.382522   -0.778033   -0.006350
 C    2.310256    0.650281   -0.045111
 O   -5.117339    1.492476    0.552045
 C    1.735719   -0.618557    0.031584
 O   -5.918943   -0.966053   -0.091935
 C    1.469988    1.836635   -0.158849
 C    0.052445    1.568380   -0.157956
 C   -0.436240    0.308302   -0.060068
 C   -1.867883   -0.065312   -0.051381
 C   -2.840107    0.891042    0.265204
 C   -4.182814    0.559124    0.246330
 C   -4.568188   -0.746624   -0.094728
 C   -3.612312   -1.702426   -0.398662
 C   -2.263229   -1.366559   -0.372689
 H    2.015502   -2.746702    0.186630
 H    5.534576   -2.581084    0.271470
 H    3.605651    2.613221   -0.167866
 H    5.580231   -0.298506    0.106943
 H   -5.987745    1.074271    0.474565
 H   -6.100926   -1.880283   -0.341520
 H   -0.603891    2.419797   -0.266777
 H   -2.567725    1.902011    0.556321
 H   -3.918795   -2.715269   -0.655284
 H   -1.510829   -2.111675   -0.604386
