20 
3szb_ligand_ani.xyz
 C    1.143664   -1.210797    0.012651
 C    2.518695   -1.014907    0.030752
 C    3.041570    0.276908    0.019643
 C    2.183397    1.372171   -0.010995
 C    0.806062    1.175861   -0.027784
 C    0.277018   -0.116161   -0.013601
 C   -1.199482   -0.382372   -0.024737
 O   -1.617018   -1.523534   -0.050213
 C   -2.153676    0.802368   -0.003378
 C   -3.615550    0.386423    0.052196
 H    0.718219   -2.210236    0.019019
 H    3.186256   -1.872661    0.053858
 H    4.117759    0.427971    0.034474
 H    2.583573    2.382858   -0.020737
 H    0.141030    2.036326   -0.053062
 H   -1.959072    1.414080   -0.895844
 H   -1.899115    1.439191    0.855326
 H   -3.876840   -0.235588   -0.808772
 H   -3.821449   -0.198655    0.953462
 H   -4.264406    1.268020    0.055491
