33 
3t0b_ligand_xtb.xyz
 C    0.233308   -0.222096   -1.031252
 C   -0.220574   -1.465984   -0.262094
 O    0.244096   -2.649932   -0.856080
 C   -1.753297   -1.495645   -0.251916
 O   -2.233888   -2.549067    0.545660
 C   -2.273144   -0.178773    0.346070
 O   -1.923648   -0.092903    1.701987
 C   -1.673963    1.009833   -0.416996
 O   -0.257225    0.950916   -0.459872
 C   -2.018909    2.345917    0.249794
 O   -1.561589    3.431458   -0.506158
 S    2.050978   -0.119112   -1.085621
 C    2.431033    0.353501    0.662734
 C    3.154604   -0.783766    1.363971
 C    3.248162    1.633809    0.653022
 H   -0.075932   -0.318039   -2.085612
 H    0.127621   -1.389990    0.781089
 H    1.174793   -2.522098   -1.091956
 H   -2.109877   -1.603735   -1.288170
 H   -1.770839   -3.350152    0.271166
 H   -3.368794   -0.150967    0.234838
 H   -2.153585   -0.945482    2.098055
 H   -2.063585    0.993497   -1.448247
 H   -1.582515    2.344791    1.255912
 H   -3.102224    2.448161    0.327505
 H   -0.619910    3.295415   -0.667946
 H    1.456814    0.539498    1.116964
 H    4.101828   -0.987747    0.869440
 H    3.353380   -0.510204    2.398594
 H    2.560293   -1.694875    1.356937
 H    4.200992    1.471640    0.153696
 H    3.437943    1.959732    1.673913
 H    2.712649    2.421790    0.129442
