33 
3t2p_ligand_ani.xyz
 C    0.225319   -0.285657   -0.986721
 C   -0.364082   -1.471613   -0.221286
 O   -0.043447   -2.715893   -0.806929
 C   -1.884147   -1.392055   -0.209134
 O   -2.416321   -2.399381    0.629009
 C   -2.330889   -0.048713    0.353028
 O   -1.960881    0.047299    1.709017
 C   -1.648666    1.072015   -0.422779
 O   -0.222389    0.921894   -0.413913
 C   -1.894569    2.460364    0.142638
 O   -1.181985    3.409901   -0.615749
 S    2.042553   -0.334416   -1.042732
 C    2.525541    0.183390    0.646083
 C    3.650275   -0.717162    1.146294
 C    2.927572    1.656489    0.684877
 H   -0.087851   -0.343728   -2.040347
 H   -0.020440   -1.421620    0.823659
 H    0.912874   -2.839050   -0.732710
 H   -2.256366   -1.504369   -1.240374
 H   -1.929058   -3.210039    0.418382
 H   -3.423636    0.047684    0.234185
 H   -2.222438   -0.795947    2.108662
 H   -1.990615    1.045854   -1.473221
 H   -1.599507    2.471561    1.201628
 H   -2.958941    2.711539    0.078656
 H   -0.297811    3.026514   -0.716563
 H    1.640354    0.047070    1.279521
 H    4.534027   -0.619994    0.506853
 H    3.934473   -0.429992    2.165816
 H    3.349415   -1.769338    1.158523
 H    3.805101    1.839761    0.055120
 H    3.176616    1.945766    1.712762
 H    2.115019    2.296077    0.333680
