33 
3t2p_ligand_xtb.xyz
 C    0.233291   -0.224434   -1.031654
 C   -0.223229   -1.466349   -0.260985
 O    0.239804   -2.652076   -0.852685
 C   -1.755982   -1.492842   -0.252209
 O   -2.239616   -2.545034    0.545038
 C   -2.273337   -0.174628    0.345040
 O   -1.924456   -0.088969    1.701091
 C   -1.671396    1.012659   -0.417915
 O   -0.254842    0.950310   -0.461856
 C   -2.012132    2.349313    0.250044
 O   -1.553297    3.434016   -0.506122
 S    2.051099   -0.124766   -1.085217
 C    2.430205    0.351431    0.662300
 C    3.151047   -0.785427    1.367022
 C    3.249382    1.630511    0.650376
 H   -0.075671   -0.321368   -2.085981
 H    0.124222   -1.389463    0.782417
 H    1.171269   -2.526773   -1.086926
 H   -2.111972   -1.600349   -1.288719
 H   -1.778848   -3.347374    0.270416
 H   -3.368827   -0.144581    0.233177
 H   -2.157344   -0.940508    2.097619
 H   -2.061780    0.998055   -1.448914
 H   -1.574158    2.346604    1.255497
 H   -3.095064    2.454199    0.329429
 H   -0.612332    3.295597   -0.669874
 H    1.455840    0.540160    1.115254
 H    4.098146   -0.992630    0.873602
 H    3.349682   -0.509583    2.401023
 H    2.554784   -1.695187    1.361967
 H    4.202205    1.465743    0.151911
 H    3.439083    1.958114    1.670694
 H    2.715337    2.418222    0.125031
