22 
3t2q_ligand_xtb.xyz
 C    0.435205    1.458901    0.089670
 C    1.466162    0.362180    0.312432
 C    1.187779   -0.830755   -0.606319
 C   -0.228855   -1.321843   -0.277539
 C   -1.246089   -0.205054   -0.526113
 C   -2.557705   -0.446606    0.241159
 O    0.754934    2.616556    0.175263
 O    2.758887    0.863201    0.111727
 O    2.079409   -1.885806   -0.353783
 O   -0.290158   -1.741731    1.060899
 O   -0.814744    1.119229   -0.184455
 O   -3.562501    0.432667   -0.169522
 H    1.353737    0.020413    1.358396
 H    1.253380   -0.512672   -1.658576
 H   -0.479924   -2.161984   -0.943303
 H   -1.471574   -0.164289   -1.600372
 H   -2.915602   -1.455407    0.030227
 H   -2.353805   -0.359246    1.315094
 H    2.699047    1.832056    0.150859
 H    2.969432   -1.511939   -0.321164
 H    0.445511   -2.356690    1.192856
 H   -3.245789    1.335901   -0.044780
