48 
3t2v_ligand_dft.xyz
 O   -1.555660    1.233776    1.270338
 C   -1.352610    1.438038   -0.110394
 C    0.156901    1.493410   -0.464011
 C    0.752013    2.729780    0.167830
 O    1.566162    3.413730   -0.649490
 O    0.537987    3.097022    1.307158
 C   -2.089214    0.326580   -0.848685
 C   -3.604582    0.419690   -0.667645
 C   -4.377535   -0.730662   -1.320612
 C   -4.008041   -2.130223   -0.807530
 C   -4.061928   -2.294232    0.716095
 C   -5.436703   -2.001735    1.317162
 C    0.926872    0.246447    0.011159
 C    2.427009    0.278048   -0.282495
 C    3.127710   -1.016295    0.129929
 C    4.627615   -1.007336   -0.163202
 C    5.334673   -2.295427    0.259085
 C    6.831233   -2.279441   -0.047164
 H   -1.041353    1.918195    1.728019
 H   -1.794072    2.403016   -0.418347
 H    0.261932    1.590880   -1.550304
 H    1.901701    4.168181   -0.136973
 H   -1.727470   -0.633676   -0.464976
 H   -1.837053    0.367088   -1.917327
 H   -3.957469    1.369265   -1.092145
 H   -3.824113    0.463354    0.404701
 H   -4.219591   -0.703580   -2.407469
 H   -5.450439   -0.559521   -1.167441
 H   -4.687949   -2.858801   -1.269602
 H   -3.001658   -2.395278   -1.156231
 H   -3.313082   -1.644258    1.186632
 H   -3.771848   -3.322961    0.963828
 H   -6.210793   -2.621677    0.848984
 H   -5.447945   -2.204724    2.392896
 H   -5.720879   -0.953050    1.177424
 H    0.487234   -0.627422   -0.483065
 H    0.751548    0.118757    1.084721
 H    2.589485    0.458816   -1.354083
 H    2.898283    1.120160    0.242162
 H    2.660839   -1.865136   -0.389575
 H    2.966594   -1.188902    1.203253
 H    4.786717   -0.841675   -1.238318
 H    5.093864   -0.153545    0.349083
 H    4.864602   -3.148715   -0.247914
 H    5.180571   -2.455777    1.334440
 H    7.010448   -2.151496   -1.120917
 H    7.329401   -1.452542    0.472276
 H    7.314109   -3.211056    0.265081
