33 
3t3d_ligand_ani.xyz
 N   -1.317322    0.037356    0.105194
 O   -1.968662   -1.690392    1.461322
 C   -2.266301   -0.758524    0.719251
 N   -3.566907   -0.429151    0.451251
 C   -4.042505    0.538151   -0.446015
 O   -5.234198    0.691974   -0.612674
 C   -2.970808    1.276921   -1.099052
 C   -1.686937    1.017786   -0.803817
 C    0.090759   -0.193805    0.465148
 O    0.760775    1.003244    0.150359
 C    2.169740    0.998699    0.386027
 C    2.653119    2.411192    0.081290
 O    2.010908    3.352574    0.910124
 C    2.829425   -0.067180   -0.476533
 O    4.213845   -0.062901   -0.209256
 C    2.218068   -1.410663   -0.134152
 O    2.788278   -2.382705   -0.983724
 C    0.704935   -1.393193   -0.281873
 O    0.261481   -2.634826    0.206711
 H   -4.263728   -0.997177    0.917161
 H   -3.244438    2.045600   -1.810239
 H   -0.861977    1.556685   -1.250778
 H    0.124045   -0.386525    1.544753
 H    2.363687    0.780283    1.449087
 H    2.483568    2.631089   -0.986950
 H    3.726454    2.479115    0.273510
 H    1.062096    3.197320    0.802730
 H    2.623205    0.158606   -1.537146
 H    4.586984   -0.816996   -0.686786
 H    2.459937   -1.637418    0.920328
 H    2.358007   -3.221053   -0.761409
 H    0.461876   -1.285124   -1.352726
 H   -0.546505   -2.493875    0.738817
