36 
3t3i_ligand_ani.xyz
 F    4.153960    0.811528    1.743225
 N    0.429148   -0.750329   -0.435465
 C    0.991096   -1.928771   -0.891451
 F    4.211115    1.783666   -0.190251
 O    0.316261   -2.876712   -1.280809
 F    2.628826    2.250750    1.209411
 N    2.358054   -1.960841   -0.891117
 C    3.246720   -1.006271   -0.389937
 O    4.443538   -1.191970   -0.434767
 C    2.559370    0.155130    0.153596
 C    1.211952    0.248143    0.104586
 C    3.394935    1.248906    0.729195
 C   -1.031307   -0.615506   -0.559864
 C   -1.791320   -1.325976    0.576424
 O   -1.798125   -2.726384    0.445192
 C   -3.252915   -0.908032    0.600194
 O   -3.889323   -1.396100    1.761584
 C   -3.403421    0.599547    0.577087
 O   -4.760834    0.966007    0.471569
 C   -2.662477    1.140897   -0.636870
 O   -1.284686    0.767780   -0.564839
 C   -2.681737    2.661064   -0.733957
 O   -2.002320    3.100367   -1.887636
 H    2.776298   -2.808076   -1.250923
 H    0.687164    1.113239    0.483263
 H   -1.316551   -1.065606   -1.518285
 H   -1.331738   -1.026727    1.533659
 H   -1.103628   -2.986565   -0.191512
 H   -3.744173   -1.314723   -0.302600
 H   -3.749400   -2.354121    1.763413
 H   -2.942743    1.018525    1.488452
 H   -5.222572    0.515626    1.192651
 H   -3.109679    0.722668   -1.553904
 H   -2.239794    3.088357    0.182565
 H   -3.714556    3.010078   -0.806060
 H   -1.125604    2.693333   -1.852476
