44 
3t3v_ligand_ani.xyz
 N   -2.989462    3.094240   -0.369957
 C   -4.191644    2.546756   -0.121205
 N   -4.492434    1.284155    0.122593
 C   -3.404497    0.496284    0.127851
 C   -2.082765    0.914470   -0.067958
 C   -1.928713    2.286878   -0.376370
 C    7.134278   -0.995740   -0.565438
 C   -4.205620   -2.955647    1.232693
 C   -4.921622   -2.148852   -1.058779
 N   -0.707165    2.834077   -0.653844
 C    4.635735    1.195807    0.905627
 C    0.710839   -1.572275   -0.665711
 C    3.282782    1.330691    1.027060
 C    2.066818   -1.704809   -0.777450
 C    4.362616   -0.863728   -0.350719
 C    0.990645    0.491481    0.555081
 N   -2.102149   -1.327022    0.229732
 O    6.541716    0.067275    0.146431
 C    5.184210    0.086280    0.204014
 C    0.155345   -0.441139   -0.013682
 C   -1.308262   -0.286415    0.050136
 C    2.949187   -0.735221   -0.227757
 C    2.401061    0.370854    0.459561
 C   -4.513849   -1.749520    0.357810
 N   -3.362295   -0.847442    0.319640
 H   -5.028807    3.242195   -0.131183
 H    6.893594   -1.965370   -0.111516
 H    6.816206   -1.000098   -1.615679
 H    8.211500   -0.830919   -0.514910
 H   -5.084613   -3.605323    1.297143
 H   -3.370880   -3.525385    0.812839
 H   -3.934320   -2.636385    2.242277
 H   -4.124336   -2.715611   -1.553690
 H   -5.822555   -2.771477   -1.030114
 H   -5.137603   -1.251080   -1.646577
 H   -0.755156    3.767684   -1.040860
 H   -0.039310    2.220661   -1.101092
 H    5.325783    1.918194    1.330627
 H    0.039341   -2.321808   -1.076487
 H    2.858925    2.178700    1.561467
 H    2.491185   -2.565381   -1.291190
 H    4.758867   -1.719557   -0.886217
 H    0.568274    1.343022    1.079312
 H   -5.324564   -1.163239    0.798682
