34 
3t4h_ligand_dft.xyz
 C   -1.248879    2.549112    0.037876
 N   -2.651343    0.544860   -0.225516
 O   -0.346981    3.134460    0.579500
 C   -1.303427    1.038307   -0.133954
 C   -0.418300    0.679585   -1.350138
 C   -4.538989   -0.844799    0.192301
 C   -3.084453   -0.481220    0.535518
 O   -2.446418   -1.060670    1.396057
 O   -4.983390   -1.859825    0.922343
 O   -5.182277   -0.261520   -0.648065
 S   -0.370364   -1.071913   -1.812973
 C    0.265442   -1.858780   -0.284793
 C    1.432052   -1.149623    0.353513
 C    1.315052   -0.657800    1.655927
 C    2.371215    0.013581    2.268234
 C    3.566191    0.203721    1.588994
 C    3.669047   -0.292912    0.294895
 C    2.630122   -0.959761   -0.335421
 N    4.929258   -0.099111   -0.437760
 O    4.998541   -0.539623   -1.574500
 O    5.832064    0.491186    0.134746
 O   -2.288904    3.165540   -0.551807
 H   -3.292468    0.923562   -0.910758
 H   -0.864281    0.605073    0.765403
 H    0.592808    1.047554   -1.151420
 H   -0.790013    1.190119   -2.245050
 H   -5.898646   -2.027960    0.644292
 H   -0.552906   -1.954987    0.432460
 H    0.550672   -2.864979   -0.608404
 H    0.380854   -0.804690    2.192835
 H    2.258134    0.395066    3.277457
 H    4.405308    0.722514    2.034797
 H    2.756100   -1.313729   -1.352679
 H   -2.156661    4.119973   -0.432334
