34 
3t4h_ligand_ani.xyz
 C   -1.430013    2.440381   -0.401084
 N   -2.725761    0.342385   -0.490598
 O   -0.477251    3.113903   -0.708507
 C   -1.416421    0.916395   -0.346085
 C   -0.381482    0.371669   -1.334037
 C   -4.707267   -0.843447    0.106236
 C   -3.272145   -0.427416    0.480906
 O   -2.720407   -0.762746    1.513076
 O   -5.273278   -1.617060    1.022586
 O   -5.237721   -0.489415   -0.921523
 S   -0.202427   -1.433250   -1.354852
 C    0.386845   -1.760386    0.335657
 C    1.579062   -0.922091    0.725603
 C    1.533774   -0.052311    1.819184
 C    2.636593    0.735621    2.150736
 C    3.796489    0.676318    1.390584
 C    3.823500   -0.188270    0.304007
 C    2.744477   -0.988116   -0.037806
 N    5.038656   -0.255256   -0.521490
 O    5.037373   -1.018985   -1.471726
 O    5.975297    0.458094   -0.205550
 O   -2.611729    2.961664   -0.033751
 H   -3.310671    0.581119   -1.279833
 H   -1.094622    0.660805    0.670440
 H    0.585703    0.837259   -1.126779
 H   -0.663336    0.637336   -2.358428
 H   -6.166805   -1.825429    0.699145
 H   -0.437994   -1.630570    1.042944
 H    0.641118   -2.828098    0.319300
 H    0.629920    0.011509    2.422924
 H    2.589386    1.403858    3.006174
 H    4.667040    1.278870    1.620851
 H    2.815529   -1.645068   -0.897881
 H   -2.505434    3.926774   -0.076849
