38 
3t4v_ligand_xtb.xyz
 C    4.621098   -0.769123   -1.152168
 N   -2.810579    0.598361   -0.214288
 O   -5.370751   -0.072180   -0.582387
 S   -0.792036   -1.356437   -1.546752
 C   -4.771730   -0.633749    0.300899
 O   -0.241560    3.082354    0.043924
 C   -3.305858   -0.321160    0.632116
 O   -2.386972    3.148990   -0.568424
 C   -1.435610    1.005254   -0.182706
 O   -2.696830   -0.838358    1.542684
 C   -1.270561    2.517935   -0.202058
 O   -5.284393   -1.567700    1.076657
 C   -0.634353    0.443938   -1.371840
 C   -0.049504   -1.947167    0.024772
 C    1.244552   -1.267042    0.328134
 C    1.374723   -0.510281    1.509573
 C    2.541231    0.139533    1.795668
 C    3.642425    0.070812    0.917607
 C    2.303260   -1.348266   -0.541221
 C    3.519823   -0.692215   -0.273399
 C    4.860634    0.729259    1.183994
 C    5.909894    0.634208    0.313644
 C    5.789105   -0.121759   -0.863600
 H    4.522447   -1.351802   -2.057105
 H   -3.418083    0.951808   -0.942015
 H   -2.247703    4.109671   -0.586896
 H   -1.002304    0.624163    0.749634
 H   -6.209931   -1.754028    0.845614
 H    0.418710    0.701382   -1.255813
 H   -1.011015    0.848134   -2.311691
 H    0.088547   -3.015086   -0.147839
 H   -0.785674   -1.805420    0.816832
 H    0.541565   -0.463351    2.196863
 H    2.634952    0.718674    2.702768
 H    2.205472   -1.918665   -1.454891
 H    4.948164    1.309840    2.091318
 H    6.841133    1.139583    0.524341
 H    6.629614   -0.186355   -1.539209
