38 
3t4v_ligand_ani.xyz
 C    4.811409   -0.820423   -1.001564
 N   -2.924424    0.403261   -0.437911
 O   -5.525833   -0.235948   -0.601299
 S   -0.616843   -1.538893   -1.522528
 C   -4.923151   -0.616013    0.376001
 O   -0.496364    3.011290   -0.827227
 C   -3.431614   -0.304829    0.599771
 O   -2.610698    3.015060   -0.075116
 C   -1.572555    0.888610   -0.418309
 O   -2.809123   -0.663027    1.582887
 C   -1.483285    2.409378   -0.481491
 O   -5.450065   -1.332912    1.359579
 C   -0.665584    0.273979   -1.488458
 C    0.076805   -1.916900    0.116729
 C    1.364639   -1.186062    0.408011
 C    1.455952   -0.299634    1.512070
 C    2.615661    0.381515    1.774534
 C    3.757675    0.223554    0.944632
 C    2.458427   -1.349345   -0.408697
 C    3.674682   -0.655632   -0.164939
 C    4.976454    0.912761    1.189551
 C    6.057163    0.734169    0.367607
 C    5.972752   -0.143843   -0.742559
 H    4.742150   -1.496193   -1.852260
 H   -3.564057    0.681254   -1.169564
 H   -2.437200    3.969942   -0.127269
 H   -1.178028    0.614236    0.566932
 H   -6.384454   -1.477423    1.130870
 H    0.345483    0.669538   -1.360367
 H   -1.010204    0.563057   -2.486981
 H    0.232458   -3.003338    0.089604
 H   -0.673566   -1.715958    0.887078
 H    0.593113   -0.162091    2.162966
 H    2.676762    1.055342    2.625748
 H    2.401418   -2.015767   -1.266527
 H    5.034186    1.584641    2.043501
 H    6.987000    1.263374    0.559708
 H    6.839479   -0.274578   -1.385545
