40 
3t5i_ligand_ani.xyz
 N   -0.078021    2.682094    0.223014
 C    1.318201    2.622083   -0.337140
 C    1.372646    1.300627   -1.116012
 O    0.738736    1.198671   -2.166532
 C    2.295678    2.743947    0.825791
 O    1.800816    1.842797    1.817419
 N    2.057160    0.264294   -0.581296
 C    1.964203   -1.073036   -1.156379
 C    0.665771   -1.770695   -0.697896
 O    0.721312   -2.794176   -0.017332
 C    3.169444   -1.870028   -0.671802
 O    3.226886   -1.848390    0.740195
 N   -0.484563   -1.156265   -1.050995
 C   -1.789165   -1.384298   -0.462336
 C   -2.561733   -0.076685   -0.539741
 O   -2.092505    1.004217   -0.838645
 C   -1.751501   -1.866811    0.998420
 S   -0.862780   -0.704832    2.083402
 O   -3.841164   -0.251057   -0.224387
 C   -4.672815    0.916333   -0.322271
 H   -0.031175    2.205889    1.145127
 H   -0.404685    3.654151    0.341127
 H   -0.724104    2.165831   -0.401866
 H    1.459647    3.414031   -1.068739
 H    3.312375    2.478513    0.509972
 H    2.305242    3.776129    1.200982
 H    2.311722    1.935852    2.630176
 H    2.323513    0.287054    0.398879
 H    1.955271   -0.960655   -2.246928
 H    3.121997   -2.895394   -1.058772
 H    4.084995   -1.402065   -1.045201
 H    2.466654   -2.383425    1.019839
 H   -0.415727   -0.323404   -1.633480
 H   -2.347156   -2.133597   -1.042175
 H   -1.223597   -2.817341    1.039571
 H   -2.771775   -2.009083    1.357895
 H   -1.919777   -0.302425    2.801346
 H   -4.326967    1.690551    0.368239
 H   -4.655831    1.317154   -1.339167
 H   -5.675203    0.583559   -0.055863
