18 
3t5u_ligand_ani.xyz
 C    0.418117   -0.090507    0.249316
 N   -1.820800    0.878869   -0.820718
 O   -1.767330    0.491915    1.657742
 S   -1.332227   -0.181528    0.449083
 C    1.115383   -1.230464   -0.136849
 O   -1.755535   -1.539870    0.149195
 C    2.494896   -1.151071   -0.296023
 O   -1.196803    0.470089   -2.013483
 C    3.155059    0.054701   -0.067174
 C    2.441226    1.186931    0.321806
 C    1.061066    1.120528    0.482741
 H   -2.818725    0.708690   -0.961665
 H    0.567822   -2.153432   -0.309457
 H    3.055778   -2.031150   -0.598106
 H   -0.780688    1.284352   -2.336499
 H    4.233967    0.112494   -0.192221
 H    2.962851    2.123571    0.497892
 H    0.483069    1.990069    0.789218
