18 
3t5u_ligand_dft.xyz
 C    0.480792    0.177980    0.175118
 N   -1.980870   -0.324951   -1.045456
 O   -1.567461    1.831482    0.133508
 S   -1.275831    0.421489    0.322178
 C    1.041358   -1.027031    0.591648
 O   -1.751659   -0.340881    1.460132
 C    2.409950   -1.217055    0.437784
 O   -1.599838   -1.676224   -1.119273
 C    3.197164   -0.212130   -0.120409
 C    2.623525    0.990746   -0.525644
 C    1.255074    1.192891   -0.381528
 H   -1.629447    0.118547   -1.893225
 H    0.414151   -1.790765    1.036217
 H    2.863248   -2.149346    0.758986
 H   -2.361881   -2.132930   -0.736455
 H    4.265955   -0.365398   -0.234745
 H    3.242350    1.775492   -0.948874
 H    0.789504    2.127803   -0.675310
