53 
3t6y_ligand_dft.xyz
 N   -2.968211    0.615291    0.151675
 C   -2.034931   -0.083765    0.892507
 O   -0.945347    0.400386    1.216090
 N   -2.390209   -1.345367    1.250571
 C   -3.505864   -2.089496    0.807170
 O   -3.593299   -3.266895    1.069370
 C   -4.441109   -1.282776    0.036797
 C   -4.137846   -0.011382   -0.262329
 C   -2.650117    1.947119   -0.377072
 C    1.728642   -0.387343   -1.134488
 C    2.740923    0.109897   -0.127633
 C    2.461419    0.030681    1.240212
 C   -2.085148    2.972913    0.616523
 C    3.388146    0.500704    2.163316
 C    4.595730    1.045372    1.727916
 C    4.874196    1.126801    0.367258
 C    3.946032    0.660806   -0.560343
 C    1.176146   -1.765691   -0.870641
 N   -0.118860   -2.007354   -0.872960
 C   -0.242866   -3.343884   -0.589210
 C    0.996241   -3.896403   -0.422906
 N    1.904894   -2.878986   -0.608369
 C    3.352731   -2.998931   -0.509521
 C   -0.610323    3.151447    0.224596
 C   -0.583884    2.669555   -1.235824
 O   -1.707517    1.819073   -1.426435
 O   -0.152677    4.480128    0.213595
 C    0.662390    1.879212   -1.633024
 N    0.517360    0.496280   -1.114254
 H   -1.677255   -1.870099    1.743587
 H   -5.356931   -1.742406   -0.308038
 H   -4.797769    0.608611   -0.857817
 H   -3.590120    2.303254   -0.803975
 H    2.147591   -0.320536   -2.145943
 H    1.520535   -0.394581    1.582497
 H   -2.222488    2.666893    1.653851
 H   -2.592726    3.929200    0.461997
 H    3.172201    0.435183    3.224762
 H    5.319841    1.404901    2.451781
 H    5.812338    1.551374    0.025407
 H    4.166201    0.722353   -1.623646
 H   -1.209177   -3.821863   -0.512965
 H    1.314628   -4.903076   -0.198371
 H    3.832417   -2.470310   -1.335774
 H    3.616590   -4.054725   -0.574128
 H    3.712285   -2.588793    0.437088
 H    0.026324    2.526029    0.859720
 H   -0.661873    3.554977   -1.877184
 H    0.022817    4.761502    1.119196
 H    1.557172    2.332630   -1.200555
 H    0.778446    1.813673   -2.717011
 H    0.143201    0.516931   -0.140979
 H   -0.241386    0.009288   -1.610934
