56 
3t70_ligand_ani.xyz
 N    3.289483   -0.340563   -0.156274
 C    2.413187    0.548248    0.455677
 O    1.204299    0.373732    0.538346
 N    3.016566    1.660999    0.983699
 C    4.370339    2.022330    0.957027
 O    4.741086    3.057037    1.470551
 C    5.202014    1.041226    0.270815
 C    4.641271   -0.067071   -0.236967
 C    2.774724   -1.595787   -0.714057
 C   -2.206684    0.158803   -0.899067
 C   -2.609153   -0.752190    0.261590
 C   -1.980297   -0.656062    1.504906
 C    2.190630   -2.567694    0.325518
 C   -2.361694   -1.481757    2.560629
 C   -3.384379   -2.410793    2.389108
 C   -4.024405   -2.508615    1.157583
 C   -3.639484   -1.681444    0.104203
 C   -2.451193    1.626785   -0.555987
 C   -3.661400    2.199855   -0.947021
 C   -3.976317    3.514993   -0.617119
 C   -3.078114    4.277195    0.123022
 C   -1.869950    3.717212    0.524778
 C   -1.555299    2.401480    0.185444
 C    0.703201   -2.644523   -0.015237
 O    0.129371   -3.935412    0.085054
 C    0.656661   -2.219101   -1.477554
 O    1.754018   -1.322109   -1.653591
 C   -0.324827    0.841453   -2.397464
 C   -0.642516   -1.537396   -1.910298
 N   -0.787995   -0.133515   -1.364708
 H    2.399908    2.313391    1.451462
 H    6.264268    1.227247    0.190130
 H    5.228191   -0.822976   -0.752318
 H    3.618787   -2.041754   -1.250640
 H   -2.860858   -0.082383   -1.744534
 H   -1.167191    0.054221    1.655545
 H    2.362307   -2.231518    1.349165
 H    2.641356   -3.557833    0.204424
 H   -1.858264   -1.395498    3.520764
 H   -3.682837   -3.053125    3.213730
 H   -4.823546   -3.231308    1.012526
 H   -4.146154   -1.765745   -0.856786
 H   -4.370583    1.608186   -1.524332
 H   -4.923585    3.941475   -0.938146
 H   -3.317977    5.303947    0.386173
 H   -1.163417    4.310000    1.099196
 H   -0.592931    1.989776    0.495548
 H    0.153589   -1.923875    0.603647
 H    0.007016   -4.131012    1.022572
 H    0.805505   -3.115457   -2.096140
 H    0.621710    0.493084   -2.808196
 H   -1.064473    0.919616   -3.205161
 H   -0.182343    1.826458   -1.950001
 H   -1.488947   -2.144012   -1.581262
 H   -0.685396   -1.488632   -3.003640
 H   -0.148592   -0.059594   -0.552794
