39 
3t82_ligand_ani.xyz
 C    1.675845   -2.595207   -0.196104
 O    2.237228   -2.837179    1.068934
 C    2.322910   -1.324439   -0.764666
 O    3.706123   -1.486878   -0.917423
 C    1.918138   -0.133511    0.117377
 O    2.361772    1.102833   -0.460579
 C    0.403723   -0.075841    0.170389
 O   -0.020622    0.985773    1.031045
 C   -0.133257   -1.389213    0.732086
 O    0.273709   -2.463609   -0.115000
 C   -1.642225   -1.388573    0.842872
 O   -2.166919   -0.833086   -0.382156
 O   -4.630580   -1.145091   -0.461426
 N   -3.577425    0.782359   -1.656555
 S   -3.623461   -0.126791   -0.295773
 O   -3.621287    0.750879    0.854203
 O   -1.011797    2.030574   -0.708278
 C   -0.745640    1.977347    0.471391
 C    3.616326    1.495676   -0.169696
 O    4.383312    0.835900    0.500541
 C   -1.199480    2.986993    1.484441
 C    3.933072    2.834021   -0.772601
 H    1.866868   -3.438953   -0.868739
 H    1.813817   -3.630948    1.423039
 H    1.902090   -1.161828   -1.767112
 H    4.143854   -1.024801   -0.184067
 H    2.342602   -0.235884    1.122943
 H    0.015445    0.109468   -0.834429
 H    0.282916   -1.534800    1.738278
 H   -2.019307   -2.408268    0.956137
 H   -1.962503   -0.768015    1.684256
 H   -2.795227    1.433935   -1.627292
 H   -3.596984    0.212574   -2.495642
 H   -0.412155    3.203028    2.210093
 H   -1.503449    3.894570    0.962548
 H   -2.066436    2.575322    2.009027
 H    3.850282    2.780050   -1.862412
 H    4.948176    3.115632   -0.493930
 H    3.223373    3.586604   -0.416257
