39 
3t82_ligand_dft.xyz
 C    1.671186   -2.614989   -0.192878
 O    2.290798   -2.826941    1.045931
 C    2.293654   -1.345598   -0.785484
 O    3.679287   -1.458146   -0.943238
 C    1.882267   -0.142310    0.068934
 O    2.332171    1.061486   -0.544171
 C    0.368284   -0.093871    0.163321
 O   -0.027403    0.962993    1.038749
 C   -0.149034   -1.415402    0.742678
 O    0.272043   -2.491439   -0.081971
 C   -1.659746   -1.453331    0.854718
 O   -2.236079   -1.010278   -0.382225
 O   -4.720793   -0.983258   -0.536789
 N   -3.409252    0.843468   -1.630303
 S   -3.596568   -0.109194   -0.316181
 O   -3.505354    0.724195    0.865161
 O   -0.937967    2.109712   -0.678016
 C   -0.695962    2.003108    0.504598
 C    3.534067    1.532549   -0.144927
 O    4.206164    1.019979    0.716678
 C   -1.129495    2.972478    1.562470
 C    3.899060    2.765371   -0.924466
 H    1.826888   -3.461261   -0.869303
 H    2.047352   -3.705009    1.363752
 H    1.880675   -1.212605   -1.790540
 H    4.074697   -1.462926   -0.060185
 H    2.321720   -0.220150    1.067751
 H   -0.067847    0.073845   -0.822589
 H    0.256814   -1.544735    1.755855
 H   -1.990326   -2.475944    1.054341
 H   -1.978293   -0.792464    1.663670
 H   -2.576111    1.430551   -1.557244
 H   -3.480086    0.327077   -2.499891
 H   -0.400400    3.029532    2.372489
 H   -1.291373    3.952320    1.112914
 H   -2.079839    2.608322    1.966671
 H    4.096803    2.486543   -1.964031
 H    4.790902    3.218154   -0.492089
 H    3.069652    3.477124   -0.925215
