34 
3t84_ligand_xtb.xyz
 C   -2.887440   -1.188791    0.678973
 O   -1.586565   -1.514957    1.075438
 C   -3.013671    0.270567    0.210955
 C   -2.000316    0.515199   -0.918036
 C   -0.593769    0.166009   -0.406777
 C   -0.585523   -1.285272    0.095118
 O   -3.343199   -1.992056   -0.376297
 O   -4.316953    0.562735   -0.212747
 O   -2.030997    1.848353   -1.344327
 O   -0.249630    1.038812    0.661449
 C    0.890785    2.796010    1.692065
 C    0.630702    2.020235    0.438024
 O    1.149876    2.239432   -0.628115
 C    0.741375   -1.665716    0.762720
 O    1.790058   -1.752966   -0.167126
 S    2.911591   -0.604088   -0.179432
 O    4.173222   -1.251013   -0.277222
 O    2.660801    0.281777    0.914989
 N    2.598587    0.120351   -1.619292
 H   -3.499185   -1.348164    1.580381
 H   -2.790446    0.942041    1.045234
 H   -2.241374   -0.158721   -1.758518
 H    0.129475    0.284214   -1.220752
 H   -0.753804   -1.939703   -0.773621
 H   -3.278845   -2.918415   -0.116458
 H   -4.603496   -0.155213   -0.794141
 H   -2.948138    2.150943   -1.293956
 H    1.757007    2.334431    2.164546
 H    1.130062    3.826661    1.448531
 H    0.041361    2.736964    2.364364
 H    0.622805   -2.646078    1.233336
 H    0.989699   -0.923385    1.525747
 H    3.425322    0.148718   -2.189085
 H    2.178233    1.038270   -1.496224
