49 
3tcg_ligand_xtb.xyz
 N   -5.105480    0.289447    1.018478
 C   -4.421185    0.041397   -0.275785
 C   -3.377910   -1.050717    0.090697
 O   -3.274677   -1.323681    1.279858
 C   -3.722822    1.295744   -0.811419
 C   -2.569976    1.789923    0.075431
 C   -1.602275    2.650535   -0.741883
 C   -0.362447    3.075337    0.037273
 N    0.449006    1.894375    0.425094
 N   -2.679818   -1.599015   -0.891032
 C   -1.544395   -2.455286   -0.624970
 C   -0.262684   -1.608190   -0.585556
 O   -0.326066   -0.405537   -0.803155
 N    0.845260   -2.299888   -0.318098
 C    2.180220   -1.751577   -0.113551
 C    2.221633   -0.949426    1.192096
 O    1.289549   -0.322856    1.628454
 C    2.639512   -0.903666   -1.317374
 C    4.047424   -0.340918   -1.148644
 C    4.108255    0.911619   -0.312464
 O    5.339412    1.249433   -0.021951
 O    3.137135    1.552251    0.046381
 O    3.398591   -1.041492    1.769840
 H   -5.071085    1.268495    1.312504
 H   -6.074487   -0.036986    1.050145
 H   -4.490418   -0.333777    1.671674
 H   -5.128629   -0.340150   -1.015045
 H   -4.458812    2.087836   -0.957888
 H   -3.323372    1.056867   -1.797844
 H   -2.947225    2.374663    0.916131
 H   -2.029747    0.930188    0.472246
 H   -2.114661    3.547191   -1.090054
 H   -1.281018    2.088878   -1.620237
 H   -0.640082    3.635275    0.930797
 H    0.241780    3.726716   -0.594176
 H    0.336881    1.627540    1.407052
 H    1.470590    2.009663    0.269383
 H    0.181424    1.043253   -0.128022
 H   -2.796078   -1.275195   -1.840111
 H   -1.697051   -2.926688    0.349998
 H   -1.474516   -3.224179   -1.396165
 H    0.745283   -3.287164   -0.133385
 H    2.870472   -2.591030    0.001423
 H    2.616887   -1.552003   -2.193619
 H    1.938556   -0.085130   -1.480728
 H    4.452647   -0.072156   -2.127646
 H    4.732046   -1.073258   -0.718740
 H    5.416770    2.082240    0.473758
 H    3.449405   -0.569111    2.618922
