27 
3tct_ligand_dft.xyz
 O    6.666822   -0.004228   -0.445125
 O    5.764715    1.825253    0.419564
 C    4.166266   -1.400156    0.055934
 C    2.931136   -2.032755    0.066710
 C   -4.337101    0.303661   -0.019470
 C   -2.450030   -1.219967    0.015415
 C   -2.074460    1.179409   -0.020074
 C    3.153768    0.823375    0.020312
 N    0.446335   -1.532077    0.035870
 O    0.685653    0.704484    0.002862
 C    5.614516    0.697980    0.026681
 C   -3.816500   -0.987023    0.003939
 C   -3.449228    1.373241   -0.031191
 C    4.283843    0.004109    0.022867
 C   -1.581948   -0.125982    0.003165
 C   -0.140936   -0.379457    0.015071
 C    1.799410   -1.220808    0.038329
 C    1.940206    0.168590    0.018512
Cl   -4.915846   -2.339267    0.019031
Cl   -4.081543    2.997105   -0.060977
 H    6.364976   -0.811537   -0.881366
 H    5.058998   -2.016580    0.122578
 H    2.842925   -3.112354    0.106600
 H   -5.407561    0.470554   -0.028211
 H   -2.050939   -2.227296    0.033754
 H   -1.399630    2.026741   -0.028991
 H    3.251325    1.902394    0.022028
