27 
3tct_ligand_xtb.xyz
 O    6.647618   -0.040119   -0.467312
 O    5.783155    1.792757    0.418865
 C    4.143342   -1.393788    0.058455
 C    2.907126   -2.003165    0.073654
 C   -4.333181    0.267575   -0.020198
 C   -2.422804   -1.209870    0.015468
 C   -2.101029    1.190566   -0.019501
 C    3.169386    0.838796    0.022422
 N    0.449661   -1.462242    0.039694
 O    0.692233    0.762621    0.005818
 C    5.619038    0.672783    0.022405
 C   -3.791545   -1.010704    0.003216
 C   -3.475163    1.357856   -0.031719
 C    4.282454    0.003448    0.025419
 C   -1.577530   -0.100889    0.004338
 C   -0.144390   -0.309172    0.017830
 C    1.787632   -1.179954    0.044076
 C    1.934829    0.226901    0.022715
Cl   -4.849469   -2.368536    0.016546
Cl   -4.137155    2.947668   -0.062284
 H    6.375939   -0.902454   -0.808505
 H    5.022308   -2.022459    0.113515
 H    2.800731   -3.074441    0.110658
 H   -5.401621    0.410540   -0.029047
 H   -1.995355   -2.198678    0.033479
 H   -1.442543    2.044131   -0.028142
 H    3.292485    1.909429    0.017264
