24 
3tcy_ligand_xtb.xyz
 N   -0.931644    1.201411   -0.892687
 C   -1.323778   -0.167614   -0.469918
 C   -2.800762   -0.050667   -0.054915
 O   -3.283962    1.046798    0.064454
 C   -0.478887   -0.583227    0.753119
 C    0.978592   -0.349510    0.453587
 C    1.746178   -1.328810   -0.163242
 C    1.547874    0.896333    0.723913
 C    3.066421   -1.074984   -0.492751
 C    2.870683    1.147372    0.388425
 C    3.626975    0.164429   -0.225808
 O   -3.374725   -1.198668    0.160430
 H   -1.697894    1.812694   -0.507103
 H   -0.896889    1.324749   -1.907881
 H    0.003781    1.424618   -0.473495
 H   -1.199241   -0.888867   -1.278703
 H   -0.783816    0.003836    1.621833
 H   -0.670797   -1.633745    0.966809
 H    1.314710   -2.296854   -0.367943
 H    0.995922    1.642928    1.283804
 H    3.660008   -1.847578   -0.955026
 H    3.308365    2.106335    0.618007
 H    4.656516    0.357506   -0.481310
 H   -4.299434   -1.120466    0.456289
