73 
3tdc_ligand_ani.xyz
 C   -3.856930   -1.354587    0.044453
 C   -4.032574   -2.346278    1.030169
 C   -4.677185   -3.523035    0.704664
 C   -5.167902   -3.737742   -0.591924
 C   -5.029981   -2.765801   -1.566921
 C   -4.388425   -1.573401   -1.233666
 S   -4.154985   -0.193602   -2.280889
 C   -3.310059    0.660110   -1.011498
 N   -2.853082    1.949293   -1.279721
 C   -1.597823    2.414899   -0.915795
 O   -0.737627    1.689280   -0.432517
 N   -1.400079    3.736621   -1.189688
 C   -3.215843   -0.057536    0.143818
 C   -2.621886    0.472048    1.404345
 N   -1.683952   -0.331606    2.025793
 O   -2.944515    1.559626    1.860362
 C   -0.849355   -1.246279    1.230017
 C    0.561083   -1.322369    1.810647
 C   -1.081181    0.192988    3.250062
 C    0.239749    0.912407    2.945581
 C    1.184201    0.053271    2.065268
 N    1.533659    0.823648    0.799191
 C    2.398581    2.013503    1.095660
 C    3.868610    1.655243    1.269688
 C    4.396635    1.017821   -0.010780
 C    2.090816    0.068295   -0.366988
 C    3.603722   -0.250138   -0.385211
 C    4.001322   -1.412340    0.531456
 O    3.804762   -1.499716    1.714458
 O    4.654054   -2.379051   -0.145707
 C    3.985951   -0.810928   -1.766281
 C    4.952716   -1.978350   -1.508695
 C    6.421858   -1.575914   -1.577873
 C    4.668530   -3.180419   -2.395023
 C   -0.201897    4.417456   -0.719703
 C    0.190021    5.545660   -1.660299
 H   -3.655735   -2.181257    2.034777
 H   -4.803152   -4.291459    1.461829
 H   -5.668222   -4.672128   -0.830310
 H   -5.419733   -2.925796   -2.568359
 H   -3.404278    2.501994   -1.922006
 H   -2.222154    4.309615   -1.314460
 H   -0.827951   -0.878510    0.196303
 H   -1.306077   -2.243096    1.201968
 H    0.517356   -1.840240    2.774724
 H    1.212933   -1.937793    1.185896
 H   -0.918766   -0.640950    3.941997
 H   -1.802999    0.875726    3.697720
 H    0.739666    1.188945    3.881779
 H   -0.009927    1.845537    2.420755
 H    2.126586   -0.121190    2.580640
 H    0.634270    1.193551    0.447557
 H    2.294196    2.715488    0.256874
 H    2.013135    2.517598    1.985833
 H    4.428396    2.566900    1.501499
 H    3.992589    0.968686    2.112467
 H    4.294871    1.738848   -0.835915
 H    5.466088    0.794192    0.080639
 H    1.511381   -0.848786   -0.484771
 H    1.876923    0.680588   -1.252793
 H    3.088050   -1.190147   -2.268958
 H    4.423322   -0.049957   -2.420023
 H    6.682850   -1.285370   -2.602089
 H    7.055270   -2.417908   -1.281943
 H    6.649608   -0.733466   -0.917625
 H    4.815831   -2.921361   -3.450168
 H    5.341271   -4.007087   -2.145780
 H    3.637821   -3.519684   -2.254790
 H    0.591773    3.666378   -0.678539
 H   -0.335125    4.798756    0.304074
 H   -0.580283    6.324926   -1.684851
 H    0.328102    5.166038   -2.677100
 H    1.126139    6.011741   -1.335476
