26 
3tdj_ligand_dft.xyz
 C   -2.966843    2.424312    0.759831
 O   -0.004714   -2.505049   -1.322216
 O    0.804447   -2.688104    1.067827
 F    3.864001    1.397865    0.086772
 C    1.683114    2.269200   -0.125569
 C    0.314739    2.064014   -0.198104
 C    2.047736   -0.098608    0.059402
 C   -2.530844    1.667279   -0.493771
 C   -2.179289   -0.769178   -0.261659
 N   -1.473452   -1.724781    0.564472
 C    2.541410    1.187020    0.003027
 C   -0.243733    0.769350   -0.166679
 C    0.672801   -0.300128   -0.036123
 N   -1.613490    0.573766   -0.209861
 S    0.094154   -1.973721    0.024375
 H   -3.477982    1.750797    1.455430
 H   -2.106474    2.853484    1.282141
 H   -3.654270    3.236200    0.501037
 H    2.090943    3.273671   -0.156690
 H   -0.327767    2.932410   -0.272372
 H    2.717741   -0.941880    0.187324
 H   -2.083275    2.346314   -1.227672
 H   -3.408698    1.240275   -0.990616
 H   -3.211984   -0.717492    0.091775
 H   -2.183534   -1.169050   -1.283395
 H   -1.460992   -1.483228    1.552789
