17 
3tf6_ligand_ani.xyz
 C    2.031844   -0.200277   -0.084049
 O    2.424498   -1.145604   -0.708670
 C    0.604380    0.270225   -0.045245
 C    0.310269    1.635563   -0.153253
 C   -0.999624    2.083287   -0.180954
 C   -0.441930   -0.646980    0.045000
 O   -0.194843   -1.965603    0.168651
 C   -1.770686   -0.182193    0.035279
 C   -2.048985    1.166796   -0.078938
 O   -2.718515   -1.167570    0.142184
 O    2.899662    0.558819    0.629531
 H    1.130083    2.344813   -0.253663
 H   -1.215709    3.143871   -0.266793
 H   -1.046984   -2.423755    0.226803
 H   -3.082066    1.509072   -0.091639
 H   -3.599721   -0.774499    0.137267
 H    2.416367    1.201638    1.167413
