67 
3th9_ligand_ani.xyz
 C   -4.736520   -0.082765   -1.811999
 C   -5.480580   -0.038587   -0.645964
 C   -5.069561   -0.673677    0.515177
 C   -3.540556   -0.787868   -1.797436
 F   -6.643805    0.639457   -0.639620
 C   -3.864526   -1.382070    0.545315
 C   -3.106142   -1.416342   -0.633535
 S   -1.527379   -2.224361   -0.665871
 C   -3.401932   -2.021240    1.836238
 N   -0.628173   -1.399604    0.457035
 C   -2.177508   -1.349502    2.497928
 C   -0.837964   -1.757219    1.860574
 C   -2.350435    0.165309    2.595070
 C   -0.172173   -0.047979    0.126418
 O   -1.658570   -3.594845   -0.205526
 O   -0.932016   -1.956698   -1.974961
 C    1.239005   -0.034263   -0.475561
 C    2.018996    1.257356   -0.182111
 N    3.393122    1.102483   -0.622974
 C    1.449902    2.511737   -0.866385
 C    0.117940    3.007087   -0.350029
 C   -0.008273    3.473249    0.962141
 C   -1.241103    3.887130    1.457885
 C   -2.372507    3.840891    0.647012
 C   -2.258804    3.387094   -0.663950
 C   -1.020610    2.984623   -1.159756
 C    4.262238    0.359315    0.134210
 O    4.064822    0.015102    1.282624
 O    5.361308    0.083779   -0.595035
 O    1.241278   -0.201292   -1.873150
 C    6.455393   -0.674196   -0.001307
 C    7.041324    0.086683    1.184311
 C    5.980625   -2.068716    0.397284
 C    7.474792   -0.763501   -1.132220
 H   -5.093237    0.425435   -2.702241
 H   -5.694921   -0.609348    1.400348
 H   -2.929709   -0.853365   -2.692301
 H   -4.238486   -1.959452    2.540839
 H   -3.194553   -3.083349    1.674404
 H   -2.122394   -1.749885    3.520240
 H   -0.703778   -2.841311    1.930434
 H   -0.018734   -1.295057    2.422388
 H   -1.493726    0.632380    3.094861
 H   -3.250959    0.417378    3.165997
 H   -2.457286    0.616700    1.602439
 H   -0.163469    0.529543    1.054015
 H   -0.874860    0.426249   -0.568614
 H    1.800969   -0.852555    0.008122
 H    2.055325    1.403980    0.903987
 H    3.526665    0.980103   -1.618818
 H    2.210824    3.290177   -0.732278
 H    1.380980    2.304563   -1.940260
 H    0.868730    3.508927    1.607207
 H   -1.318856    4.243263    2.482431
 H   -3.336954    4.159665    1.033701
 H   -3.136478    3.345356   -1.305196
 H   -0.939289    2.616725   -2.181726
 H    0.594707   -0.895658   -2.091409
 H    7.949880   -0.419755    1.527417
 H    6.328019    0.130714    2.010309
 H    7.303816    1.107042    0.886341
 H    5.498034   -2.562680   -0.452493
 H    6.842884   -2.669995    0.705003
 H    5.271377   -2.016369    1.226043
 H    7.786345    0.237869   -1.445847
 H    8.361745   -1.315500   -0.805208
 H    7.044357   -1.280931   -1.995533
