50 
3ti4_ligand_xtb.xyz
 C    2.760506    0.039913    0.584795
 C    2.475987   -1.370680    0.055999
 C    0.982602   -1.657203    0.232768
 C    0.152035   -0.536402   -0.445167
 C    0.585398    0.835270    0.106684
 O    1.976325    0.995341   -0.080515
 C    4.218580    0.407963    0.355490
 O    5.022915   -0.352325    1.106285
 O    4.620220    1.249165   -0.393532
 C   -0.056347    2.040369   -0.622653
 C   -1.577984    2.208037   -0.409552
 C   -1.883111    2.579503    1.053312
 O   -3.288254    2.585580    1.304135
 C   -3.851152    1.423155    1.532210
 O   -3.302835    0.354843    1.567611
 O    0.504942    3.270920   -0.209226
 C    1.623683    3.724984   -0.951141
 O   -2.056818    3.194667   -1.278300
 N    0.634249   -2.946387   -0.312078
 C   -0.187734   -3.835069    0.374440
 N   -0.989400   -4.599416   -0.435568
 N   -0.261967   -4.008279    1.628900
 C   -1.909654   -1.570794   -1.219187
 C   -3.296054   -1.982428   -0.805220
 O   -1.399760   -1.880115   -2.278826
 N   -1.253513   -0.822367   -0.292427
 H    2.566996    0.068217    1.671274
 H    3.072595   -2.105441    0.595516
 H    2.730031   -1.414666   -1.004564
 H    0.743310   -1.663415    1.305084
 H    0.357775   -0.558420   -1.523255
 H    0.360832    0.883983    1.185215
 H    5.952795   -0.123801    0.943480
 H    0.114810    1.900518   -1.699904
 H   -2.105550    1.291231   -0.680934
 H   -1.406303    1.872339    1.735506
 H   -1.534022    3.591984    1.257501
 H   -4.928789    1.565382    1.709024
 H    2.482919    3.064583   -0.832268
 H    1.373944    3.808724   -2.014626
 H    1.855458    4.711057   -0.552376
 H   -1.516453    3.986227   -1.145651
 H    0.463287   -2.914501   -1.309560
 H   -1.349217   -5.431716    0.000696
 H   -0.746306   -4.676489   -1.408665
 H    0.331236   -3.403864    2.184214
 H   -3.918100   -2.113029   -1.685886
 H   -3.215173   -2.940671   -0.293252
 H   -3.739422   -1.260745   -0.126706
 H   -1.686646   -0.686649    0.610624
