50 
3ti4_ligand_ani.xyz
 C    1.835843    1.855148    0.523958
 C    2.618545    0.620699    0.082875
 C    1.740773   -0.624796    0.212158
 C    0.360941   -0.400135   -0.465021
 C   -0.273565    0.906401    0.036524
 O    0.642745    1.954351   -0.199658
 C    2.593643    3.157852    0.311595
 O    3.837198    3.085409    0.822914
 O    2.160626    4.154691   -0.208504
 C   -1.572107    1.346380   -0.671622
 C   -2.831597    0.514318   -0.393769
 C   -3.230097    0.548910    1.084842
 O   -4.267676   -0.411145    1.367294
 C   -3.865818   -1.642295    1.656731
 O   -2.719850   -2.026810    1.654871
 O   -1.954757    2.655310   -0.287010
 C   -1.308331    3.728028   -0.959032
 O   -3.871295    1.000090   -1.221176
 N    2.408489   -1.771386   -0.375792
 C    3.281729   -2.552158    0.356256
 N    3.635268   -3.726781   -0.312381
 N    3.759283   -2.336978    1.526169
 C   -0.523014   -2.588710   -1.142442
 C   -1.555958   -3.651281   -0.853082
 O    0.240434   -2.645594   -2.105527
 N   -0.499625   -1.551373   -0.266761
 H    1.619915    1.781578    1.604684
 H    3.531334    0.522370    0.677370
 H    2.913395    0.732179   -0.966464
 H    1.543420   -0.830948    1.279122
 H    0.529949   -0.301953   -1.544309
 H   -0.451699    0.842748    1.122642
 H    4.250445    3.951192    0.668864
 H   -1.395116    1.328903   -1.760304
 H   -2.672136   -0.521601   -0.691583
 H   -2.389734    0.339432    1.751444
 H   -3.664860    1.519748    1.328886
 H   -4.725558   -2.279335    1.907182
 H   -0.356461    3.988074   -0.488048
 H   -1.132946    3.477069   -2.014440
 H   -1.992321    4.581970   -0.907814
 H   -3.899433    1.954173   -1.052267
 H    1.935181   -2.228008   -1.150712
 H    4.395256   -4.187067    0.170742
 H    3.825245   -3.610340   -1.298978
 H    3.415838   -1.466191    1.922501
 H   -2.564087   -3.267134   -1.044130
 H   -1.373980   -4.501715   -1.512131
 H   -1.519059   -3.970950    0.191272
 H   -1.111810   -1.589144    0.542358
