45 
3ti5_ligand_ani.xyz
 C    0.450245    3.089542    0.545828
 O   -0.417341    2.945000    1.372903
 O    1.528731    3.864859    0.760983
 C    0.510441    2.465836   -0.846569
 C    1.708463    1.531817   -1.015947
 C    1.515363    0.232062   -0.239901
 C    0.144934   -0.400532   -0.575105
 N   -0.095804   -1.543902    0.283999
 C    0.255827   -2.808831   -0.054760
 O    0.938304   -3.058764   -1.047582
 C   -0.225376   -3.893800    0.883957
 C   -0.978691    0.627486   -0.407176
 O   -0.688955    1.805023   -1.178699
 C   -2.358681    0.202278   -0.941178
 O   -3.215239    1.336630   -0.950801
 C   -3.144933   -0.863065   -0.160350
 O   -4.400084   -1.031847   -0.793984
 C   -3.372302   -0.495891    1.307728
 O   -2.191943   -0.778354    2.057694
 N    2.579556   -0.705917   -0.551044
 C    3.779804   -0.680172    0.135859
 N    4.209672    0.194421    0.968410
 N    4.575890   -1.792455   -0.145604
 H    1.426312    4.234822    1.654021
 H    0.613006    3.302113   -1.548426
 H    2.623145    2.039563   -0.698585
 H    1.811081    1.285287   -2.078505
 H    1.518606    0.441157    0.843796
 H    0.169733   -0.746478   -1.616352
 H   -0.676692   -1.382659    1.102244
 H    0.573921   -4.150189    1.587448
 H   -1.109510   -3.592445    1.455257
 H   -0.450815   -4.785559    0.294178
 H   -1.064486    0.913600    0.645822
 H   -2.230701   -0.167883   -1.973570
 H   -2.666641    2.082251   -1.237511
 H   -2.637121   -1.827555   -0.216850
 H   -4.733327   -0.136039   -0.956971
 H   -3.632269    0.570678    1.365948
 H   -4.216570   -1.091328    1.678991
 H   -2.263600   -0.350991    2.919239
 H    2.289795   -1.619723   -0.892984
 H    3.537780    0.943133    1.115796
 H    5.506604   -1.660144    0.227179
 H    4.588210   -2.067390   -1.118922
