47 
3ti6_ligand_xtb.xyz
 C   -2.577423   -1.908119   -0.451259
 O   -3.306375   -1.041479   -0.886200
 O   -2.384436   -3.052263   -1.066491
 C   -1.798336   -1.825542    0.850774
 C   -2.182382   -0.615988    1.710276
 C   -1.805053    0.731749    1.077485
 C   -0.635186    0.575748    0.090083
 N    0.092779    1.813585   -0.137335
 C   -0.400486    2.943360   -0.665711
 O   -1.610205    3.147409   -0.797748
 C    0.618285    3.966139   -1.059298
 C    0.362061   -0.463727    0.639766
 C   -0.276397   -1.864489    0.596453
 O    1.510772   -0.363456   -0.162288
 C    2.683697   -1.066111    0.267781
 C    3.620925   -1.083251   -0.942759
 C    3.330851   -0.439839    1.514056
 C    3.650169    1.044574    1.376039
 C    3.095585   -1.986063   -2.052238
 N   -2.951825    1.311433    0.341563
 H   -2.895659   -3.124924   -1.890824
 H   -2.069330   -2.736539    1.393430
 H   -1.675887   -0.722030    2.669305
 H   -3.255464   -0.633785    1.907989
 H   -1.511243    1.440739    1.858329
 H   -1.018114    0.209442   -0.872310
 H    1.094351    1.654511   -0.187680
 H    1.103457    3.653298   -1.982787
 H    0.127212    4.919380   -1.233337
 H    1.379782    4.077703   -0.292004
 H    0.600749   -0.192736    1.679378
 H    0.196113   -2.495522    1.347882
 H   -0.070733   -2.304938   -0.380398
 H    2.411358   -2.102562    0.510815
 H    3.720602   -0.066802   -1.323189
 H    4.602201   -1.429921   -0.619977
 H    2.677295   -0.587886    2.377674
 H    4.249396   -0.992262    1.712124
 H    4.148358    1.396851    2.275375
 H    2.741559    1.629661    1.243839
 H    4.308381    1.224029    0.531403
 H    2.112803   -1.652964   -2.376428
 H    3.766803   -1.960305   -2.905780
 H    3.020486   -3.014730   -1.706973
 H   -3.689710    1.646330    0.960408
 H   -2.528484    2.153456   -0.247974
 H   -3.328852    0.565048   -0.284746
