48 
3ti8_ligand_dft.xyz
 C   -0.796132    2.358381    0.664775
 C   -1.674744    1.198800    1.126227
 C   -1.561063    0.015476    0.158362
 C   -0.081795   -0.386770    0.043955
 C    0.729401    0.853462   -0.386341
 O    0.537536    1.947431    0.494479
 C   -1.326967    3.036433   -0.600049
 O   -2.611876    3.401261   -0.444559
 O   -0.700912    3.243815   -1.609574
 C    2.252572    0.695775   -0.485220
 C    3.004141    0.095914    0.707541
 C    2.738849    0.731724    2.065623
 O    3.597699    0.176535    3.033941
 O    2.535232   -0.121696   -1.623941
 C    3.557338    0.382582   -2.458987
 O    2.718573   -1.284011    0.853927
 N   -2.370375   -1.089959    0.608872
 C   -3.724969   -1.133672    0.335254
 N   -4.465844   -0.226423   -0.191549
 N   -4.295781   -2.351763    0.693757
 C    0.090558   -2.757037   -0.621989
 C    0.673112   -3.709472   -1.645381
 O   -0.408260   -3.171679    0.418717
 N    0.146293   -1.437092   -0.940371
 H   -0.768762    3.131421    1.439716
 H   -2.716651    1.511744    1.224209
 H   -1.330396    0.873191    2.113669
 H   -1.885718    0.331992   -0.849019
 H    0.266679   -0.752671    1.015668
 H    0.395420    1.139324   -1.394061
 H   -2.883659    3.835496   -1.269504
 H    2.629199    1.712971   -0.655627
 H    4.080040    0.225301    0.501285
 H    2.939179    1.805388    2.025994
 H    1.683428    0.599498    2.338332
 H    3.476746   -0.781027    2.978568
 H    3.714588   -0.353962   -3.249440
 H    4.497655    0.520535   -1.909147
 H    3.262313    1.339445   -2.908832
 H    2.836342   -1.681667   -0.019122
 H   -1.884873   -1.981254    0.686897
 H   -3.922110    0.574542   -0.503598
 H   -3.946751   -2.746665    1.557042
 H   -5.305097   -2.298739    0.669213
 H    1.444025   -4.311196   -1.155877
 H    1.104207   -3.210380   -2.517377
 H   -0.112720   -4.393192   -1.976329
 H    0.701126   -1.176270   -1.744174
