48 
3tia_ligand_dft.xyz
 C   -0.086138    2.000856   -0.482509
 C   -1.411558    1.741164    0.238450
 C   -1.835484    0.277131    0.046977
 C   -0.668781   -0.659898    0.406768
 C    0.613413   -0.231238   -0.331630
 O    0.901293    1.120149   -0.025741
 C    0.430778    3.409446   -0.251081
 O   -0.453495    4.315929   -0.708698
 O    1.476660    3.707011    0.264187
 C    1.814674   -1.091583    0.052592
 C    3.131094   -0.548009   -0.519581
 C    3.778652    0.544323    0.324805
 O    5.057318    0.761163   -0.269925
 O    1.826269   -1.241935    1.458369
 C    2.496288   -2.396725    1.914571
 O    4.025851   -1.640728   -0.638582
 N   -3.003850   -0.071142    0.831361
 C   -4.281230    0.323941    0.433817
 N   -5.219015    0.097053    1.444321
 N   -4.659321    0.837735   -0.673271
 C   -1.332181   -2.569585   -1.037480
 C   -1.744771   -4.028774   -1.037207
 O   -1.324510   -1.903692   -2.063546
 N   -0.983592   -2.058547    0.175999
 H   -0.237240    1.879816   -1.569377
 H   -2.193377    2.413037   -0.126835
 H   -1.268005    1.939706    1.308645
 H   -2.074721    0.094859   -1.005036
 H   -0.449836   -0.561325    1.474246
 H    0.454281   -0.338203   -1.414017
 H   -0.069654    5.189853   -0.533106
 H    1.660586   -2.074511   -0.418033
 H    2.922160   -0.129079   -1.517852
 H    3.167842    1.451147    0.318274
 H    3.883397    0.188199    1.357875
 H    5.553090    1.364240    0.292978
 H    2.077345   -3.302768    1.450067
 H    2.341154   -2.442588    2.995537
 H    3.567410   -2.364114    1.692745
 H    4.899123   -1.233724   -0.746069
 H   -2.866613    0.032892    1.830283
 H   -5.145651   -0.819715    1.868489
 H   -6.153523    0.272076    1.096776
 H   -3.876218    1.057765   -1.283542
 H   -1.461264   -4.565408   -0.127247
 H   -1.290736   -4.517540   -1.901375
 H   -2.831192   -4.085570   -1.156041
 H   -1.051532   -2.654194    0.984264
