50 
3tib_ligand_ani.xyz
 C   -0.405176    2.451712    0.801712
 C   -1.772796    1.779341    0.937792
 C   -1.833000    0.456878    0.175173
 C   -0.612695   -0.420496    0.528154
 C    0.679702    0.387350    0.381183
 O    0.624569    1.565812    1.179210
 C   -0.139365    3.042922   -0.584289
 O   -1.136666    3.861405   -0.956306
 O    0.833868    2.852236   -1.276412
 C    1.916175   -0.396724    0.828886
 C    3.253041    0.282390    0.438802
 C    3.479815    0.369532   -1.070101
 O    3.736955   -0.939675   -1.625557
 C    2.764069   -1.570735   -2.264889
 O    1.607814   -1.223206   -2.343336
 O    1.812545   -0.511690    2.228880
 C    2.497673   -1.612881    2.778552
 O    3.409694    1.559338    1.009210
 N   -3.053097   -0.266985    0.487508
 C   -4.228645   -0.018635   -0.200102
 N   -4.487163    0.916815   -1.036547
 N   -5.218316   -0.959933    0.089021
 C   -1.121451   -2.753296   -0.080028
 C   -0.827284   -3.870254   -1.058217
 O   -1.868647   -2.908461    0.885350
 N   -0.527820   -1.567525   -0.354181
 H   -0.359927    3.299537    1.497360
 H   -1.947935    1.570715    1.998977
 H   -2.555733    2.459547    0.594430
 H   -1.792259    0.656577   -0.910223
 H   -0.710504   -0.769801    1.561652
 H    0.774457    0.674799   -0.671539
 H   -0.892137    4.219019   -1.826608
 H    1.895153   -1.398986    0.379325
 H    4.059978   -0.351149    0.832641
 H    2.649824    0.849742   -1.596669
 H    4.393228    0.942659   -1.237927
 H    3.147559   -2.490722   -2.731833
 H    3.589257   -1.522830    2.673433
 H    2.175070   -2.555450    2.312117
 H    2.250657   -1.639736    3.842651
 H    2.520787    1.922434    1.158031
 H   -2.933158   -1.227979    0.802967
 H   -3.686175    1.523631   -1.187943
 H   -5.278749   -1.221483    1.064247
 H   -6.108785   -0.657971   -0.283296
 H    0.094803   -3.699876   -1.622840
 H   -1.659473   -3.960483   -1.764164
 H   -0.755892   -4.808156   -0.502576
 H    0.073294   -1.479334   -1.166884
