45 
3tic_ligand_dft.xyz
 C    0.021651    3.037374    0.594465
 O   -0.972750    2.942937    1.269009
 O    1.121622    3.700645    0.990015
 C    0.206463    2.465069   -0.812302
 C    1.503108    1.682114   -0.987385
 C    1.435797    0.358789   -0.221009
 C    0.180250   -0.424835   -0.641593
 N    0.010464   -1.632618    0.138191
 C    0.559309   -2.822604   -0.211076
 O    1.298483   -2.952617   -1.183959
 C    0.196444   -3.991897    0.678957
 C   -1.074116    0.453927   -0.483789
 O   -0.899527    1.682324   -1.188263
 C   -2.363632   -0.193121   -1.080184
 O   -3.109607    0.765484   -1.807834
 C   -3.395779   -0.701228   -0.054859
 O   -3.796393    0.362460    0.783844
 C   -3.013959   -1.838809    0.880837
 O   -2.141062   -1.406901    1.912099
 N    2.621931   -0.429570   -0.453856
 C    3.780588   -0.207619    0.268181
 N    4.750794   -1.173891    0.018424
 N    4.034165    0.734992    1.101872
 H    0.932799    4.061308    1.871734
 H    0.200922    3.324193   -1.491982
 H    1.632601    1.461420   -2.051917
 H    2.364606    2.269813   -0.662055
 H    1.331377    0.567443    0.858646
 H    0.287238   -0.712475   -1.694827
 H   -0.547280   -1.561150    0.988207
 H    1.116794   -4.431539    1.071973
 H   -0.296773   -4.754674    0.069699
 H   -0.455380   -3.714296    1.511704
 H   -1.237196    0.682891    0.574068
 H   -2.073114   -1.025833   -1.739352
 H   -2.489023    1.464430   -2.064085
 H   -4.242645   -1.050113   -0.666208
 H   -3.879802    1.135833    0.205102
 H   -2.508646   -2.639164    0.332979
 H   -3.930718   -2.249699    1.322068
 H   -2.494731   -0.552666    2.207270
 H    2.463732   -1.373930   -0.795270
 H    4.818640   -1.471077   -0.946052
 H    5.643351   -0.896955    0.404294
 H    3.218890    1.316239    1.280846
