24 
3tiy_ligand_ani.xyz
 C   -2.506556    0.842677   -0.000743
 C   -2.295206   -0.536771    0.000017
 O   -0.962873   -2.385571    0.000956
 C   -0.999741   -1.034236    0.000555
 C    0.147222   -0.192233    0.000520
 C   -0.085463    1.211494    0.000424
 C    0.898142    2.284488    0.001678
 C    2.243819    2.260990    0.001445
 C    3.110217    1.122483   -0.000393
 C    2.775749   -0.191716   -0.000968
 C    1.455284   -0.863272    0.000389
 O    1.545710   -2.116535    0.001234
 O    3.790181   -1.076779   -0.002673
 C   -1.412623    1.679815   -0.000488
 O   -3.797238    1.268988   -0.001652
 O   -3.363935   -1.369292    0.000137
 H   -0.014232   -2.645505    0.001568
 H    0.440189    3.272688    0.002852
 H    2.759415    3.220293    0.002653
 H    4.180442    1.315926   -0.001297
 H    3.353001   -1.950631   -0.001708
 H   -1.586306    2.755134   -0.000957
 H   -3.804335    2.235089   -0.002587
 H   -3.007997   -2.271800    0.000845
