24 
3tiy_ligand_dft.xyz
 C   -2.509486    0.836103   -0.000020
 C   -2.294613   -0.543853    0.000005
 O   -0.940550   -2.378844   -0.000081
 C   -0.993418   -1.035064    0.000168
 C    0.153437   -0.178606   -0.000057
 C   -0.090486    1.235852    0.000127
 C    0.891108    2.289609    0.000248
 C    2.245709    2.247046    0.000055
 C    3.106496    1.118692   -0.000251
 C    2.776384   -0.199106   -0.000308
 C    1.444403   -0.841621   -0.000541
 O    1.525078   -2.099621    0.000222
 O    3.774294   -1.094976    0.000260
 C   -1.419627    1.690932    0.000029
 O   -3.789909    1.257768   -0.000007
 O   -3.345101   -1.389071   -0.000005
 H    0.020266   -2.625382    0.000026
 H    0.457450    3.286589    0.000567
 H    2.752885    3.208202    0.000063
 H    4.174873    1.316245   -0.000336
 H    3.326865   -1.966986    0.000299
 H   -1.601052    2.762696    0.000031
 H   -3.805966    2.222680   -0.000750
 H   -2.975262   -2.286003    0.000265
