46 
3tjc_ligand_ani.xyz
 C   -6.053551   -1.619643    0.949839
 N    4.819287    2.263369    0.182762
 O   -6.930867   -0.586418    1.357818
 S    1.578627   -0.863631   -0.014078
 C   -1.530901   -0.838451   -1.036700
 N    3.198805    3.889600   -0.056504
 O    3.891587   -2.389322    0.577948
 C   -6.401600    0.696591    1.077936
 N    6.024025   -1.801775    0.052074
 C   -6.086847    0.838306   -0.413489
 N   -5.174451   -0.204498   -0.872547
 C   -3.245600    1.099722   -0.030932
 C   -5.744754   -1.511832   -0.544047
 C    1.113249    1.670441   -0.222057
 C    2.529775    1.558246   -0.040473
 C    2.935354    0.217558    0.063997
 C    3.532232    2.559728    0.045874
 C    4.299507   -0.095951    0.183455
 C    4.710529   -1.527053    0.289850
 C    5.177413    0.975576    0.247703
 C    0.465724    0.470798   -0.227177
 C    6.488457   -3.173591    0.017615
 C   -0.983671    0.275658   -0.388460
 C   -2.899782   -0.987824   -1.168061
 C   -3.792942   -0.027691   -0.665233
 C   -1.872083    1.237936    0.099385
 H   -6.560680   -2.564264    1.172707
 H   -5.117685   -1.582444    1.531955
 H   -0.877548   -1.600424   -1.451703
 H    3.943854    4.515302    0.216359
 H    2.291474    4.148889    0.299721
 H   -5.495026    0.872335    1.680238
 H   -7.164111    1.419177    1.386847
 H    6.581476   -1.110390   -0.422785
 H   -5.683668    1.826045   -0.656714
 H   -7.021860    0.721269   -0.975972
 H   -3.880961    1.879545    0.373290
 H   -6.679969   -1.622932   -1.107236
 H   -5.071872   -2.314687   -0.853711
 H    0.591791    2.608182   -0.399142
 H    6.245005    0.813917    0.396205
 H    5.937524   -3.739915    0.769563
 H    6.317932   -3.647954   -0.956706
 H    7.554278   -3.201322    0.254266
 H   -3.284955   -1.850966   -1.702101
 H   -1.485499    2.116642    0.609390
