48 
3tkm_ligand_ani.xyz
 C   -2.013315   -1.625387   -2.196801
 C   -1.584126    0.896597    2.473147
 O   -6.987965   -3.268387    1.393053
 O   -6.945919   -2.342148   -0.637431
 F    4.748297   -2.308624    1.365764
 F    6.437048   -2.554081   -0.873993
 F    7.317347   -0.634557   -1.361896
 F    7.361935   -1.366923    0.677174
 C   -4.248775    1.399705   -0.078586
 C    3.715578    1.168454   -0.551981
 C   -4.634647    0.066198   -0.004108
 C    4.934526    0.561901   -0.813629
 C   -2.421851    0.773310   -1.512209
 C    3.181106   -0.591328    1.022502
 C   -4.831437   -2.795898    0.481838
 C   -1.621602    3.514760    0.695357
 N    0.671416    0.645081    1.484842
 O   -4.275110   -2.238339   -0.692740
 S   -2.564865    3.450622   -0.876605
 S    0.977726    2.681823   -0.046948
 C   -6.362182   -2.831268    0.466520
 C   -2.789365   -0.567616   -1.460574
 C   -0.480783    1.383361    1.584424
 C   -3.123991    1.759924   -0.818508
 C    4.399884   -1.174194    0.745663
 C    2.833033    0.592966    0.365847
 C   -3.903979   -0.906987   -0.680848
 C   -0.511871    2.524148    0.826480
 C    5.290158   -0.617913   -0.167623
 C    1.524721    1.189624    0.667426
 C    6.602349   -1.295096   -0.430727
 H   -2.658710   -2.205895   -2.865225
 H   -1.217231   -1.172127   -2.794848
 H   -1.552776   -2.335500   -1.499642
 H   -1.236375    0.029878    3.037670
 H   -1.905613    1.669601    3.181120
 H   -2.460968    0.604809    1.882439
 H   -6.249957   -2.105167   -1.273484
 H   -4.812826    2.158587    0.457302
 H    3.455839    2.087326   -1.066200
 H   -5.514786   -0.202204    0.572653
 H    5.622197    1.002077   -1.527079
 H   -1.556150    1.057874   -2.106413
 H    2.503958   -1.046651    1.736563
 H   -4.504793   -2.263306    1.382494
 H   -4.473281   -3.827481    0.553342
 H   -2.331309    3.388248    1.520630
 H   -1.243170    4.542336    0.743496
