71 
3ts4_ligand_xtb.xyz
 O   -4.121688    0.591293    1.616871
 S    1.801900    1.946873   -2.527577
 C   -4.283504    0.876944    0.441114
 C   -4.968756    2.153353   -0.005233
 C   -4.147503    3.372212    0.455341
 C   -1.759503    2.962838    1.104345
 C   -0.964314    2.867885   -1.535469
 C   -0.031525    2.588246   -0.535750
 C   -0.448367    2.671723    0.793535
 C    1.308978    2.153796   -0.868834
 C    2.312196    1.760447   -0.026061
 C    3.465312    1.268540   -0.687210
 C    4.642697    0.752057    0.009064
 C    5.353402   -0.329272   -0.507511
 C    6.458815   -0.823884    0.158070
 C    6.872046   -0.247787    1.348165
 C    6.171862    0.826973    1.869978
 C    5.064569    1.322969    1.207833
 C   -2.697453    3.186355    0.105992
 C   -2.273189    3.161368   -1.218090
 C    3.320252    1.313525   -2.044811
 N   -3.904635    0.061058   -0.564700
 C   -3.150568   -1.153708   -0.334224
 C   -1.657907   -0.832147   -0.473772
 O   -1.235514   -0.034197   -1.290492
 C   -3.567990   -2.237915   -1.337498
 C   -3.004299   -3.614710   -0.981761
 C   -1.514645   -3.702211   -1.257082
 O   -0.871265   -4.366576   -0.305812
 O   -0.977473   -3.226581   -2.223780
 N   -0.882159   -1.481717    0.403354
 C    0.546792   -1.252420    0.531116
 C    1.222542   -2.071109   -0.584457
 O    1.617635   -3.211172   -0.412037
 C    0.994204   -1.654795    1.932113
 C    0.370680   -0.759711    3.011518
 C   -1.147315   -0.796702    2.962878
 O   -1.667061    0.403579    2.787421
 O   -1.803004   -1.807525    3.049676
 N    1.275892   -1.423639   -1.753347
 H   -5.958308    2.192664    0.453552
 H   -5.083225    2.159498   -1.089080
 H   -4.247028    3.477256    1.536086
 H   -4.549912    4.269333   -0.020406
 H   -2.062673    2.991295    2.139828
 H   -0.658566    2.824290   -2.570301
 H    0.248493    2.488813    1.595719
 H    2.238305    1.794323    1.045869
 H    5.022031   -0.792247   -1.425000
 H    6.998691   -1.665432   -0.250414
 H    7.735853   -0.635531    1.867462
 H    6.491279    1.281852    2.796456
 H    4.533112    2.172489    1.611646
 H   -2.980583    3.360706   -2.011265
 H    4.033612    1.035712   -2.794733
 H   -3.844444    0.430276   -1.501788
 H   -3.368726   -1.474688    0.690116
 H   -4.658299   -2.286973   -1.353678
 H   -3.213109   -1.957722   -2.332140
 H   -3.487846   -4.368303   -1.607821
 H   -3.190630   -3.867775    0.062166
 H    0.105596   -4.327035   -0.427777
 H   -1.271599   -2.207813    0.988283
 H    0.728645   -0.187669    0.349244
 H    2.081454   -1.585001    1.985656
 H    0.713558   -2.695109    2.107721
 H    0.690377   -1.115480    3.992161
 H    0.690505    0.273940    2.885211
 H   -2.640114    0.384124    2.610096
 H    0.682475   -0.613709   -1.889571
 H    1.508876   -1.963691   -2.573777
