72 
3tsk_ligand_ani.xyz
 O    4.150419   -0.639469    0.027211
 S   -2.787155   -3.232236    1.003600
 C    3.920753   -0.765532   -1.173114
 C    4.354637   -2.005678   -1.932511
 C    3.793478   -3.290066   -1.287967
 C    1.395228   -2.946580   -2.026125
 C    0.494788   -3.121304    0.593200
 C   -0.402117   -2.773471   -0.421144
 C    0.057600   -2.716739   -1.737024
 C   -1.795446   -2.393388   -0.135285
 C   -2.458472   -1.317704   -0.655325
 C   -3.787714   -1.152190   -0.139245
 C   -4.704306   -0.057001   -0.528089
 C   -4.618100    0.504757   -1.803576
 C   -5.453309    1.550335   -2.178754
 C   -6.385642    2.057349   -1.278055
 C   -6.479904    1.506405   -0.002736
 C   -5.648802    0.455335    0.369045
 C    2.311561   -3.210138   -1.007355
 C    1.836605   -3.317985    0.303315
 C   -4.091474   -2.133123    0.761890
 N    3.278360    0.200336   -1.888484
 C    2.646164    1.316254   -1.208289
 C    1.272664    0.901369   -0.647138
 O    0.376228    0.484215   -1.368331
 C    2.483806    2.498692   -2.166742
 C    1.757935    3.692939   -1.537137
 C    2.485918    4.163073   -0.283402
 O    3.681936    4.411022   -0.297539
 N    1.715076    4.278562    0.829498
 N    1.142818    1.059449    0.697534
 C   -0.105997    0.814145    1.385023
 C   -1.180052    1.849352    0.980999
 O   -0.908390    2.955024    0.538284
 C    0.102513    0.839311    2.907203
 C    0.970931   -0.312326    3.438899
 C    2.382868   -0.224318    2.902602
 O    3.042364    0.794987    2.966229
 O    2.804355   -1.345927    2.319690
 N   -2.457065    1.452190    1.214922
 H    4.043360   -1.931345   -2.979331
 H    5.450171   -2.040029   -1.921567
 H    4.317998   -3.467647   -0.342529
 H    4.021837   -4.137696   -1.946573
 H    1.725922   -2.904350   -3.062212
 H    0.144021   -3.215507    1.617654
 H   -0.637125   -2.478493   -2.539657
 H   -1.959053   -0.599442   -1.303775
 H   -3.901155    0.096305   -2.512691
 H   -5.372004    1.970796   -3.177806
 H   -7.037777    2.876845   -1.568932
 H   -7.206796    1.892797    0.706316
 H   -5.730120    0.045664    1.374200
 H    2.528565   -3.500079    1.121911
 H   -5.032752   -2.287299    1.272827
 H    2.881395   -0.052138   -2.783252
 H    3.314598    1.595827   -0.387970
 H    1.925761    2.160060   -3.047250
 H    3.483230    2.809566   -2.486588
 H    0.710779    3.459398   -1.312979
 H    1.764948    4.527350   -2.250645
 H    0.765969    3.912853    0.855245
 H    2.176683    4.517420    1.695442
 H    1.890613    1.510491    1.210129
 H   -0.461065   -0.178523    1.070862
 H    0.569496    1.792436    3.182078
 H   -0.874374    0.805364    3.401211
 H    1.036819   -0.233065    4.530019
 H    0.533883   -1.286426    3.195884
 H    3.532094   -1.112841    1.699106
 H   -2.674739    0.486062    1.411742
 H   -3.203019    1.998201    0.803902
