55 
3tti_ligand_ani.xyz
 C   -2.606221   -1.483488   -0.073102
 F    3.519480   -1.652704    1.641281
 N   -2.071331   -2.684222   -0.409127
 O   -7.798964    1.076137   -0.054696
 C   -0.632315   -0.475928    0.016406
 F    7.805838   -1.618091   -0.245190
 N   -1.941672   -0.338584    0.152331
 O    1.804565    3.352374   -0.185820
 C    0.056591   -1.646245   -0.315782
 F    4.623498    1.556235   -1.608062
 N    0.328986    0.494977    0.179664
 C   -0.754493   -2.769041   -0.529977
 N    1.422830   -1.412952   -0.348443
 C    1.541024   -0.140420   -0.063797
 N    2.727745    0.555840    0.014482
 C    3.986862   -0.055441   -0.031066
 N   -3.959191   -1.445130    0.033399
 C   -4.642688   -0.322072    0.671469
 C   -5.982296   -0.789951    1.248393
 C   -6.998799   -1.140093    0.157314
 C   -7.203346    0.025716   -0.808231
 C   -5.865344    0.470036   -1.406604
 C   -4.863205    0.835488   -0.313134
 C    0.043920    1.910014    0.424400
 C    0.589730    2.822936   -0.689395
 C    1.548870    3.651242    1.181081
 C    0.734220    2.457175    1.694669
 C    4.965849    0.482928   -0.863622
 C    6.248159   -0.016958   -0.970120
 C    6.570448   -1.102829   -0.172422
 C    5.662506   -1.667516    0.706262
 C    4.388184   -1.127895    0.768686
 H   -7.950743    1.817660   -0.654190
 H   -0.346685   -3.743170   -0.798472
 H    2.729409    1.501905   -0.350733
 H   -4.390677   -2.358387    0.060867
 H   -3.995967    0.042905    1.478035
 H   -5.816079   -1.645930    1.913513
 H   -6.395725    0.018363    1.862474
 H   -7.960441   -1.407279    0.606794
 H   -6.660250   -2.015006   -0.413150
 H   -7.884584   -0.290352   -1.616348
 H   -6.022352    1.322185   -2.081407
 H   -5.467322   -0.351162   -2.014859
 H   -5.247153    1.692327    0.254763
 H   -3.899888    1.124604   -0.743000
 H   -1.044976    1.963447    0.479201
 H   -0.122545    3.633500   -0.906622
 H    0.801517    2.273135   -1.609382
 H    2.513693    3.770319    1.682423
 H    0.984283    4.592358    1.271567
 H    0.017116    2.746757    2.467679
 H    1.399664    1.696899    2.109815
 H    6.967803    0.432479   -1.644129
 H    5.930243   -2.510065    1.332317
