55 
3tti_ligand_dft.xyz
 C   -2.565747   -1.415057    0.168242
 F    3.710688   -1.304079    1.896981
 N   -2.017478   -2.633367   -0.033061
 O   -7.842360    0.903224   -0.530201
 C   -0.601404   -0.391456    0.194819
 F    7.608534   -1.846493   -0.640732
 N   -1.912732   -0.245107    0.293459
 O    1.839905    3.344893   -0.192302
 C    0.101546   -1.582349   -0.014476
 F    4.363301    1.276638   -1.952692
 N    0.352460    0.598696    0.280654
 C   -0.690925   -2.716084   -0.124362
 N    1.467999   -1.342865   -0.072820
 C    1.570215   -0.057430    0.108052
 N    2.748779    0.655151    0.175637
 C    3.971222   -0.003924   -0.035995
 N   -3.926951   -1.391659    0.244816
 C   -4.695277   -0.237481    0.688930
 C   -6.071710   -0.702924    1.178511
 C   -6.959271   -1.215592    0.037878
 C   -7.098812   -0.180431   -1.075777
 C   -5.721976    0.273436   -1.572889
 C   -4.855017    0.803720   -0.430858
 C    0.056552    1.999020    0.533128
 C    0.541741    2.932253   -0.587655
 C    1.746146    3.619927    1.202793
 C    0.781108    2.565651    1.780389
 C    4.792565    0.326053   -1.111520
 C    6.025413   -0.264045   -1.335565
 C    6.428274   -1.246987   -0.445815
 C    5.659458   -1.627399    0.643481
 C    4.447315   -0.984886    0.835500
 H   -7.874792    1.600658   -1.195655
 H   -0.264937   -3.703951   -0.284506
 H    2.699919    1.618866   -0.152147
 H   -4.343899   -2.308247    0.297968
 H   -4.156808    0.232407    1.522061
 H   -5.952507   -1.475197    1.948283
 H   -6.569151    0.149801    1.651044
 H   -7.954281   -1.463125    0.421713
 H   -6.546001   -2.134446   -0.397680
 H   -7.657398   -0.629603   -1.912202
 H   -5.842503    1.041065   -2.349842
 H   -5.221779   -0.578546   -2.050005
 H   -5.322135    1.697609   -0.000146
 H   -3.865317    1.090095   -0.797402
 H   -1.029848    2.034297    0.635346
 H   -0.124127    3.804648   -0.664687
 H    0.614568    2.445415   -1.561711
 H    2.754028    3.563575    1.617544
 H    1.357878    4.637832    1.345850
 H    0.070452    3.007018    2.482470
 H    1.318219    1.768133    2.297318
 H    6.638211    0.022891   -2.180434
 H    5.996113   -2.390759    1.333158
