54 
3ttj_ligand_ani.xyz
 C   -0.413474   -0.772262   -0.369031
 F   -4.341294   -0.532529    1.958610
 N    0.638009   -3.236966   -0.434016
 O    6.919253    1.301506    0.331384
 C   -1.293729   -1.862841   -0.380244
 N    0.906546   -0.849916   -0.387313
 C   -0.684557   -3.123632   -0.419726
 N   -1.198904    0.352074   -0.338230
 C    1.376124   -2.100956   -0.408678
 N   -2.607199   -1.420720   -0.343039
 C   -2.507571   -0.120046   -0.328508
 N    2.729431   -2.300966   -0.404595
 C   -0.701813    1.716750   -0.175835
 N   -3.542158    0.802584   -0.340449
 C    3.768919   -1.371261   -0.219476
 C   -4.888376    0.474584   -0.100312
 C    0.214671    1.921305    1.034387
 C    0.858757    3.285588    0.751582
 C    1.004821    3.358355   -0.791582
 C    0.169903    2.180726   -1.349053
 C   -5.282863   -0.180865    1.069376
 C   -6.609562   -0.468915    1.335999
 C   -7.587959   -0.090740    0.421484
 C   -7.223444    0.578462   -0.741404
 C   -5.886287    0.866607   -0.991665
 C    3.662839   -0.019972   -0.561509
 C    4.734146    0.834319   -0.364486
 C    5.936874    0.374108    0.171853
 C    6.055507   -0.973589    0.499890
 C    4.980862   -1.833617    0.295031
 C    8.140305    0.860868    0.884295
 H   -1.259011   -4.048687   -0.438376
 H    2.979583   -3.277589   -0.342961
 H   -1.561628    2.382876   -0.070819
 H   -3.409079    1.553024   -1.007123
 H    0.977950    1.133787    1.034065
 H   -0.333103    1.878485    1.982335
 H    1.813380    3.409542    1.272402
 H    0.199718    4.088282    1.103956
 H    2.054293    3.270916   -1.103544
 H    0.642318    4.321411   -1.166193
 H   -0.429022    2.439848   -2.227825
 H    0.831399    1.352664   -1.625461
 H   -6.853126   -0.988593    2.257375
 H   -8.630915   -0.316399    0.623602
 H   -7.980116    0.885164   -1.458124
 H   -5.606971    1.395305   -1.900786
 H    2.739540    0.357313   -0.983962
 H    4.655396    1.889232   -0.616475
 H    6.976299   -1.372470    0.912849
 H    5.088414   -2.885446    0.553708
 H    7.999379    0.452697    1.893834
 H    8.614863    0.098421    0.252599
 H    8.783417    1.740466    0.935548
