72 
3tv5_ligand_ani.xyz
 C    5.407186    2.086283    0.884113
 C    6.796183    2.252379    0.281693
 O    7.667405    1.228826    0.723136
 C    7.192982   -0.049940    0.349964
 C    5.818276   -0.318837    0.954554
 N    4.905061    0.751630    0.577693
 C    3.649251    0.616787    0.047452
 O    2.949098    1.593105   -0.187228
 C    3.169188   -0.790851   -0.283507
 C    1.645357   -0.831964   -0.398688
 C    3.790837   -1.287228   -1.602167
 C    3.259472   -2.674331   -1.966275
 C    1.736796   -2.683362   -1.987330
 N    1.221316   -2.261166   -0.646474
 C   -0.228279   -2.582832   -0.401181
 C   -0.474971   -2.712637    1.111408
 C   -1.956243   -2.931672    1.420599
 C   -1.187255   -1.586246   -1.069384
 C   -2.635903   -1.828536   -0.638720
 N   -2.761736   -1.871097    0.820640
 C   -2.866502   -0.705611    1.565245
 O   -2.546408   -0.668604    2.742723
 C   -3.364564    0.472773    0.818246
 C   -4.710182    0.508754    0.403389
 C   -5.717558   -0.344996    0.938195
 C   -6.999502   -0.325272    0.444326
 C   -7.348098    0.557052   -0.599476
 C   -6.418550    1.417459   -1.118075
 C   -5.081888    1.438716   -0.627319
 C   -4.122782    2.322561   -1.131146
 C   -2.810504    2.349130   -0.645153
 C   -2.424085    1.431567    0.391078
 C   -1.088387    1.485803    0.885438
 C   -0.165430    2.344699    0.341360
 C   -0.542464    3.226511   -0.694788
 C   -1.825817    3.236673   -1.166690
 H    5.465208    2.224132    1.973862
 H    4.698793    2.809008    0.475195
 H    7.244145    3.201130    0.594463
 H    6.730836    2.244688   -0.817964
 H    7.923215   -0.775588    0.721075
 H    7.148965   -0.134113   -0.748510
 H    5.445489   -1.287636    0.619573
 H    5.917292   -0.355303    2.049034
 H    3.438182   -1.480208    0.528478
 H    1.155883   -0.439358    0.498966
 H    1.327384   -0.206963   -1.239024
 H    3.524012   -0.572581   -2.392937
 H    4.885330   -1.290880   -1.550068
 H    3.650829   -3.000729   -2.935051
 H    3.594793   -3.406416   -1.218228
 H    1.345307   -3.677746   -2.224463
 H    1.362427   -1.987094   -2.748870
 H    1.735926   -2.837633    0.045642
 H   -0.404100   -3.570589   -0.850687
 H   -0.147013   -1.794963    1.616473
 H    0.137271   -3.534724    1.502468
 H   -2.147547   -2.928020    2.493537
 H   -2.300716   -3.886441    1.004724
 H   -0.904153   -0.563555   -0.802510
 H   -1.096128   -1.662028   -2.159326
 H   -2.992665   -2.795474   -1.014368
 H   -3.298548   -1.061251   -1.046220
 H   -5.453747   -1.012290    1.752109
 H   -7.751626   -0.992435    0.855696
 H   -8.364892    0.556967   -0.984396
 H   -6.688274    2.107342   -1.914376
 H   -4.406512    3.016464   -1.917599
 H   -0.813696    0.814555    1.694923
 H    0.865327    2.335106    0.679477
 H    0.197579    3.903403   -1.116984
 H   -2.117215    3.922056   -1.959116
