43 
3tv7_ligand_dft.xyz
 O   -0.328193   -0.755893    1.391848
 C    0.241179    0.083338    0.731459
 N    1.600000    0.132335    0.533442
 C    2.431581   -0.966375    1.040630
 C    2.644228   -0.829323    2.550063
 C    3.741215   -0.980464    0.278637
 C    4.166381   -2.138932   -0.376558
 C    5.375743   -2.142768   -1.058456
 C    6.176656   -1.003504   -1.109720
 C    5.751998    0.155632   -0.457606
 O    6.441945    1.323941   -0.434482
 C    7.676649    1.378176   -1.113443
 C    4.538394    0.159303    0.235316
 N   -0.408713    1.163629    0.098297
 C   -1.783400    1.295778    0.028547
 N   -2.614323    0.323310   -0.132872
 C   -3.914734    0.784938   -0.174178
 C   -5.001800   -0.199304   -0.328760
 C   -4.744626   -1.558229   -0.140717
 C   -5.790147   -2.463673   -0.277761
 N   -7.044139   -2.121064   -0.583934
 C   -7.278522   -0.819312   -0.767107
 C   -6.308839    0.168836   -0.655607
 C   -4.059503    2.135893   -0.064351
 S   -2.518249    2.887573    0.143727
 H    1.919136    0.552397   -0.328672
 H    1.903773   -1.909313    0.854523
 H    3.154088    0.110672    2.783208
 H    3.257729   -1.657925    2.916846
 H    1.680202   -0.850470    3.063777
 H    3.549265   -3.032356   -0.352064
 H    5.706039   -3.043752   -1.566779
 H    7.114535   -1.033078   -1.651925
 H    7.552157    1.197198   -2.188808
 H    8.060446    2.387471   -0.960828
 H    8.393721    0.654261   -0.705555
 H    4.241290    1.072232    0.743896
 H    0.140378    1.996152   -0.056116
 H   -3.743364   -1.889895    0.110584
 H   -5.609859   -3.526429   -0.131094
 H   -8.302040   -0.550786   -1.020892
 H   -6.575412    1.205382   -0.837197
 H   -4.964592    2.725160   -0.078318
