58 
3tvc_ligand_ani.xyz
 C    8.559396   -1.100226   -0.106282
 N    4.742057    0.905730   -0.215028
 C    7.395129   -1.091016   -1.064975
 O    4.571942   -1.246917    0.464095
 C    6.903838    0.326994   -1.344005
 N    7.868832    2.626694    0.380946
 C    6.180596    0.957700   -0.120156
 C    6.572287    2.433015    0.058818
 O    5.762234    3.335305   -0.094192
 C    4.030451   -0.197147    0.139343
 O    9.042000   -0.129072    0.440982
 C    2.520786   -0.026998    0.093297
 O    9.044129   -2.332730    0.097443
 C    1.778935   -1.322078    0.433821
 C    0.284496   -1.145411    0.374135
 C   -0.452710   -1.568273   -0.733123
 C   -1.822909   -1.354504   -0.803766
 C   -2.500600   -0.695213    0.225806
 C   -1.761101   -0.271314    1.335041
 C   -0.394491   -0.496117    1.408126
 C   -6.736927    0.042413   -0.024280
 C   -5.857822    1.035750    0.418225
 C   -4.497493    0.791754    0.515001
 C   -3.959221   -0.444244    0.142224
 C   -4.836801   -1.432576   -0.314747
 C   -6.200972   -1.198906   -0.381237
 C   -8.196400    0.298341   -0.112524
 C   -9.117101   -0.650850    0.341753
 C  -10.484177   -0.409471    0.267282
 C  -10.955022    0.781303   -0.279204
 C  -10.048450    1.730986   -0.742395
 C   -8.681595    1.493837   -0.651625
 H    4.292835    1.804042   -0.351810
 H    7.722920   -1.583555   -1.986816
 H    6.595259   -1.703930   -0.632484
 H    6.207497    0.325398   -2.187981
 H    7.762297    0.944362   -1.630391
 H    8.493862    1.840692    0.507595
 H    8.196072    3.568177    0.534366
 H    6.490306    0.401923    0.773384
 H    2.234276    0.327334   -0.904793
 H    2.235353    0.771077    0.793286
 H    9.782502   -2.240912    0.723096
 H    2.087029   -1.651142    1.432045
 H    2.099241   -2.108263   -0.257259
 H    0.050383   -2.081651   -1.549784
 H   -2.375402   -1.684947   -1.680597
 H   -2.270417    0.228238    2.155729
 H    0.159481   -0.150260    2.278867
 H   -6.250482    2.004332    0.717835
 H   -3.835009    1.583111    0.857060
 H   -4.446543   -2.407969   -0.594581
 H   -6.860903   -1.982891   -0.744348
 H   -8.752832   -1.579384    0.776525
 H  -11.183425   -1.158030    0.630524
 H  -12.023563    0.968337   -0.343746
 H  -10.405621    2.664430   -1.169448
 H   -7.976512    2.235325   -1.021652
