60 
3twd_ligand_ani.xyz
 C   -2.469134    4.594069    0.831905
 O   -2.778967    3.268935    0.453580
 C   -1.755472    2.451227    0.070543
 C   -0.418314    2.828036    0.042980
 C    0.551685    1.908140   -0.376872
 C    0.152595    0.635112   -0.782169
 C   -1.178858    0.250990   -0.717713
 C   -2.147535    1.146346   -0.298190
 N   -3.514467    0.832448   -0.214520
 C   -4.113854   -0.372019   -0.470809
 O   -3.520870   -1.372260   -0.837357
 C   -5.622682   -0.365412   -0.237312
 C   -6.288406   -1.609572   -0.829590
 C   -7.740744   -1.690697   -0.404513
 O   -8.670308   -1.380268   -1.097971
 O   -7.953833   -2.093344    0.874068
 S    1.338628   -0.565879   -1.363002
 O    2.096238   -0.003641   -2.463126
 O    0.632804   -1.829031   -1.525803
 N    2.411140   -0.710749   -0.053641
 C    1.925880   -0.874203    1.280701
 C    2.641091   -0.264196    2.311212
 C    2.207073   -0.380062    3.627868
 C    1.066944   -1.118679    3.922822
 C    0.361855   -1.734774    2.893055
 C    0.779455   -1.617178    1.572234
 C    3.827899   -0.804832   -0.303864
 C    4.517509   -1.982989   -0.024097
 C    5.886844   -2.057993   -0.239508
 C    6.595403   -0.951046   -0.718958
 C    5.896346    0.229149   -0.991447
 C    4.524703    0.295814   -0.793429
 N    7.962473   -1.043784   -0.980674
 O    1.872188    2.181913   -0.421858
 C    2.330424    3.408387    0.110019
 H   -1.804272    4.617308    1.704946
 H   -2.004958    5.149393    0.006695
 H   -3.418937    5.063479    1.090876
 H   -0.122232    3.826236    0.343141
 H   -1.468699   -0.752497   -0.997171
 H   -4.095591    1.601324    0.089056
 H   -6.061562    0.548384   -0.659065
 H   -5.799733   -0.318844    0.847756
 H   -5.728530   -2.496660   -0.513155
 H   -6.257254   -1.570870   -1.920571
 H   -7.119758   -2.353069    1.289070
 H    3.538736    0.298688    2.061758
 H    2.769132    0.102120    4.423642
 H    0.728404   -1.216487    4.951393
 H   -0.529481   -2.315304    3.115269
 H    0.218097   -2.093138    0.770842
 H    3.980725   -2.850937    0.352319
 H    6.418664   -2.984181   -0.032929
 H    6.432912    1.092299   -1.376659
 H    3.969210    1.201089   -1.015329
 H    8.450043   -1.747998   -0.444451
 H    8.455875   -0.162020   -0.969333
 H    1.963451    4.260374   -0.475363
 H    2.032301    3.521661    1.159788
 H    3.419133    3.368177    0.045886
