37 
3twj_ligand_ani.xyz
 O    1.372017   -2.599126   -0.023222
 C    1.389280   -1.674719    0.767128
 N    2.447605   -1.434151    1.628567
 C    2.932095   -0.093930    1.957605
 C    3.610301    0.613787    0.797067
 C    4.930657    0.306145    0.481050
 C    5.555655    0.918053   -0.604652
 O    6.851357    0.576234   -0.851127
 C    4.859234    1.835516   -1.388432
 C    3.538554    2.135218   -1.075615
 C    2.913905    1.532474    0.008894
 N    0.319657   -0.801813    0.913804
 C   -0.867030   -0.904960    0.207821
 N   -1.884987   -0.167626    0.526922
 C   -2.945684   -0.429113   -0.324050
 C   -4.208763    0.310223   -0.114619
 C   -4.239735    1.393510    0.762079
 C   -5.435627    2.075699    0.939476
 N   -6.576471    1.756928    0.323624
 C   -6.536828    0.714663   -0.508025
 C   -5.396157   -0.034842   -0.762444
 C   -2.696739   -1.353177   -1.290269
 S   -1.083896   -1.968462   -1.142223
 H    3.193435   -2.086130    1.418332
 H    3.635190   -0.208486    2.788402
 H    2.108194    0.510952    2.344393
 H    5.500939   -0.406681    1.072808
 H    7.165827    1.065651   -1.621416
 H    5.346491    2.310756   -2.239009
 H    2.994104    2.850590   -1.686606
 H    1.878600    1.773389    0.241877
 H    0.270433   -0.180679    1.708132
 H   -3.340022    1.688570    1.291381
 H   -5.480497    2.926711    1.616939
 H   -7.472510    0.460701   -1.003435
 H   -5.451648   -0.875155   -1.448165
 H   -3.352513   -1.692318   -2.081771
