37 
3twj_ligand_xtb.xyz
 O    1.006182   -2.765162   -0.241464
 C    1.250998   -1.799205    0.455183
 N    2.447177   -1.646499    1.077783
 C    3.009481   -0.452348    1.681804
 C    3.722727    0.403985    0.660938
 C    5.105714    0.387177    0.596131
 C    5.777569    1.138803   -0.363089
 O    7.133641    1.090453   -0.373566
 C    5.051804    1.903167   -1.268627
 C    3.670178    1.912988   -1.207036
 C    3.003568    1.170981   -0.249266
 N    0.297400   -0.833287    0.692964
 C   -0.968749   -0.940416    0.183965
 N   -1.889418   -0.074488    0.416405
 C   -3.061534   -0.414090   -0.207155
 C   -4.218572    0.453715   -0.046668
 C   -4.109648    1.629623    0.698428
 C   -5.223372    2.436496    0.839212
 N   -6.401730    2.159263    0.304425
 C   -6.507447    1.045468   -0.401558
 C   -5.462248    0.162994   -0.609539
 C   -2.988101   -1.573117   -0.927019
 S   -1.418822   -2.283098   -0.834973
 H    3.123516   -2.338101    0.785594
 H    3.715577   -0.778517    2.449828
 H    2.219649    0.117753    2.176423
 H    5.689272   -0.200695    1.287442
 H    7.480117    1.647897   -1.080895
 H    5.569171    2.486886   -2.018034
 H    3.109651    2.506638   -1.913004
 H    1.924997    1.189338   -0.215437
 H    0.461011   -0.053160    1.310281
 H   -3.165396    1.887150    1.149434
 H   -5.176734    3.355469    1.409630
 H   -7.486589    0.853195   -0.821630
 H   -5.614210   -0.730406   -1.193701
 H   -3.755681   -2.048465   -1.501380
