37 
3twj_ligand_dft.xyz
 O    1.545321   -3.369560   -0.280277
 C    1.859355   -2.283477    0.180428
 N    3.151158   -1.969926    0.521669
 C    3.550139   -0.881225    1.397985
 C    3.390879    0.496328    0.778357
 C    3.733473    0.707915   -0.554260
 C    3.596162    1.975208   -1.116587
 O    3.948111    2.116243   -2.419199
 C    3.110362    3.035371   -0.347161
 C    2.763552    2.816303    0.979924
 C    2.898328    1.552489    1.547779
 N    0.935360   -1.275968    0.387651
 C   -0.406716   -1.381822    0.079109
 N   -1.198741   -0.367857    0.241682
 C   -2.491428   -0.699520   -0.114632
 C   -3.539121    0.331735   -0.003647
 C   -3.211968    1.629633    0.394486
 C   -4.219593    2.581885    0.486817
 N   -5.505352    2.342952    0.217821
 C   -5.810353    1.098998   -0.160650
 C   -4.883101    0.072648   -0.285096
 C   -2.653671   -1.981991   -0.544568
 S   -1.150311   -2.837193   -0.526504
 H    3.759925   -2.771050    0.452928
 H    4.604448   -1.047726    1.639131
 H    2.998859   -0.919474    2.347909
 H    4.089563   -0.109537   -1.172753
 H    3.787931    3.025336   -2.699407
 H    2.994985    4.022971   -0.787854
 H    2.376191    3.638362    1.573699
 H    2.616956    1.387279    2.584250
 H    1.229266   -0.334939    0.621314
 H   -2.183226    1.880225    0.625686
 H   -3.979476    3.597536    0.795252
 H   -6.860028    0.910467   -0.376751
 H   -5.216653   -0.912616   -0.594777
 H   -3.555983   -2.472488   -0.880230
