16 
3twp_ligand_ani.xyz
 C   -1.715624   -0.435033    0.001857
 O   -2.476044    0.667026   -0.028639
 O   -2.224564   -1.528620    0.027949
 C   -0.215941   -0.272099   -0.001029
 C    0.476045    0.946762    0.005621
 C    1.867704    0.975936    0.006108
 C    2.584957   -0.213770   -0.002120
 C    1.919365   -1.436059   -0.009885
 C    0.532626   -1.453212   -0.008051
 O   -0.251360    2.109734    0.012253
 H   -1.928505    1.469797   -0.039590
 H    2.387688    1.932651    0.012919
 H    3.670983   -0.183234   -0.002380
 H    2.476543   -2.367945   -0.016867
 H   -0.024961   -2.384540   -0.011908
 H    0.339201    2.872998    0.010315
