56 
3ty0_ligand_xtb.xyz
 C    0.064453    5.256013    1.533592
 C   -1.244398    5.317047    1.075515
 C   -4.837164    0.430590    0.526944
 C    2.362157   -0.859045   -0.502400
 C   -4.414587   -0.884613    0.585251
 C   -4.158082    1.350585   -0.254093
 C    0.931148    4.254780    1.120473
 C   -1.741760    4.379990    0.182569
 C    3.232800   -1.917521   -0.401827
 C   -2.622800   -0.363884   -0.929002
 C    5.046576   -0.474287    0.332663
 C    2.824198    0.415777   -0.184584
 C   -3.300232   -1.282668   -0.144007
 C   -3.049716    0.957701   -0.988716
 C    0.437882    3.318582    0.234324
 C   -0.883870    3.380599   -0.235039
 C    4.159535    0.580347    0.234620
 C    4.565799   -1.739368    0.008381
 C    2.309465    1.752182   -0.097298
 C   -2.695490   -3.215316    1.342594
 C   -0.690642   -3.370498    0.240090
 C    0.106559    1.598104   -1.200668
 C   -2.854880   -2.734155   -0.101726
 C   -3.839803   -3.625511   -0.864338
 C    5.059004   -4.060900   -0.198577
 C   -2.259377    1.945283   -1.811789
 N    3.229721    2.578622    0.323435
 N   -1.372716   -3.545181    1.445801
 N    1.024407    2.196408   -0.343131
 N   -1.053222    2.332629   -1.115566
 O   -3.531102   -3.301683    2.197208
 O    0.458072   -3.623259    0.051289
 O    0.277760    0.636445   -1.913971
 O    4.385311    1.876041    0.532165
 O   -1.544652   -2.891619   -0.658083
 O    5.463619   -2.749589    0.123612
 H    0.418795    6.005953    2.223549
 H   -1.890179    6.111339    1.417512
 H   -5.700529    0.740055    1.095934
 H    1.352396   -1.019165   -0.837334
 H   -4.935859   -1.594894    1.207305
 H   -4.496452    2.375434   -0.293761
 H    1.952311    4.203517    1.457728
 H   -2.758713    4.435310   -0.171613
 H    2.856968   -2.899611   -0.634207
 H   -1.758204   -0.670815   -1.497421
 H    6.065585   -0.338559    0.650706
 H   -3.932340   -3.267497   -1.886187
 H   -4.809265   -3.590635   -0.376139
 H   -3.481358   -4.652681   -0.878751
 H    5.934005   -4.685606   -0.025323
 H    4.757976   -4.140879   -1.247289
 H    4.238263   -4.398037    0.441201
 H   -1.947791    1.479930   -2.751959
 H   -2.844352    2.842667   -2.022361
 H   -0.931309   -3.902737    2.279155
