50 
3tyq_ligand_xtb.xyz
 C   -2.683188   -0.301079    0.259293
 N   -0.291106   -0.244030    0.854832
 O   -1.421963    2.301365    0.262282
 C   -4.003115   -0.044298    0.595601
 N    4.495126    2.989003    0.020762
 O    2.892712    2.736739    1.575019
 C   -4.977949   -0.055396   -0.390730
 N   -6.348919    0.201121   -0.026495
 O    0.415958    3.260201    1.023936
 C   -4.660729   -0.311620   -1.719122
 O   -7.168131    0.257636   -0.918957
 C   -3.344699   -0.570346   -2.046719
 O   -6.605036    0.333517    1.151401
 C   -2.364758   -0.570085   -1.065835
 C    2.802440    1.352355   -0.366122
 C    2.713346   -1.816855   -0.239710
 C    2.440857   -3.162820   -0.120297
 C    1.724987   -0.888944    0.092525
 C    0.476007   -1.337649    0.576133
 C    0.428721    0.894145    0.575697
 C    1.681800    0.541998    0.099157
 C    1.183512   -3.585545    0.340045
 C    0.196912   -2.696246    0.696200
 C   -0.267415    2.210229    0.611298
 C   -1.637951   -0.292102    1.350832
 C    3.353326    2.381402    0.486002
 C    5.098182    2.706725   -1.157043
 C    4.573056    1.757168   -1.974197
 C    3.415864    1.069765   -1.558620
 C    3.494538   -4.189076   -0.429453
 C    4.223900   -4.610538    0.847611
 H   -4.288522    0.173739    1.613717
 H    4.882927    3.695629    0.635773
 H    1.331682    3.042272    1.359587
 H   -5.442457   -0.303513   -2.462451
 H   -3.075907   -0.772689   -3.071911
 H   -1.341418   -0.773997   -1.342611
 H    3.682427   -1.483027   -0.581481
 H    0.990945   -4.645729    0.415787
 H   -0.761699   -3.046899    1.047116
 H   -1.743929   -1.197633    1.959347
 H   -1.816907    0.571121    1.996823
 H    5.989538    3.265747   -1.394776
 H    5.035830    1.527209   -2.918453
 H    2.997641    0.306972   -2.198100
 H    4.216870   -3.777790   -1.137196
 H    3.032741   -5.067370   -0.885421
 H    4.706514   -3.750913    1.307360
 H    3.521695   -5.030986    1.563817
 H    4.982122   -5.357610    0.624663
