56 
3tyv_ligand_xtb.xyz
 C    2.147625    3.660142    1.955121
 F    4.082727    3.059156    0.758525
 N   -0.927551    1.187874   -1.059175
 O    0.116355   -1.778178    2.036674
 S    3.034328   -1.948660   -0.442389
 C    0.769518    3.771190    1.992294
 F   -1.310515    3.500953    0.935542
 N   -1.402131   -3.431780    2.216098
 O    1.736693    0.173265   -1.973324
 C   -3.790281   -0.726589   -0.113521
 F   -5.606326    2.328713   -0.736268
 N    1.780541   -0.883894    0.017617
 O    3.476478   -2.565051    0.766968
 C    2.003734    2.773182   -0.295501
 O    2.470295   -2.794809   -1.454207
 C   -3.311248    1.941083   -0.938686
 C   -2.493054   -0.302253   -0.412835
 C   -1.222450   -0.943061   -0.387160
 C   -4.840252    0.157666   -0.217012
 C    0.620690    2.874278   -0.264172
 C   -2.261004    1.035163   -0.824248
 C    2.739980    3.164370    0.807812
 C    0.031390    3.378154    0.891372
 C   -4.565235    1.472816   -0.631954
 C   -0.293949    0.005504   -0.763499
 C   -2.488505   -4.275788    0.229313
 C   -1.955171   -3.319680   -0.549824
 C   -2.198036   -4.251916    1.632441
 C   -0.950121   -2.371282   -0.015604
 C   -0.697838   -2.498769    1.497266
 C    1.148001   -0.204008   -0.976953
 C    5.684488   -1.196647   -0.649383
 C    4.957250   -0.039676   -0.049128
 C    4.294996   -0.875095   -1.092711
 C   -6.250695   -0.230226    0.100687
 C   -0.229878    2.400564   -1.417280
 H    2.756121    3.951769    2.795417
 H    0.261976    4.156241    2.861840
 H   -3.968089   -1.741968    0.207352
 H    1.262562   -1.127477    0.872725
 H    2.503854    2.383302   -1.167531
 H   -3.177870    2.968111   -1.235015
 H   -3.193964   -4.999162   -0.147549
 H   -2.227832   -3.207493   -1.590290
 H   -2.722275   -4.941349    2.285854
 H    0.016348   -2.652296   -0.471038
 H    6.491980   -1.011523   -1.341660
 H    5.802105   -2.081531   -0.043248
 H    5.255553    0.965852   -0.302944
 H    4.587469   -0.154271    0.958511
 H    4.057470   -0.510301   -2.076226
 H   -6.305614   -1.272824    0.400660
 H   -6.638099    0.391539    0.906828
 H   -6.890286   -0.074742   -0.767290
 H   -0.975020    3.155111   -1.677191
 H    0.407069    2.200231   -2.282848
