56 
3tyv_ligand_ani.xyz
 C    2.376714    4.052035    1.717850
 F    4.256661    2.989101    0.778345
 N   -0.808624    1.126491   -1.026837
 O   -0.003300   -2.093544    1.914702
 S    2.944975   -2.252081   -0.302148
 C    1.011025    4.306426    1.663433
 F   -1.061269    4.023744    0.601099
 N   -1.804529   -3.445749    2.123200
 O    1.806436    0.027479   -1.975392
 C   -3.808858   -0.562139   -0.073698
 F   -5.376681    2.645847   -0.528318
 N    1.733012   -1.127891    0.002165
 O    3.367365   -2.768073    0.988883
 C    2.179662    2.682731   -0.276096
 O    2.509366   -3.150999   -1.356338
 C   -3.123459    2.082277   -0.803970
 C   -2.480775   -0.243918   -0.396673
 C   -1.276717   -1.008661   -0.449016
 C   -4.792086    0.404875   -0.119872
 C    0.803988    2.917870   -0.332337
 C   -2.157538    1.073599   -0.756310
 C    2.933073    3.243711    0.740978
 C    0.258429    3.743394    0.645311
 C   -4.409166    1.708767   -0.489614
 C   -0.275054   -0.123076   -0.798196
 C   -2.973798   -4.140890    0.133613
 C   -2.180926   -3.375159   -0.668212
 C   -2.753875   -4.124230    1.520862
 C   -1.133104   -2.499372   -0.124732
 C   -0.946184   -2.683873    1.394936
 C    1.169884   -0.382743   -1.018020
 C    5.617590   -1.410584   -0.392965
 C    4.823874   -0.237201    0.081574
 C    4.223273   -1.194407   -0.899772
 C   -6.227897    0.108871    0.214503
 C   -0.060568    2.307948   -1.426281
 H    3.002048    4.472424    2.498188
 H    0.517679    4.938147    2.394418
 H   -4.056945   -1.581171    0.210987
 H    1.153858   -1.364056    0.823619
 H    2.655562    2.047596   -1.017691
 H   -2.902678    3.116961   -1.044906
 H   -3.754044   -4.766843   -0.291099
 H   -2.304284   -3.378728   -1.743688
 H   -3.393067   -4.716958    2.171636
 H   -0.165903   -2.797655   -0.590509
 H    6.435872   -1.252238   -1.087024
 H    5.749584   -2.236678    0.300725
 H    5.056969    0.761783   -0.274965
 H    4.446757   -0.286603    1.099979
 H    4.036377   -0.893038   -1.924206
 H   -6.356496   -0.945635    0.477432
 H   -6.570809    0.714114    1.060476
 H   -6.886638    0.331021   -0.631715
 H   -0.792361    3.038619   -1.774752
 H    0.577526    2.037618   -2.270992
