20 
3tz0_ligand_xtb.xyz
Cl    0.726365    1.578778   -0.679580
 C    1.845594   -0.629306    0.128760
 O    2.061212   -1.435231   -0.731683
 C    0.534323    0.106471    0.332165
 O    2.758455   -0.247499    1.023919
 C   -0.659442   -0.718211   -0.118251
 C   -1.998542    0.025715   -0.081474
 C   -2.366611    0.458203    1.335883
 C   -3.088364   -0.876221   -0.657061
 H    0.458123    0.449312    1.364356
 H    3.611878   -0.677645    0.851781
 H   -0.463071   -1.070272   -1.133210
 H   -0.713998   -1.595248    0.532697
 H   -1.917278    0.917679   -0.709971
 H   -3.362617    0.894384    1.344904
 H   -2.362119   -0.396582    2.009485
 H   -1.673287    1.204983    1.713572
 H   -2.840793   -1.181489   -1.670776
 H   -4.040809   -0.352628   -0.680848
 H   -3.203325   -1.769784   -0.047147
