24 
3tz2_ligand_ani.xyz
 C    2.455621   -1.000525   -0.287992
 C    0.960380   -0.840493   -0.550651
 C    0.170712   -0.380225    0.681655
 C   -1.286817   -0.126315    0.376016
 C   -1.762103    1.172288    0.185893
 C   -2.178257   -1.191260    0.228189
 C   -3.096857    1.403628   -0.137464
 C   -3.513386   -0.965389   -0.091518
 C   -3.976629    0.334793   -0.275784
 C    3.175892    0.323521   -0.087016
 O    4.500002    0.224595    0.178472
 O    2.659000    1.406551   -0.158930
 H    2.935058   -1.517112   -1.131246
 H    2.633319   -1.625467    0.600089
 H    0.550618   -1.793120   -0.908194
 H    0.825905   -0.109892   -1.354939
 H    0.629903    0.533123    1.073021
 H    0.254731   -1.143800    1.466450
 H   -1.079016    2.013444    0.294370
 H   -1.820388   -2.211351    0.362256
 H   -3.449720    2.422574   -0.279578
 H   -4.193691   -1.806762   -0.199620
 H   -5.019145    0.513225   -0.527520
 H    4.769083   -0.704173    0.200589
