24 
3tz2_ligand_xtb.xyz
 C    2.409456   -0.926794   -0.488407
 C    0.921746   -0.656440   -0.703224
 C    0.176843   -0.452195    0.620920
 C   -1.274268   -0.169004    0.356430
 C   -1.700833    1.130274    0.113428
 C   -2.202211   -1.200384    0.301947
 C   -3.028133    1.393576   -0.173038
 C   -3.530701   -0.939721    0.015308
 C   -3.946796    0.358570   -0.223195
 C    3.161880    0.311401   -0.034420
 O    4.448092    0.086479    0.306465
 O    2.703754    1.413141    0.017625
 H    2.866270   -1.259565   -1.426226
 H    2.547087   -1.718982    0.254296
 H    0.474593   -1.493687   -1.243077
 H    0.810718    0.241181   -1.313051
 H    0.627639    0.387411    1.151479
 H    0.275679   -1.349884    1.236592
 H   -0.984051    1.937674    0.152602
 H   -1.883059   -2.216426    0.489502
 H   -3.348052    2.408854   -0.357169
 H   -4.242795   -1.751690   -0.021953
 H   -4.983816    0.563172   -0.446106
 H    4.703117   -0.840721    0.215909
