101 
3u1i_ligand_xtb.xyz
 C    3.167362    0.060199    0.319510
 O    2.683176   -0.712999    1.129381
 C    3.141646    1.537733    0.537817
 C    3.158197    1.992300    1.852913
 C    3.162065    3.346778    2.127608
 C    3.132595    4.262483    1.087953
 C    3.088762    3.817316   -0.223305
 C    3.095654    2.461688   -0.500948
 N    3.755696   -0.330571   -0.834306
 C    4.068195   -1.705688   -1.185821
 C    2.824395   -2.565957   -1.476653
 O    2.928839   -3.750657   -1.711601
 C    4.924115   -2.421346   -0.128513
 C    6.400121   -2.029058   -0.144427
 C    6.675421   -0.581016    0.259625
 C    8.164882   -0.336347    0.471314
 N    1.649222   -1.916644   -1.493427
 C    0.386622   -2.586880   -1.685417
 C   -0.669039   -1.499903   -1.859465
 O   -0.387738   -0.311003   -1.823211
 C    0.101798   -3.607155   -0.557574
 C    0.393739   -3.087065    0.848235
 C   -0.611795   -2.052412    1.344299
 C   -0.121058   -1.384164    2.621676
 N   -0.923867   -0.175877    2.885219
 N   -1.911876   -1.944828   -2.098605
 C   -3.046316   -1.057512   -2.275319
 C   -2.881926    0.140278   -1.339760
 O   -2.582695    0.007887   -0.169355
 C   -4.351721   -1.799140   -1.944001
 C   -4.395513   -2.336734   -0.505111
 C   -5.350654   -1.540442    0.398392
 N   -5.282508   -1.966892    1.778874
 C   -4.292986   -1.601350    2.644904
 N   -3.456002   -0.642992    2.484768
 N   -4.211997   -2.363006    3.783874
 O   -5.421719    1.790731   -0.565184
 N   -3.110444    1.348403   -1.888772
 N   -0.142808    3.505905   -0.282552
 N   -0.095714    3.537633    2.015527
 N   -0.251886    1.510026    0.983276
 C   -3.180253    2.504802   -1.022874
 C   -2.724221    3.800529   -1.697125
 C   -1.378160    3.685225   -2.420968
 C   -0.273305    2.984089   -1.621208
 C   -0.139255    2.780590    0.868095
 C   -4.573863    2.627626   -0.439899
 H    3.182765    1.263822    2.649282
 H    3.196315    3.690970    3.150851
 H    3.147091    5.322130    1.297979
 H    3.059599    4.530775   -1.033970
 H    3.042540    2.132785   -1.529205
 H    4.210571    0.380942   -1.382594
 H    4.631754   -1.676788   -2.125022
 H    4.495100   -2.229552    0.855749
 H    4.841783   -3.490600   -0.331111
 H    6.922536   -2.684941    0.555047
 H    6.816811   -2.214186   -1.137251
 H    6.317272    0.101372   -0.514548
 H    6.134665   -0.352412    1.181662
 H    8.546215   -0.967057    1.270521
 H    8.348885    0.702219    0.736402
 H    8.720153   -0.562681   -0.436081
 H    1.578281   -0.932661   -1.275748
 H    0.433002   -3.151555   -2.628944
 H   -0.931291   -3.953306   -0.624206
 H    0.758846   -4.457420   -0.744851
 H    1.389262   -2.644103    0.865549
 H    0.402914   -3.938188    1.531337
 H   -0.747913   -1.276511    0.594338
 H   -1.581401   -2.520858    1.523240
 H   -0.199553   -2.073456    3.465189
 H    0.924833   -1.099728    2.489421
 H   -1.999154   -0.401278    2.804095
 H   -0.719772    0.206344    3.804424
 H   -0.678936    0.570263    2.121174
 H   -2.084581   -2.935647   -2.162834
 H   -3.080314   -0.709069   -3.317392
 H   -4.455482   -2.620505   -2.655815
 H   -5.186728   -1.115989   -2.108358
 H   -3.397301   -2.287927   -0.067456
 H   -4.711836   -3.381836   -0.507356
 H   -6.381279   -1.671661    0.061593
 H   -5.120307   -0.474510    0.345195
 H   -5.759886   -2.830256    1.988265
 H   -3.515364   -0.185787    1.584067
 H   -3.688331   -1.948764    4.537385
 H   -5.038502   -2.859063    4.074494
 H   -3.496186    1.429752   -2.815791
 H    0.033029    4.495427   -0.210473
 H    0.332310    4.446810    1.951864
 H    0.151305    3.026588    2.846567
 H   -0.334878    0.998438    0.114933
 H   -2.525009    2.282049   -0.167555
 H   -3.477473    4.121574   -2.419759
 H   -2.660507    4.565623   -0.922217
 H   -1.501742    3.131078   -3.351672
 H   -1.055673    4.695434   -2.681538
 H    0.672347    3.111367   -2.162117
 H   -0.477608    1.915254   -1.570454
 H   -4.739793    3.550705    0.142598
