69 
3u1y_ligand_ani.xyz
 C    1.594442   -1.379905    0.037171
 C    2.396112   -2.390907   -0.492724
 C    3.784121   -2.332211   -0.426965
 C    4.396631   -1.229821    0.166296
 C    3.609704   -0.204150    0.700387
 C    2.231565   -0.289413    0.641579
 O    5.745654   -1.055716    0.261949
 C    0.115846   -1.449880   -0.045910
 C   -0.686776   -1.105276    1.046686
 C   -2.070935   -1.161305    0.962000
 C   -2.702742   -1.558015   -0.220048
 C   -1.902528   -1.900639   -1.311034
 C   -0.517680   -1.854781   -1.224606
 C   -4.205363   -1.553029   -0.314145
 C   -4.742908   -0.138151   -0.578459
 C   -6.277256    0.025051   -0.516468
 C   -6.690458    1.380229   -1.113258
 S   -6.793704    0.077263    1.257468
 C   -8.540411    0.394440    1.205451
 O   -6.149080    1.243537    1.873045
 O   -6.613268   -1.241773    1.863128
 C   -7.022185   -1.093635   -1.240683
 N   -5.989078    2.465114   -0.686671
 O   -7.586956    1.502959   -1.942348
 C    6.595243   -2.097296   -0.227404
 C    8.047412   -1.742477    0.054994
 C    8.521587   -0.488789   -0.683417
 O   -6.444843    3.689590   -1.157119
 N    7.811350    0.727281   -0.201502
 C    7.653503    1.766186   -1.261848
 C    6.911626    2.975276   -0.710605
 O    7.576729    3.535734    0.404146
 C    7.704910    2.581862    1.440147
 C    8.478122    1.350053    0.988279
 H    1.927277   -3.258057   -0.953524
 H    4.370195   -3.139853   -0.853115
 H    4.093693    0.649734    1.167049
 H    1.627121    0.516741    1.051952
 H   -0.217493   -0.802573    1.979821
 H   -2.673367   -0.879023    1.824813
 H   -2.365632   -2.216096   -2.243172
 H    0.084159   -2.117487   -2.091744
 H   -4.634660   -1.933939    0.619803
 H   -4.527291   -2.226838   -1.118789
 H   -4.288972    0.555676    0.136546
 H   -4.417171    0.173025   -1.578763
 H   -9.054847   -0.498784    0.846741
 H   -8.849123    0.609432    2.230647
 H   -8.757602    1.253012    0.566406
 H   -6.605495   -1.213078   -2.246409
 H   -6.937459   -2.042044   -0.703189
 H   -8.076766   -0.837743   -1.361345
 H   -5.747141    2.525788    0.301245
 H    6.331964   -3.041530    0.266033
 H    6.433159   -2.207639   -1.308813
 H    8.667745   -2.590858   -0.249855
 H    8.183558   -1.614135    1.136029
 H    8.326544   -0.600338   -1.756398
 H    9.602373   -0.345093   -0.564160
 H   -7.200686    3.420990   -1.718665
 H    6.874572    0.393782    0.089425
 H    8.646839    2.073073   -1.609989
 H    7.107871    1.338162   -2.109325
 H    5.885648    2.677423   -0.430947
 H    6.846570    3.759837   -1.469451
 H    6.705482    2.276142    1.796503
 H    8.226106    3.077489    2.263660
 H    9.497404    1.642278    0.708580
 H    8.543396    0.624413    1.805209
