54 
3u4u_ligand_dft.xyz
 C   -0.405344    4.710926    1.104828
 C    0.719398    5.281357    0.274020
 O    0.792465    6.466534    0.001901
 N    1.706436    4.429928   -0.189900
 C    1.926569    3.052138    0.018649
 C    3.254519    2.637092    0.267160
 C    3.574355    1.305029    0.442828
 C    2.529016    0.380874    0.394802
 C    1.195842    0.768627    0.158208
 C    0.898928    2.122148   -0.055940
 C    0.405713   -0.443405    0.169559
 C    1.288598   -1.472219    0.405745
 N    2.558624   -0.994988    0.551652
 C    3.754638   -1.797206    0.684608
 C    4.487183   -1.945287   -0.649987
 C    5.717468   -2.824801   -0.510675
 O    6.467885   -2.961934   -1.622476
 O    6.026409   -3.384234    0.507117
 C   -1.037427   -0.557205   -0.001749
 C   -1.669081   -1.829036   -0.015044
 C   -3.039067   -1.907202   -0.161183
 N   -3.698115   -0.716883   -0.304768
 C   -3.030077    0.487652   -0.295237
 N   -1.707796    0.584336   -0.141714
 C   -4.038457    1.447034   -0.472137
 C   -5.232815    0.705260   -0.575169
 N   -5.042027   -0.602461   -0.476130
 C   -3.848202    2.847962   -0.524985
 N   -3.677517    3.995462   -0.564321
 N   -3.811765   -3.013320   -0.168402
 C   -3.271865   -4.334207   -0.165079
 C   -3.991527   -5.370413    0.647885
 C   -2.659367   -4.854191    1.111629
 H   -0.777527    5.514535    1.741621
 H   -1.229852    4.395077    0.456275
 H   -0.098739    3.857593    1.714297
 H    2.445762    4.943400   -0.651575
 H    4.034991    3.390044    0.329463
 H    4.599798    1.003014    0.634923
 H   -0.115553    2.417233   -0.285685
 H    1.107825   -2.534657    0.501510
 H    3.475917   -2.780017    1.070289
 H    4.413518   -1.342935    1.429689
 H    4.776994   -0.958839   -1.033675
 H    3.812946   -2.384033   -1.397098
 H    6.094559   -2.448307   -2.351402
 H   -1.103131   -2.743784    0.089739
 H   -6.232647    1.090579   -0.719857
 H   -4.784293   -2.863834   -0.406626
 H   -2.819136   -4.654456   -1.102861
 H   -4.049972   -6.374779    0.242374
 H   -4.871066   -5.046436    1.195309
 H   -2.649925   -4.179318    1.961313
 H   -1.793415   -5.503076    1.028306
