100 
3u4w_ligand_xtb.xyz
 C   -0.971168   -2.787295    2.480914
 O   -1.127886   -3.590965    3.377616
 C    0.390965   -2.490817    1.876835
 C    1.349967   -3.663685    2.105730
 C    2.776875   -3.199816    2.300690
 O    3.111802   -2.501424    3.233153
 N   -2.035068   -2.108093    1.995035
 C   -2.147977   -1.182175    0.891311
 C   -1.260937    0.052772    1.109367
 O   -0.827487    0.363582    2.200063
 C   -3.616890   -0.750186    0.739483
 C   -4.444838   -1.677892   -0.158429
 C   -4.561483   -3.097007    0.400167
 C   -5.389841   -3.976700   -0.533449
 C   -6.780889   -3.386750   -0.739209
 C   -6.675111   -1.968219   -1.289193
 C   -5.845944   -1.093953   -0.353384
 N   -0.928561    0.772677    0.016408
 C   -1.418298    0.734381   -1.340998
 C   -0.325858    0.278496   -2.324709
 O   -0.493238   -0.675496   -3.058853
 C   -1.926682    2.129878   -1.764547
 C   -3.162890    2.503599   -0.998612
 C   -4.423782    2.279547   -1.537402
 C   -3.062937    3.043406    0.278773
 C   -5.563246    2.587677   -0.814355
 C   -4.201421    3.337757    1.007602
 C   -5.453970    3.109903    0.463241
 C    2.961982   -0.193255   -2.576828
 O    4.011299   -0.414602   -3.142296
 C    1.898723    0.733352   -3.198207
 N    0.793588    1.027263   -2.315284
 C    2.596228    1.989857   -3.732657
 C    3.242539    2.834132   -2.624631
 C    2.388780    4.045346   -2.208050
 N    2.526753    4.351259   -0.801698
 C    1.775626    3.745493    0.121233
 O    0.896413    2.935456   -0.165918
 C    2.066399    4.135695    1.525809
 N    3.000215    5.071657    1.707712
 C    3.255298    5.438010    2.949760
 C    2.561235    4.883766    4.023241
 N    1.647685    3.946084    3.845862
 C    1.401628    3.554697    2.606641
 N    3.715381   -3.634073    1.413070
 C    3.554476   -4.116661    0.067453
 C    4.943707   -4.386784   -0.497357
 O    5.966774   -4.015182    0.007263
 C    2.848556   -3.094033   -0.852357
 C    3.449177   -1.692509   -0.704554
 N    2.638271   -0.705489   -1.375469
 O    4.887530   -5.072089   -1.635486
 H    0.294801   -2.236428    0.820099
 H    0.765783   -1.612361    2.410649
 H    1.042489   -4.128673    3.048405
 H    1.260970   -4.403435    1.312386
 H   -2.875453   -2.255144    2.536213
 H   -1.814538   -1.680839   -0.030892
 H   -4.067467   -0.696698    1.732974
 H   -3.659213    0.259894    0.327896
 H   -3.958883   -1.734575   -1.140357
 H   -5.044488   -3.060586    1.379639
 H   -3.572439   -3.539226    0.526801
 H   -4.884362   -4.055960   -1.498750
 H   -5.469281   -4.981822   -0.114839
 H   -7.353527   -4.012205   -1.426849
 H   -7.311208   -3.366190    0.215489
 H   -6.200993   -1.995745   -2.273097
 H   -7.671592   -1.538477   -1.410203
 H   -6.344218   -1.026304    0.616460
 H   -5.769722   -0.082835   -0.757864
 H   -0.335439    1.573004    0.224058
 H   -2.233977    0.014316   -1.430022
 H   -1.138305    2.858396   -1.571321
 H   -2.137028    2.108938   -2.835346
 H   -4.511840    1.862897   -2.531011
 H   -2.089526    3.235251    0.704988
 H   -6.538037    2.419420   -1.248551
 H   -4.109547    3.747912    2.002075
 H   -6.342561    3.343035    1.030257
 H    1.477574    0.169019   -4.041932
 H    0.906861    1.753721   -1.613417
 H    3.371414    1.635081   -4.411788
 H    1.890609    2.591502   -4.306854
 H    3.410625    2.203324   -1.749295
 H    4.220597    3.183794   -2.954522
 H    2.664264    4.929176   -2.784802
 H    1.330778    3.833596   -2.386933
 H    3.253626    4.970068   -0.470968
 H    4.021104    6.189669    3.081368
 H    2.741760    5.194402    5.042605
 H    0.670266    2.767519    2.479720
 H    4.661260   -3.325865    1.620304
 H    2.998006   -5.062029    0.040622
 H    1.790944   -3.054523   -0.590713
 H    2.927195   -3.428090   -1.887521
 H    4.444306   -1.648201   -1.153001
 H    3.517177   -1.422664    0.352934
 H    1.717630   -0.534611   -1.000560
 H    5.776122   -5.203887   -2.004252
