37 
3u5l_ligand_dft.xyz
Cl    1.925849    4.055643   -0.853092
 C    0.724661    2.841116   -0.501400
 C    1.076469    1.500945   -0.544169
 C    0.130284    0.509683   -0.265312
 C    0.559422   -0.918117   -0.350160
 C    1.904111   -1.284995    0.176088
 C    2.435357   -0.648065    1.301739
 C    3.678124   -1.022579    1.802661
 C    4.405534   -2.032299    1.180998
 C    3.881439   -2.672289    0.059406
 C    2.638231   -2.305323   -0.438017
 N   -0.104113   -1.869148   -0.897849
 N   -1.383870   -1.579505   -1.418875
 C   -1.830922   -2.694855   -2.251759
 C   -2.302384   -1.236063   -0.425688
 N   -2.152451   -0.083079    0.303831
 C   -3.229817   -0.096171    1.170959
 C   -3.493474    0.911684    2.236513
 N   -3.953779   -1.157904    0.953423
 N   -3.367652   -1.886657   -0.061966
 C   -1.176584    0.902886    0.047618
 C   -1.521866    2.252815    0.079153
 C   -0.572384    3.228576   -0.184404
 H    2.093073    1.216956   -0.791347
 H    1.872037    0.137948    1.796045
 H    4.075774   -0.524356    2.681503
 H    5.378031   -2.320800    1.568329
 H    4.445546   -3.459889   -0.430873
 H    2.218879   -2.804121   -1.305074
 H   -1.091307   -2.836962   -3.040706
 H   -1.942796   -3.618800   -1.674287
 H   -2.791810   -2.429543   -2.694698
 H   -2.566535    1.238541    2.717421
 H   -4.008922    1.797803    1.850643
 H   -4.139848    0.448348    2.983859
 H   -2.544527    2.542759    0.288331
 H   -0.841188    4.278546   -0.161893
