37 
3u5l_ligand_ani.xyz
Cl    1.722861    4.171419   -0.841451
 C    0.592059    2.890374   -0.511784
 C    1.020748    1.580289   -0.499636
 C    0.130494    0.517558   -0.250923
 C    0.630004   -0.888870   -0.296336
 C    2.001197   -1.190680    0.202260
 C    2.555464   -0.543364    1.312803
 C    3.831534   -0.867979    1.757639
 C    4.570128   -1.847384    1.099649
 C    4.020623   -2.509682    0.005907
 C    2.739114   -2.195283   -0.431640
 N    0.050915   -1.891049   -0.867787
 N   -1.276189   -1.860923   -1.202285
 C   -1.688844   -3.013446   -2.008652
 C   -2.246437   -1.385484   -0.345213
 N   -2.152473   -0.175546    0.305953
 C   -3.303565   -0.135267    1.070840
 C   -3.663504    0.939383    2.044313
 N   -4.016203   -1.200118    0.861148
 N   -3.360433   -1.992498   -0.055813
 C   -1.214598    0.842089    0.016243
 C   -1.626236    2.172323    0.004542
 C   -0.739303    3.200493   -0.261244
 H    2.067216    1.359818   -0.687343
 H    1.985929    0.231383    1.820761
 H    4.252678   -0.348919    2.614132
 H    5.570185   -2.098565    1.442614
 H    4.590231   -3.283297   -0.504537
 H    2.297111   -2.722664   -1.270458
 H   -0.923863   -3.184415   -2.768870
 H   -1.805452   -3.912834   -1.392358
 H   -2.649467   -2.782985   -2.472389
 H   -2.775694    1.347254    2.534953
 H   -4.191618    1.764846    1.552725
 H   -4.335848    0.516103    2.792257
 H   -2.668985    2.419150    0.176433
 H   -1.073640    4.231509   -0.274363
