44 
3u6a_ligand_ani.xyz
 C    4.629085   -1.281850    0.256671
 N    3.524214   -0.547119    0.175323
 O    2.418380    2.739399   -0.554582
Cl    7.289278   -1.772512    0.110538
 C   -3.534986   -2.973241   -1.709787
 N   -3.781150   -1.807037   -0.883287
 O   -2.383773   -2.543503    0.749891
 C   -4.421682   -0.654743   -1.485791
 N   -6.335090    0.738848   -0.701723
 C   -5.272155    0.078935   -0.466529
 N   -4.771346    0.002082    0.806988
 C   -3.394016   -0.352922    1.053637
 N    1.254418    0.838109    0.032508
 C   -3.220882   -0.596822    2.549845
 C   -3.130266   -1.684320    0.306896
 C   -2.392163    0.708722    0.558651
 C   -2.756517    2.032252    0.293599
 C   -1.786769    2.956899   -0.076574
 C   -0.445340    2.600327   -0.182520
 C   -0.077858    1.285408    0.095429
 C   -1.051660    0.351255    0.459977
 C    2.377811    1.555309   -0.255308
 C    3.642470    0.736978   -0.175014
 C    4.860090    1.343298   -0.461609
 C    6.015242    0.577444   -0.379913
 C    5.889103   -0.756005   -0.013414
 H    4.519626   -2.325593    0.545466
 H   -4.465723   -3.276862   -2.200938
 H   -3.180789   -3.783065   -1.071016
 H   -2.775387   -2.774958   -2.478100
 H   -3.673641    0.037932   -1.907095
 H   -5.060417   -0.995519   -2.304763
 H   -6.568440    0.686049   -1.692440
 H   -5.233040    0.596747    1.480692
 H    1.422969   -0.135270    0.257978
 H   -3.407736    0.330396    3.102177
 H   -2.205691   -0.940309    2.765173
 H   -3.931683   -1.359252    2.878815
 H   -3.792668    2.349162    0.379167
 H   -2.076758    3.983466   -0.286418
 H    0.311159    3.319296   -0.469742
 H   -0.760142   -0.674596    0.674714
 H    4.877577    2.391823   -0.739435
 H    6.991832    1.000362   -0.593998
