67 
3u6i_ligand_ani.xyz
 C    9.210897    0.521131   -0.868310
 C    5.180127   -0.510351    1.920133
 C    6.258996   -0.105983    2.739778
 N    7.449721    0.235724    2.307323
 C    7.665460    0.188840    0.961952
 C    6.667766   -0.216654    0.043451
 C    5.394075   -0.557091    0.567592
 C    8.947641    0.561336    0.479047
 C    8.214171    0.105410   -1.792253
 C    6.974106   -0.254839   -1.342794
 O    4.463036   -0.987792   -0.339149
 C    3.126135   -0.760655   -0.144690
 C    2.588956    0.412397    0.368530
 C    2.256375   -1.752232   -0.591776
 C    0.887398   -1.596036   -0.525607
 C    0.356297   -0.401522   -0.024388
 C    1.211891    0.601262    0.425607
 N   -1.041494   -0.282126    0.006743
 C   -3.904799   -0.617385   -0.200043
 C   -3.240832    0.659620    0.002047
 C   -1.780848    0.862639    0.137786
 O   -1.289439    1.967822    0.346596
 N   -5.473212    1.044242   -0.091397
 C   -4.220333    1.626279    0.023117
 N   -5.267001   -0.340483   -0.261211
 O   -3.432138   -1.748514   -0.302722
 C   -6.296094   -1.284471    0.015547
 C   -6.209800   -2.566695   -0.524537
 C   -7.401318   -0.932582    0.797159
 C   -8.410071   -1.860936    1.033359
 C   -7.230756   -3.481044   -0.291678
 C   -8.330930   -3.137301    0.487312
 F    2.775134   -2.876145   -1.099883
 C   -4.067600    3.107411    0.137066
 C   -6.486009    1.603393   -1.009027
 C   -7.311821    2.716741   -0.350430
 C   -8.543734    3.038103   -1.175273
 O   -7.748400    2.324700    0.939080
 O   10.400618    0.859770   -1.427728
 C   11.418195    1.282139   -0.547234
 H    4.218498   -0.763100    2.357864
 H    6.110924   -0.061663    3.818735
 H    9.677343    0.867270    1.218892
 H    8.471510    0.087746   -2.846735
 H    6.199452   -0.576206   -2.032022
 H    3.249288    1.197481    0.724661
 H    0.252759   -2.402683   -0.883727
 H    0.800612    1.522249    0.812236
 H   -1.574927   -1.128411   -0.176217
 H   -5.346019   -2.840909   -1.116565
 H   -7.485342    0.071085    1.196747
 H   -9.266068   -1.575640    1.638938
 H   -7.155740   -4.477274   -0.720595
 H   -9.121149   -3.861190    0.667312
 H   -3.016259    3.355250    0.276942
 H   -4.418846    3.612499   -0.771630
 H   -4.634761    3.508937    0.985892
 H   -7.149763    0.780251   -1.287404
 H   -6.015847    1.968080   -1.934134
 H   -6.694442    3.626628   -0.266054
 H   -8.266249    3.343669   -2.190355
 H   -9.113519    3.847334   -0.711221
 H   -9.188367    2.155583   -1.238123
 H   -6.961906    2.009017    1.407908
 H   11.684031    0.490665    0.164965
 H   11.119432    2.181092    0.006785
 H   12.282404    1.512602   -1.171619
