61 
3u7l_ligand_ani.xyz
 C    1.370608    0.735944    0.289655
 N   -0.707396    1.862278   -0.206428
 O    1.281545    1.069429    1.464803
 F   -5.368730   -2.829135   -0.242778
 F   -7.350241    0.917007    1.754638
 C    0.603195    1.559058   -0.769497
 C    1.345409    2.861560   -1.190331
 C    0.491722    3.578131   -2.244860
 C    1.557341    3.804133    0.002823
 C    2.711838    2.532635   -1.803076
 C   -1.684633    0.879422   -0.310041
 O   -1.549651   -0.121738   -0.998211
 N   -2.819351    1.175287    0.412933
 C   -4.001548    0.418457    0.488598
 C   -4.083346   -0.898543    0.035218
 C   -5.289632   -1.561631    0.190767
 C   -6.415828   -0.993085    0.763271
 C   -6.288406    0.318124    1.194271
 C   -5.112182    1.035901    1.073963
 N    2.107556   -0.365714   -0.075106
 C    2.363346   -0.807181   -1.430088
 C    1.655665   -2.095179   -1.837837
 O    2.107014   -2.844571   -2.698754
 N    0.502402   -2.389850   -1.202400
 O   -0.174918   -3.502714   -1.680072
 C    2.725138   -1.136027    1.009736
 C    4.047635   -0.557055    1.512238
 C    4.688244   -1.399400    2.618053
 C    6.129191   -0.872218    2.711746
 C    6.471162   -0.352978    1.292704
 C    5.171046   -0.489982    0.469812
 H   -0.630934    2.248857    0.729786
 H    0.419039    0.956648   -1.662175
 H    0.340843    2.945042   -3.128102
 H   -0.489586    3.840958   -1.840361
 H    0.989337    4.496957   -2.574788
 H    2.151542    3.332920    0.791514
 H    2.082075    4.706788   -0.330544
 H    0.604858    4.124462    0.440088
 H    3.364180    1.997591   -1.104655
 H    3.222656    3.461500   -2.080501
 H    2.619121    1.935515   -2.718859
 H   -2.888038    2.108727    0.791177
 H   -3.241485   -1.394387   -0.430729
 H   -7.342440   -1.544751    0.866479
 H   -5.077589    2.059391    1.434388
 H    2.078801   -0.025009   -2.137617
 H    3.431841   -0.996208   -1.575028
 H   -0.149041   -1.689077   -0.860141
 H    0.431709   -3.803490   -2.390105
 H    1.999965   -1.177874    1.829632
 H    2.888065   -2.157694    0.644582
 H    3.869165    0.452885    1.904545
 H    4.143874   -1.336758    3.567678
 H    4.691070   -2.453763    2.307251
 H    6.181986   -0.048893    3.432483
 H    6.826082   -1.641698    3.059024
 H    7.290196   -0.914908    0.832070
 H    6.792445    0.692631    1.340342
 H    5.198768   -1.430567   -0.099512
 H    5.042040    0.325577   -0.252526
