55 
3u7m_ligand_dft.xyz
 C    1.628682    0.046876    0.040596
 N    0.009794   -1.686957    0.613229
 O    1.331483   -0.056194   -1.135061
 C    1.248421   -1.052973    1.030737
 C    2.407232   -2.065763    1.191299
 C   -1.972655    3.944523   -0.111864
 O    4.802442   -0.787805   -2.272027
 O   -1.156929    0.085278    1.481626
 O    5.013348    0.377366    0.015225
 F   -4.063387   -2.636582   -1.349127
 C    4.134253    0.227626   -2.111310
 C   -5.990460    0.343104   -0.606103
 C   -5.060520    1.035158    0.161324
 C   -5.659521   -0.908579   -1.120679
 C   -3.802166    0.500453    0.428471
 C   -0.867122    3.519459    0.852440
 C    0.260562    2.757825    0.154820
 C    1.309211    2.255740    1.150682
 C    3.251902    1.890369   -0.479514
 N   -2.218826   -1.388707    0.081860
 C   -1.131002   -0.910135    0.772517
 C   -4.409356   -1.425450   -0.852414
 C   -3.455239   -0.751971   -0.084474
 C    2.352073    1.260696    0.585459
 N    4.240073    0.966209   -0.984867
 C    2.707150   -2.853155   -0.087669
 C    2.120984   -3.003868    2.365624
 H    0.089821   -2.111277   -0.303559
 H    1.061862   -0.594194    2.004599
 H    3.299538   -1.470202    1.428855
 H   -1.582335    4.595018   -0.903249
 H   -2.427318    3.069790   -0.591295
 H   -2.766448    4.491119    0.408502
 H    5.361593   -0.407063   -0.463452
 H    3.435702    0.640475   -2.849401
 H   -6.968402    0.768234   -0.805382
 H   -5.308927    2.010270    0.568085
 H   -6.349612   -1.486606   -1.725278
 H   -3.086744    1.036140    1.036062
 H   -0.457957    4.401693    1.363102
 H   -1.289832    2.872507    1.630954
 H    0.724752    3.403339   -0.603717
 H   -0.176662    1.909098   -0.381949
 H    0.787158    1.764071    1.978513
 H    1.854230    3.105526    1.582383
 H    2.665181    2.214283   -1.343006
 H    3.762819    2.764384   -0.062364
 H   -2.135901   -2.282412   -0.379454
 H    2.983336    0.939151    1.421462
 H    2.940033   -2.204985   -0.936874
 H    1.867064   -3.502672   -0.362978
 H    3.571656   -3.504501    0.074587
 H    1.994460   -2.447660    3.300671
 H    2.943572   -3.713620    2.501257
 H    1.203230   -3.573256    2.185762
