57 
3u7n_ligand_ani.xyz
 C    1.851843   -0.052714   -0.094033
 N    0.049598   -1.713014    0.080560
 O    1.738829    0.011163   -1.303538
 C    1.300089   -1.267116    0.672776
 C    2.344473   -2.402051    0.774447
 C   -1.408438    4.209229   -0.367592
 C   -7.594885    0.231619   -0.389465
 O    5.745435   -0.419446   -1.808256
 O   -1.156007   -0.190177    1.305485
 O    5.244043    0.342064    0.615008
 C    4.903647    0.462454   -1.660332
 C   -5.244129    0.481810    0.539316
 C   -3.910094    0.110061    0.569095
 C   -5.612006   -1.141399   -1.141583
 C   -0.731916    3.316964    0.668265
 C    0.642677    2.826712    0.212756
 C    1.351551    1.986511    1.278688
 C    3.523968    1.833068   -0.081005
 N   -4.334702   -1.522874   -1.141095
 N   -2.186367   -1.371219   -0.383320
 C   -1.104370   -1.010933    0.401285
 C   -6.140867   -0.144156   -0.330323
 C   -3.503301   -0.905107   -0.300965
 C    2.467172    1.074839    0.731914
 N    4.619733    0.973715   -0.453191
 C    1.918005   -3.415018    1.836646
 C    2.606586   -3.101275   -0.561502
 H    0.133816   -1.963424   -0.897670
 H    1.061779   -0.935097    1.689772
 H    3.284564   -1.925735    1.100575
 H   -0.810222    5.107200   -0.562154
 H   -2.399598    4.533691   -0.033982
 H   -1.531669    3.680384   -1.320006
 H   -8.133561   -0.392044   -1.109217
 H   -8.075902    0.109347    0.587126
 H   -7.723397    1.277530   -0.689127
 H    5.792498   -0.316266    0.132066
 H    4.327293    0.917707   -2.481181
 H   -5.597372    1.268430    1.204732
 H   -3.186176    0.558573    1.238531
 H   -6.261768   -1.669775   -1.840220
 H   -0.633917    3.863174    1.617152
 H   -1.362220    2.438449    0.878314
 H    0.522691    2.229252   -0.702599
 H    1.272644    3.685075   -0.064863
 H    0.615917    1.349122    1.782245
 H    1.774603    2.649084    2.046437
 H    3.092641    2.228353   -1.002417
 H    3.916408    2.671284    0.507242
 H   -2.095504   -2.149168   -1.022920
 H    2.980384    0.612247    1.583004
 H    0.952745   -3.860934    1.571505
 H    1.817600   -2.947742    2.822891
 H    2.656185   -4.219845    1.919721
 H    2.828023   -2.388667   -1.363126
 H    1.744032   -3.706203   -0.866373
 H    3.461212   -3.780065   -0.466030
