54 
3u8w_ligand_ani.xyz
 C   -8.651630   -1.802813   -0.120921
 C   -7.672678   -2.608697    0.677972
 C   -7.218543   -1.889016   -0.559334
 N   -6.401480   -0.720852   -0.397654
 C   -5.127118   -0.827038    0.092592
 O   -4.697306   -1.871486    0.552102
 C   -4.291004    0.414171    0.027504
 C   -2.912289    0.262421    0.039168
 C   -4.832916    1.697762   -0.014097
 C   -3.988019    2.798151   -0.065503
 C   -2.600048    2.663238   -0.057832
 C   -1.754736    3.906976   -0.169280
 C   -2.052420    1.363940    0.027878
 C   -0.595565    1.141291    0.162913
 C    0.161515    1.807057    1.079572
 C    0.031606    0.131643   -0.734834
 O   -0.587171   -0.529233   -1.550190
 N    1.431156    0.006563   -0.654847
 C    2.191596   -0.302678   -1.866132
 C    2.823236    0.935141   -2.489124
 N    2.119126    0.607257    0.378522
 C    1.557869    1.553415    1.202077
 N    2.478807    2.047945    2.008885
 N    3.638662    1.399090    1.736484
 C    3.428576    0.520307    0.790094
 C    4.454731   -0.445873    0.317099
 C    4.352536   -1.837286    0.449314
Cl    2.939610   -2.543342    1.171635
 C    5.359706   -2.694254    0.012794
 C    6.507881   -2.163471   -0.560656
 C    6.655416   -0.789563   -0.699809
 C    5.632293    0.031083   -0.259225
 F    5.778275    1.359470   -0.411962
 H   -8.985767   -0.863124    0.309335
 H   -9.398534   -2.320648   -0.716026
 H   -7.724475   -3.693571    0.652303
 H   -7.328941   -2.185165    1.616030
 H   -6.996858   -2.507211   -1.428068
 H   -6.636584    0.078872   -0.966870
 H   -2.486694   -0.735681    0.054413
 H   -5.909701    1.852616    0.014417
 H   -4.416979    3.796879   -0.127238
 H   -2.332323    4.725185   -0.609244
 H   -1.411703    4.254143    0.811644
 H   -0.866097    3.741989   -0.786326
 H   -0.268995    2.523445    1.760282
 H    1.470954   -0.776442   -2.532068
 H    2.949672   -1.052063   -1.619352
 H    2.063565    1.698066   -2.679532
 H    3.580744    1.358488   -1.822009
 H    3.306352    0.669485   -3.434513
 H    5.232773   -3.764445    0.126478
 H    7.295291   -2.828499   -0.900998
 H    7.538410   -0.340443   -1.141178
