54 
3u8w_ligand_xtb.xyz
 C   -8.228042   -2.121359   -1.320484
 C   -8.910929   -1.303642   -0.260091
 C   -7.475674   -1.700395   -0.095310
 N   -6.456564   -0.709804   -0.194739
 C   -5.306499   -0.770076    0.520857
 O   -5.057673   -1.675444    1.294169
 C   -4.361326    0.359546    0.281019
 C   -3.004165    0.110722    0.440632
 C   -4.772604    1.647109   -0.046677
 C   -3.835651    2.649221   -0.212673
 C   -2.474606    2.406246   -0.077825
 C   -1.491132    3.521031   -0.244582
 C   -2.061019    1.109989    0.245306
 C   -0.635834    0.764765    0.410976
 C   -0.160801    0.305925    1.590545
 C    0.237276    0.918858   -0.758731
 O   -0.134265    1.331007   -1.841716
 N    1.568440    0.561018   -0.591940
 C    2.511902    0.881883   -1.646189
 C    3.238788    2.191717   -1.358211
 N    2.022819    0.073664    0.593321
 C    1.204479   -0.042404    1.701390
 N    1.900734   -0.508341    2.713314
 N    3.138222   -0.702408    2.302116
 C    3.237592   -0.368878    1.033385
 C    4.472621   -0.571426    0.273537
 C    4.607370   -1.643997   -0.610514
Cl    3.239573   -2.664858   -0.895305
 C    5.806605   -1.895580   -1.255350
 C    6.898904   -1.080096   -1.012062
 C    6.801045   -0.013974   -0.135263
 C    5.595128    0.220128    0.498253
 F    5.488350    1.267925    1.331099
 H   -7.988050   -1.637152   -2.255398
 H   -8.496746   -3.160321   -1.426346
 H   -9.650236   -1.778575    0.365024
 H   -9.129849   -0.269907   -0.482642
 H   -7.209433   -2.441480    0.646591
 H   -6.585387    0.019505   -0.877817
 H   -2.691793   -0.887473    0.709737
 H   -5.822529    1.887719   -0.134825
 H   -4.167329    3.650974   -0.445908
 H   -0.992979    3.425157   -1.208829
 H   -1.991653    4.485236   -0.207660
 H   -0.730165    3.487189    0.534040
 H   -0.787420    0.198925    2.460868
 H    1.912340    0.980122   -2.554130
 H    3.213340    0.057654   -1.772595
 H    2.526597    3.013019   -1.325755
 H    3.765961    2.154638   -0.408003
 H    3.960543    2.388548   -2.145670
 H    5.881429   -2.728738   -1.934998
 H    7.834590   -1.280098   -1.509534
 H    7.640257    0.631034    0.068389
