43 
3u90_ligand_dft.xyz
 S    4.432428    0.649038    0.162303
 O    5.190596    0.291493   -1.004203
 O    2.881887    0.321850   -0.071773
 O    4.814398    0.200851    1.482045
 O    4.298805    2.242321    0.171655
 C    2.563814   -1.090158   -0.181915
 C   -3.880986    4.393674   -0.519376
 C   -3.278781    3.020267   -0.228556
 C   -4.337817    1.936889   -0.022592
 C   -3.743070    0.560141    0.272855
 C   -4.807451   -0.522903    0.454807
 C   -4.281090   -1.900565    0.875692
 C   -3.283592   -2.541581   -0.105616
 C   -1.813346   -2.260726    0.218205
 C   -0.860062   -2.822815   -0.836773
 C    0.624273   -2.658252   -0.496906
 C    1.067041   -1.196265   -0.388264
 H    4.071414    2.524576    1.072309
 H    2.879562   -1.591941    0.739015
 H    3.118561   -1.504866   -1.029798
 H   -4.496028    4.368480   -1.426344
 H   -4.521662    4.724302    0.306309
 H   -3.102666    5.150133   -0.663431
 H   -2.644041    3.078869    0.665905
 H   -2.617398    2.726446   -1.054700
 H   -4.971957    1.874312   -0.918619
 H   -5.002807    2.230996    0.801997
 H   -3.121400    0.619330    1.178173
 H   -3.067850    0.283509   -0.548432
 H   -5.368814   -0.628783   -0.484547
 H   -5.533103   -0.182119    1.205910
 H   -5.145155   -2.564375    0.998659
 H   -3.814774   -1.824740    1.868257
 H   -3.504538   -2.197534   -1.126578
 H   -3.427296   -3.629664   -0.118845
 H   -1.572945   -2.699464    1.197469
 H   -1.658706   -1.181043    0.322482
 H   -1.064872   -2.340580   -1.803041
 H   -1.071288   -3.891104   -0.976760
 H    1.222500   -3.158813   -1.269629
 H    0.840815   -3.176085    0.447654
 H    0.793274   -0.651785   -1.300032
 H    0.563231   -0.701028    0.448612
