31 
3u92_ligand_dft.xyz
 N    1.060300   -0.822240    1.192314
 C    0.516494    0.517349    1.612073
 C   -2.400411    1.210478    1.161036
 C   -1.727603    2.768217   -0.657661
 C    1.384840   -0.719113   -0.263474
 C    0.241366    0.128664   -0.829908
 C   -0.971341   -0.669023   -1.329272
 C   -0.025405    1.166824    0.317390
 C   -1.712653   -1.537533   -0.341459
 C   -1.453723    1.681789    0.349534
 C    2.750509   -0.060956   -0.465652
 O    3.046969    0.563773   -1.443572
 O   -1.260775   -1.996930    0.699481
 O   -2.932841   -1.819097   -0.757035
 O    3.559572   -0.306869    0.575787
 H    0.276056   -1.509023    1.252802
 H    1.865218   -1.120767    1.748199
 H    1.338777    1.091703    2.039724
 H   -0.232203    0.350189    2.384241
 H   -3.409956    1.607417    1.121961
 H   -2.229113    0.428972    1.895814
 H   -1.425868    2.467341   -1.669397
 H   -2.786449    3.033500   -0.686001
 H   -1.155108    3.671757   -0.415343
 H    1.434386   -1.729411   -0.682115
 H    0.633595    0.652934   -1.704204
 H   -1.697278    0.012914   -1.778427
 H   -0.650293   -1.335452   -2.141188
 H    0.618749    2.025856    0.099828
 H   -3.350838   -2.422795   -0.118775
 H    4.432387    0.083342    0.393751
