20 
3u93_ligand_ani.xyz
 N    0.880574    1.745732    0.129329
 C    1.133257    0.427064    0.802036
 C    1.724762   -0.534604   -0.219492
 O    1.701546   -1.737505   -0.172910
 C   -0.083581   -0.149452    1.538965
 C   -1.139411   -0.873841    0.701909
 C   -1.948420    0.009033   -0.209902
 O   -1.761164    1.191983   -0.418510
 O   -2.950255   -0.655826   -0.795939
 O    2.357275    0.151091   -1.198978
 H   -0.121584    1.787542   -0.150999
 H    1.108441    2.528501    0.759326
 H    1.478118    1.787474   -0.711427
 H    1.932086    0.571261    1.534646
 H    0.295558   -0.863694    2.274643
 H   -0.552744    0.665885    2.100745
 H   -0.674934   -1.656234    0.091995
 H   -1.850319   -1.381494    1.363625
 H   -3.418705   -0.016808   -1.359958
 H    2.741203   -0.509713   -1.798292
