20 
3u93_ligand_xtb.xyz
 N    0.801927    1.683601    0.412459
 C    1.138822    0.313356    0.874018
 C    1.727025   -0.496954   -0.296167
 O    1.661076   -1.682342   -0.385697
 C   -0.071565   -0.371055    1.523381
 C   -1.130370   -0.946052    0.575370
 C   -1.908690    0.035456   -0.254579
 O   -1.535349    1.169557   -0.530685
 O   -3.038174   -0.449951   -0.682843
 O    2.335084    0.306939   -1.166765
 H   -0.196884    1.614484   -0.041622
 H    0.774225    2.355747    1.182282
 H    1.481175    1.993704   -0.292418
 H    1.943150    0.373602    1.618275
 H    0.304247   -1.209598    2.110307
 H   -0.536924    0.332656    2.216184
 H   -0.665422   -1.657823   -0.113488
 H   -1.850796   -1.523214    1.157517
 H   -3.540332    0.166166   -1.245337
 H    2.761641   -0.193057   -1.883127
