25 
3u9c_ligand_ani.xyz
 O    4.774180   -1.183617    0.000317
 O    0.005851   -1.164047   -0.000501
 N   -0.001077    1.636950   -0.000598
 O   -4.692280   -1.321560    0.000363
 C    2.440063    1.596019    0.000202
 C    3.623445    0.877356    0.000289
 C    3.586385   -0.522313    0.000179
 C    2.362761   -1.186431   -0.000096
 C    1.185485   -0.453449   -0.000248
 C    1.204052    0.946747   -0.000158
 C   -1.204815    0.943515   -0.000259
 C   -1.179167   -0.459772   -0.000278
 C   -2.347381   -1.200754   -0.000085
 C   -3.575348   -0.545384    0.000173
 C   -3.622339    0.853060    0.000275
 C   -2.442118    1.583597    0.000042
 H    4.602043   -2.133731    0.000168
 H   -0.001980    2.643010    0.000759
 H   -5.471279   -0.752080    0.000538
 H    2.465304    2.683611    0.000389
 H    4.585787    1.378548    0.000419
 H    2.302157   -2.272847   -0.000201
 H   -2.304452   -2.284785   -0.000130
 H   -4.580178    1.369922    0.000536
 H   -2.478007    2.670340    0.000057
