32 
3u9q_ligand_dft.xyz
 C    4.694242    0.296790    0.000087
 O    4.697893    1.466103   -0.272667
 C    3.443914   -0.554299    0.153385
 C    2.157001    0.230939   -0.073931
 C    0.907918   -0.635084    0.082169
 C   -0.386883    0.145170   -0.143545
 C   -1.642167   -0.712847    0.010969
 C   -2.937315    0.066740   -0.216694
 C   -4.189758   -0.795148   -0.047719
 C   -5.501745   -0.072861   -0.371064
 C   -5.805023    1.109060    0.550489
 O    5.864347   -0.357299    0.194855
 H    3.449189   -0.998828    1.159182
 H    3.509540   -1.395286   -0.552094
 H    2.183631    0.676346   -1.074843
 H    2.123127    1.070696    0.629373
 H    0.891630   -1.080619    1.087362
 H    0.951948   -1.476166   -0.624803
 H   -0.371238    0.590404   -1.148172
 H   -0.430889    0.985967    0.562760
 H   -1.657965   -1.156318    1.016923
 H   -1.596095   -1.555414   -0.693783
 H   -2.928513    0.499617   -1.227565
 H   -2.968866    0.914690    0.480115
 H   -4.230155   -1.174546    0.983592
 H   -4.101615   -1.677825   -0.695688
 H   -6.325211   -0.795209   -0.309406
 H   -5.474830    0.274007   -1.412923
 H   -5.802815    0.795977    1.601467
 H   -5.066156    1.909667    0.440044
 H   -6.788699    1.536772    0.330814
 H    5.694953   -1.285136    0.405268
