43 
3ua8_ligand_dft.xyz
 O   -6.263976   -2.838400    0.016505
 C   -5.779290   -1.746109   -0.211778
 N   -6.415896   -0.785473   -0.955180
 C   -7.770873   -1.004150   -1.417597
 C   -4.415991   -1.347124    0.242182
 N   -3.865012   -1.834612    1.404438
 C   -2.675302   -1.308404    1.467901
 C   -3.532789   -0.519143   -0.399765
 N   -2.407778   -0.495009    0.393716
 C   -1.190422    0.193011    0.155571
 C   -0.049915   -0.542364   -0.115778
 C    1.169875    0.094936   -0.332609
 C    2.374969   -0.714073   -0.602315
 O    2.391491   -1.924963   -0.596431
 N    3.525342    0.043350   -0.850840
 N    4.705424   -0.651817   -1.087858
 S    5.554374   -1.077954    0.369042
 O    4.852735   -0.475276    1.489416
 C    5.300944   -2.838097    0.409473
 O    6.950434   -0.804369    0.080776
 C    3.637575    1.443282   -0.772427
 O    4.687402    2.009087   -0.975685
 N    2.461223    2.100585   -0.509011
 C    1.244803    1.486750   -0.281471
 C    0.098531    2.235747   -0.000710
 C   -1.108109    1.596608    0.224574
 C   -2.327267    2.438005    0.543820
 F   -3.195865    2.440537   -0.483120
 F   -2.971378    1.987892    1.623029
 F   -1.991332    3.715315    0.775767
 H   -6.103806    0.167259   -0.843907
 H   -7.853654   -2.028483   -1.783743
 H   -8.509478   -0.868664   -0.617821
 H   -7.990666   -0.310570   -2.232800
 H   -1.950635   -1.450444    2.258445
 H   -3.576501    0.006776   -1.340112
 H   -0.094086   -1.625118   -0.167561
 H    5.330001   -0.037125   -1.612603
 H    5.769154   -3.203576    1.325505
 H    4.227706   -3.027706    0.402974
 H    5.777754   -3.272531   -0.469378
 H    2.546706    3.106209   -0.459749
 H    0.156463    3.316483    0.057074
