61 
3ubd_ligand_ani.xyz
 C    5.874796   -2.672342   -1.117748
 C    4.672440   -1.776081   -1.167241
 O    4.570075   -0.772827   -1.829836
 O    3.696484   -2.207100   -0.330789
 C    2.548085   -1.350507   -0.172303
 C    1.389015   -2.288681    0.123220
 O    1.699343   -3.110191    1.223409
 C    2.743169   -0.396444    1.008497
 O    3.725375    0.594494    0.678324
 C    5.015590    0.292223    0.943947
 O    5.357204   -0.703813    1.535086
 C    5.940386    1.323738    0.368215
 C    1.440995    0.362890    1.257743
 C    1.511981    1.255442    2.482532
 O    0.352736   -0.540709    1.473813
 C    0.143024   -1.505539    0.496391
 O   -0.389312   -0.936767   -0.693591
 C   -1.675592   -0.482344   -0.526884
 C   -2.774732   -1.432474   -0.678565
 O   -2.613436   -2.589579   -1.083178
 C   -1.936678    0.826794   -0.254222
 C   -0.976019    1.911884   -0.493700
 C   -0.885573    2.997393    0.394431
 C    0.036936    4.005945    0.191213
 C    0.870900    3.966886   -0.930123
 O    1.754493    4.987024   -1.083989
 C    0.770067    2.911490   -1.837918
 C   -0.143175    1.888916   -1.613316
 O   -3.121208    1.227603    0.277220
 C   -4.206260    0.402909    0.195527
 C   -5.413011    0.930429    0.624736
 C   -6.549425    0.133050    0.516686
 O   -7.718287    0.675058    0.936157
 C   -6.486135   -1.160276   -0.003658
 C   -5.260725   -1.677259   -0.414754
 C   -4.083625   -0.897992   -0.309571
 O   -5.230297   -2.913752   -0.903693
 H    6.331092   -2.595835   -0.126301
 H    5.592247   -3.715025   -1.289796
 H    6.587635   -2.345098   -1.874588
 H    2.390975   -0.789167   -1.095235
 H    1.171023   -2.882640   -0.777004
 H    2.594317   -3.436216    1.054214
 H    3.056854   -0.953536    1.898112
 H    6.959523    1.102679    0.685953
 H    5.652364    2.328719    0.689236
 H    5.878556    1.277907   -0.723219
 H    1.256492    0.973666    0.366367
 H    1.648728    0.645247    3.381013
 H    0.579568    1.818937    2.584718
 H    2.345726    1.958322    2.393577
 H   -0.593510   -2.197451    0.910608
 H   -1.540027    3.022647    1.263497
 H    0.121335    4.839994    0.881536
 H    2.262019    4.843691   -1.892567
 H    1.412468    2.880977   -2.716333
 H   -0.205583    1.067061   -2.324547
 H   -5.471600    1.936219    1.018360
 H   -8.428865    0.034062    0.809394
 H   -7.371934   -1.781972   -0.095196
 H   -4.293355   -3.129019   -1.112072
