60 
3ud8_ligand_dft.xyz
 N   -1.432784   -0.758007    0.720580
 C   -0.237767    1.345861    1.364684
 S   -1.516087   -1.798970    2.001090
 C   -1.571774    0.670229    0.970283
 C   -2.179589    1.295858   -0.280985
 O   -3.571039    0.893661   -0.402975
 C   -2.184926    2.816978   -0.221562
 O   -2.634813    3.367192   -1.434263
 C   -0.737041    3.249744    0.021005
 O   -0.328047    2.741441    1.288398
 C   -0.563224    4.762784    0.032360
 O    0.791383    5.169948   -0.101703
 O   -5.268009   -0.069363   -1.837862
 S   -3.932520   -0.518140   -1.082206
 O   -0.812545   -1.321414    3.168019
 O   -2.932445   -0.870775   -2.052329
 O   -1.203139   -3.112055    1.458550
 O   -4.385686   -1.423491   -0.052447
 O   -3.057256   -1.699816    2.350057
 S    0.917322   -3.149954   -1.246964
 C    3.421682   -0.795037   -0.962829
 O    4.726442   -0.925526   -0.457749
 C    2.530403   -1.544209    0.039529
 O    1.221366   -1.720760   -0.532788
 C    2.393202   -0.761667    1.350971
 O    3.583137   -0.847376    2.097002
 C    2.055525    0.711969    1.075672
 O    0.746273    0.823619    0.526738
 C    3.040368    1.297061    0.061337
 O    3.051604    0.545441   -1.131680
 C    2.611624    2.717150   -0.255878
 C    5.730141   -0.426026   -1.329012
 O    2.634112    3.451767    0.850499
 O    2.239556    3.107497   -1.341542
 O    2.060281   -3.542781   -2.026236
 O   -0.394590   -2.968977   -1.802055
 O    0.880338   -4.114053    0.010783
 H   -0.647602   -0.989887    0.107396
 H   -0.016853    1.125434    2.413066
 H   -2.280046    0.815013    1.791648
 H   -1.646804    0.978148   -1.182490
 H   -2.800898    3.149954    0.627859
 H   -3.573116    3.158453   -1.519292
 H   -0.109735    2.827672   -0.774704
 H   -0.915175    5.162914    0.986500
 H   -1.166622    5.190897   -0.774561
 H    1.128718    4.820678   -0.945846
 H   -5.034565    0.166145   -2.751288
 H   -3.588832   -1.788245    1.522089
 H    3.337884   -1.242103   -1.958766
 H    2.978917   -2.516925    0.255245
 H    1.594200   -1.202041    1.955788
 H    4.328386   -0.840013    1.475001
 H    2.134681    1.271665    2.011471
 H    4.035415    1.329184    0.525511
 H    5.698003   -0.956496   -2.288363
 H    5.602212    0.646611   -1.507089
 H    6.687402   -0.611287   -0.841133
 H    2.059537    4.245927    0.701958
 H    0.097819   -3.880234    0.570407
