60 
3ud8_ligand_ani.xyz
 N   -1.444985   -0.843234    0.660799
 C   -0.274397    1.280866    1.283443
 S   -1.470399   -1.893957    1.933459
 C   -1.609207    0.590045    0.891050
 C   -2.241329    1.214979   -0.351394
 O   -3.667442    0.914605   -0.389522
 C   -2.206661    2.733483   -0.312807
 O   -2.670758    3.267526   -1.531624
 C   -0.771528    3.172618   -0.077728
 O   -0.357850    2.681414    1.203455
 C   -0.618517    4.686516   -0.071012
 O    0.736085    5.113496   -0.118970
 O   -5.640624   -0.006680   -1.421757
 S   -4.206875   -0.484634   -0.928420
 O   -0.640030   -1.456908    3.026791
 O   -3.421718   -0.908789   -2.059666
 O   -1.246586   -3.218578    1.366708
 O   -4.454804   -1.361591    0.190936
 O   -2.970230   -1.768127    2.391561
 S    1.095856   -3.065128   -1.385645
 C    3.582675   -0.710117   -0.906057
 O    4.872715   -0.763155   -0.355882
 C    2.665649   -1.517307    0.018282
 O    1.398595   -1.653249   -0.662628
 C    2.422899   -0.794486    1.347097
 O    3.573114   -0.860218    2.157940
 C    2.049277    0.681269    1.117756
 O    0.786999    0.821276    0.502852
 C    3.077489    1.328222    0.165729
 O    3.121517    0.611885   -1.046709
 C    2.626576    2.751377   -0.109968
 C    5.871955   -0.226740   -1.214003
 O    2.484322    3.413600    1.037543
 O    2.399403    3.230857   -1.200798
 O    2.311943   -3.567314   -1.970180
 O   -0.083288   -2.842698   -2.180475
 O    0.777336   -3.996139   -0.149657
 H   -0.746216   -1.097913   -0.037064
 H   -0.088091    1.042300    2.335772
 H   -2.311345    0.728555    1.716988
 H   -1.762430    0.833961   -1.261659
 H   -2.819082    3.077682    0.537691
 H   -3.569447    2.933178   -1.656523
 H   -0.141549    2.749944   -0.875970
 H   -1.035979    5.072996    0.865571
 H   -1.185294    5.109923   -0.911170
 H    1.167122    4.675786   -0.878703
 H   -5.568019    0.284751   -2.345562
 H   -3.571424   -1.792310    1.606132
 H    3.600064   -1.138730   -1.912575
 H    3.098413   -2.502727    0.216410
 H    1.598830   -1.281946    1.880294
 H    4.332000   -0.879820    1.553586
 H    2.094363    1.195351    2.086564
 H    4.063390    1.375856    0.654853
 H    5.876368   -0.754582   -2.177285
 H    5.705572    0.842324   -1.392045
 H    6.834948   -0.373128   -0.721571
 H    1.964692    4.232871    0.858996
 H   -0.038176   -3.686257    0.319688
