48 
3udd_ligand_dft.xyz
 S    1.020861   -1.128478   -0.003450
 C    0.096293   -2.695676   -0.047679
 C   -1.361767   -2.398723   -0.059379
 N   -1.957244   -1.252033   -0.008290
 C   -3.288684   -1.613577   -0.049657
 N   -3.485101   -2.905504   -0.121698
 O   -2.198500   -3.432815   -0.128855
 C   -4.379341   -0.636142   -0.014840
 C   -5.718710   -1.046944   -0.070099
 C   -6.737288   -0.115375   -0.035205
 C   -6.440211    1.251312    0.056146
 C   -5.109500    1.669601    0.111661
 C   -4.090098    0.722721    0.075629
 O   -7.509174    2.081486    0.083799
 C   -7.272383    3.469025    0.176410
 C    2.617210   -1.863195   -0.017431
 N    3.760056   -1.110630    0.028629
 C    4.775483   -2.041649    0.004825
 N    4.277402   -3.245994   -0.050442
 N    2.901880   -3.136527   -0.064167
 C    6.219309   -1.682618    0.026078
 C    3.874575    0.309088    0.083182
 C    4.216412    0.934095    1.283892
 C    4.340935    2.310197    1.333981
 C    4.113165    3.080238    0.185820
 C    3.764210    2.454734   -1.013397
 C    3.652091    1.067746   -1.058264
 O    4.254917    4.415485    0.341333
 C    4.024979    5.246654   -0.776779
 H    0.355867   -3.304957    0.822273
 H    0.377868   -3.269430   -0.934470
 H   -5.951728   -2.104571   -0.140602
 H   -7.778233   -0.417412   -0.077111
 H   -4.852865    2.719964    0.183121
 H   -3.053891    1.041744    0.118991
 H   -6.740637    3.724959    1.101604
 H   -6.699955    3.837155   -0.684476
 H   -8.255245    3.941205    0.183702
 H    6.475614   -1.022490   -0.809111
 H    6.492975   -1.168234    0.953153
 H    6.802924   -2.600954   -0.053132
 H    4.375939    0.332772    2.173442
 H    4.605253    2.818002    2.254969
 H    3.580791    3.028078   -1.914078
 H    3.385452    0.571671   -1.986160
 H    4.727070    5.026864   -1.590798
 H    2.996448    5.146645   -1.145266
 H    4.185612    6.267132   -0.428655
