33 
3udj_ligand_xtb.xyz
 C    4.004116   -1.490660   -0.166101
 C    4.521205   -0.368212   -0.792270
 C    2.696113   -1.509121    0.303571
 C    3.754596    0.777273   -0.968320
 C    1.928765   -0.376587    0.138024
 C    2.460568    0.752681   -0.494737
 C    0.355466    1.387387    0.059280
 C   -3.040644   -0.249756   -0.025715
 C   -0.552135   -0.962335   -0.218420
 C    0.043825   -0.163411    1.956103
 C   -1.806708   -0.860728    0.670146
 C    0.501887   -0.086196    0.494056
 C   -4.526425   -0.474124   -1.818931
 N    1.493922    1.766740   -0.529007
 N   -1.400722    0.058588    1.761973
 O   -0.643947    2.054390    0.280591
 O   -3.574486    0.728983    0.417459
 O   -3.380565   -0.933461   -1.091885
 H    4.623621   -2.364245   -0.041650
 H    5.538145   -0.380255   -1.150660
 H    2.300705   -2.388393    0.787808
 H    4.158992    1.649497   -1.455622
 H   -0.197562   -1.990014   -0.282670
 H   -0.743986   -0.611700   -1.231561
 H    0.237362   -1.146423    2.391293
 H    0.484436    0.609804    2.586017
 H   -2.083678   -1.838173    1.074662
 H   -4.553095   -1.056840   -2.735128
 H   -4.433118    0.590542   -2.035685
 H   -5.430407   -0.641653   -1.232619
 H    1.656415    2.690295   -0.903838
 H   -1.984576   -0.004728    2.597461
 H   -1.477443    1.048421    1.332001
