44 
3udk_ligand_ani.xyz
 C    5.376468   -0.354421    1.033916
 C    5.397874   -1.661336    0.525598
 C    4.245279    0.438725    0.882608
 C    4.298260   -2.193532   -0.134449
 C    3.136764   -0.087029    0.222674
 C    3.175684   -1.386464   -0.274069
 C    1.080299   -0.621981   -0.826889
 C   -1.321405    1.571501   -0.028015
 C   -3.131042   -0.735534   -0.746770
 C   -3.986052   -0.268337    1.554891
 C    0.972002    1.040921    1.098385
 C    1.884088    1.798816   -0.997902
 C   -4.484981   -1.382774   -1.016579
 C   -5.284575   -0.945841    1.137583
 C    0.011481    2.076335    0.515701
 C   -3.287050    0.321359    0.341192
 C    1.797890    0.539569   -0.097608
 N    1.959977   -1.676989   -0.888654
 N    0.702627    2.668956   -0.678292
 O   -0.049891   -0.616452   -1.267795
 O   -1.707311    1.947750   -1.117767
 O   -5.051855   -1.934043    0.153979
 O   -1.997434    0.790054    0.807757
 H    6.251016    0.039364    1.544725
 H    6.290067   -2.269774    0.648710
 H    4.228039    1.455506    1.271440
 H    4.316251   -3.206551   -0.528938
 H   -2.418537   -1.498199   -0.415025
 H   -2.743290   -0.283380   -1.663454
 H   -4.177008    0.515303    2.295945
 H   -3.320670   -1.010640    2.011011
 H    1.654870    1.543794    1.791652
 H    0.464096    0.244691    1.641094
 H    2.816703    2.324078   -0.771234
 H    1.896094    1.539900   -2.055961
 H   -5.174994   -0.636308   -1.450423
 H   -4.387699   -2.206155   -1.730289
 H   -5.757606   -1.455404    1.982174
 H   -5.995517   -0.193173    0.751940
 H   -0.217397    2.861324    1.238330
 H   -3.843923    1.181596   -0.052904
 H    1.716942   -2.557958   -1.314972
 H    0.959948    3.660754   -0.543186
 H   -0.029597    2.609136   -1.433019
