44 
3udn_ligand_xtb.xyz
 C    0.596450    3.551800   -0.565756
 C   -4.746729   -0.499868    1.130761
 C   -4.780929    0.855972    0.846467
 C    2.577841    2.142057   -0.757392
 C    1.273328    2.157029    1.283509
 C   -3.649016   -1.277865    0.781394
 C    3.322042    1.085816   -0.266895
 C    2.026327    1.106636    1.763420
 C   -3.723861    1.483731    0.199244
 C    1.523651    2.648940    0.000053
 C   -2.596540   -0.665984    0.135233
 C    3.026304    0.539495    0.975737
 C   -2.642107    0.703653   -0.148496
 C   -0.649190    0.048943   -1.000255
 C    2.100762   -1.997055    0.046783
 C   -0.354815   -1.753575    0.767659
 C   -1.228665   -2.332774   -1.368411
 C    0.682723   -2.609945    0.016282
 C   -1.276596   -1.198221   -0.337707
 C    3.593366   -0.790736    1.394968
 N   -0.254841    4.164661   -1.030598
 N   -1.470600    1.084810   -0.814098
 N    0.227150   -2.574110   -1.398807
 O    0.408234    0.020151   -1.614292
 O    2.688856   -1.778186   -0.976092
 O    2.496145   -1.733575    1.269427
 H   -5.583111   -0.960345    1.631590
 H   -5.643508    1.437096    1.131034
 H    2.777094    2.543499   -1.738519
 H    0.474858    2.579431    1.875614
 H   -3.631546   -2.332345    1.009114
 H    4.105914    0.657101   -0.870982
 H    1.821127    0.697335    2.742025
 H   -3.747561    2.537811   -0.024345
 H    0.117356   -0.953488    1.336711
 H   -0.938708   -2.360151    1.459045
 H   -1.600619   -2.039050   -2.350286
 H   -1.767160   -3.217012   -1.020187
 H    0.713878   -3.633745    0.395701
 H    4.424262   -1.102517    0.759090
 H    3.874102   -0.826570    2.447148
 H   -1.293774    2.025594   -1.147663
 H    0.658446   -1.664649   -1.784213
 H    0.535024   -3.370932   -1.958287
