38 
3ueu_ligand_ani.xyz
 O    6.983593   -0.900786    0.026781
 O    6.077099    1.090456   -0.323732
 C    5.915830   -0.075905   -0.085056
 C    4.562186   -0.735217    0.113707
 C    3.406660    0.243800   -0.059660
 C    2.045839   -0.410295    0.163491
 C    0.873882    0.550843   -0.027279
 C   -0.485814   -0.104798    0.208838
 C   -1.661790    0.843061   -0.015666
 C   -3.018730    0.187885    0.235629
 C   -4.193554    1.129190   -0.030260
 C   -5.562274    0.543262    0.328086
 C   -5.923325   -0.725926   -0.444474
 C   -7.337216   -1.216342   -0.141885
 H    6.691813   -1.802857    0.218105
 H    4.542210   -1.183874    1.118083
 H    4.472863   -1.569011   -0.598245
 H    3.459931    0.677847   -1.065533
 H    3.546265    1.080431    0.635375
 H    2.007313   -0.832178    1.178906
 H    1.932426   -1.259352   -0.527024
 H    0.906315    0.965441   -1.046117
 H    0.989111    1.407177    0.654018
 H   -0.526171   -0.500250    1.234960
 H   -0.588654   -0.974557   -0.457171
 H   -1.627590    1.225826   -1.046800
 H   -1.553147    1.720918    0.638889
 H   -3.063012   -0.167944    1.276079
 H   -3.106731   -0.705957   -0.397785
 H   -4.186210    1.414764   -1.093046
 H   -4.043587    2.057574    0.538176
 H   -6.334286    1.303463    0.145140
 H   -5.594419    0.326350    1.406361
 H   -5.206799   -1.521992   -0.206419
 H   -5.821590   -0.532354   -1.521341
 H   -7.456189   -1.436050    0.925792
 H   -8.083573   -0.458851   -0.408644
 H   -7.571979   -2.129275   -0.698972
