44 
3uev_ligand_ani.xyz
 C    5.413554    1.294891    0.038220
 O    4.567685    2.140960    0.159333
 O    6.262822    1.337832   -1.017541
 C    5.589707    0.112467    0.978075
 C    5.292401   -1.229945    0.288509
 C    3.973407   -1.249748   -0.493505
 C    2.752885   -0.836850    0.328838
 C    1.445242   -0.971545   -0.449247
 C    0.224640   -0.539440    0.361052
 C   -1.090138   -0.656463   -0.408165
 C   -2.299965   -0.186537    0.397803
 C   -3.619079   -0.304363   -0.363611
 C   -4.819936    0.204121    0.432061
 C   -6.141813    0.080101   -0.322718
 C   -7.338346    0.621245    0.458496
 C   -8.654300    0.483996   -0.303489
 H    6.869717    0.585868   -0.981264
 H    4.913460    0.267511    1.822379
 H    6.611852    0.113677    1.381236
 H    5.280105   -2.013288    1.056369
 H    6.116898   -1.486909   -0.390060
 H    3.816636   -2.262156   -0.890033
 H    4.055709   -0.587451   -1.367785
 H    2.861948    0.205287    0.657238
 H    2.698745   -1.449831    1.241599
 H    1.315756   -2.013247   -0.780499
 H    1.506463   -0.364275   -1.365058
 H    0.360349    0.502132    0.689338
 H    0.164014   -1.142999    1.279192
 H   -1.240450   -1.701299   -0.718827
 H   -1.022349   -0.069030   -1.336229
 H   -2.148089    0.860477    0.700646
 H   -2.365151   -0.766845    1.330503
 H   -3.784854   -1.355021   -0.645570
 H   -3.545910    0.256727   -1.307429
 H   -4.654023    1.257481    0.704176
 H   -4.889327   -0.347756    1.381633
 H   -6.319379   -0.975954   -0.575487
 H   -6.065040    0.613459   -1.282098
 H   -7.160518    1.678221    0.700840
 H   -7.410574    0.093160    1.419445
 H   -8.612683    1.021034   -1.258513
 H   -8.871879   -0.567539   -0.524890
 H   -9.495034    0.886646    0.270901
