50 
3uew_ligand_ani.xyz
 C    7.690020   -1.282001    0.146146
 O    8.032725   -2.393557   -0.151983
 O    8.579322   -0.261512    0.096160
 C    6.287929   -0.925520    0.617067
 C    5.664766    0.304082   -0.047070
 C    4.202218    0.489953    0.353174
 C    3.573631    1.732981   -0.275500
 C    2.122921    1.990153    0.143408
 C    1.132972    0.920433   -0.319239
 C   -0.312574    1.259353    0.040083
 C   -1.320098    0.217426   -0.441055
 C   -2.764231    0.579099   -0.097250
 C   -3.783134   -0.441460   -0.599099
 C   -5.224890   -0.060451   -0.267417
 C   -6.247126   -1.063071   -0.803091
 C   -7.705534   -0.658388   -0.570741
 C   -8.105358   -0.563755    0.902047
 C   -9.585846   -0.240319    1.087648
 H    8.153794    0.561816    0.370860
 H    6.322712   -0.779731    1.707203
 H    5.672475   -1.808877    0.434573
 H    5.740258    0.209294   -1.138362
 H    6.223557    1.213677    0.222873
 H    4.131704    0.561142    1.448501
 H    3.635718   -0.406298    0.066268
 H    3.626066    1.646770   -1.371386
 H    4.179307    2.609316   -0.007430
 H    1.805638    2.962364   -0.258444
 H    2.070682    2.079275    1.239187
 H    1.394698   -0.052680    0.119101
 H    1.216139    0.797300   -1.409541
 H   -0.573348    2.237903   -0.390678
 H   -0.399557    1.374446    1.130931
 H   -1.075115   -0.761422   -0.002412
 H   -1.224969    0.096205   -1.530612
 H   -3.001421    1.565608   -0.523502
 H   -2.861522    0.687257    0.993278
 H   -3.556633   -1.428216   -0.167961
 H   -3.677301   -0.552855   -1.688734
 H   -5.440979    0.934737   -0.684363
 H   -5.327805    0.036290    0.822450
 H   -6.062723   -2.045034   -0.341628
 H   -6.082887   -1.195063   -1.881647
 H   -8.361171   -1.385488   -1.069423
 H   -7.895946    0.309908   -1.057493
 H   -7.502665    0.203171    1.404281
 H   -7.869680   -1.514723    1.399481
 H   -9.836974    0.723506    0.629121
 H  -10.218356   -1.003865    0.619684
 H   -9.854059   -0.186268    2.147745
