69 
3ufl_ligand_ani.xyz
 C    2.636981    1.242114   -0.072944
 C    3.355129    2.600754    0.228534
 N    2.275220    3.522139    0.662016
 C    1.444182    2.684478    1.551352
 C    1.246048    1.444194    0.662780
 C    0.115390    1.831758   -0.295837
 O    0.170384    2.941838   -0.836451
 N   -0.931065    0.983775   -0.520621
 C   -1.993214    1.425028   -1.425391
 C   -3.311742    1.612910   -0.676217
 C   -3.573326    0.463032    0.325071
 C   -2.615552   -0.708575    0.068942
 C   -1.159533   -0.261472    0.228716
 C   -5.023044    0.011319    0.336537
 C   -5.638057   -0.475419   -0.818858
 C   -6.954705   -0.924481   -0.792987
 C   -7.682419   -0.891625    0.393554
 C   -7.082269   -0.408723    1.552025
 C   -5.763903    0.036240    1.520467
 C    2.494802    1.044290   -1.604937
 C    3.811977    0.631355   -2.255951
 C    4.219181   -0.746160   -1.747684
 C    4.151022   -0.849076   -0.236339
 C    3.418062    0.064813    0.538564
 C    4.823403   -1.899525    0.396991
 C    4.818460   -2.043735    1.777179
 C    4.128082   -1.116864    2.551378
 C    3.442919   -0.080605    1.933943
 C   -0.192884   -1.382309   -0.141521
 C    0.457754   -2.098241    0.864507
 C    1.357160   -3.113122    0.555692
 C    1.602147   -3.442331   -0.775011
 C    0.934690   -2.753461   -1.783957
 C    0.039057   -1.736188   -1.470354
 H    4.089064    2.478107    1.032124
 H    3.874390    3.009837   -0.639594
 H    2.599945    4.393036    1.086678
 H    1.650499    3.713763   -0.160926
 H    1.979339    2.461253    2.478862
 H    0.511025    3.183468    1.803551
 H    0.970339    0.562136    1.231715
 H   -2.124871    0.685750   -2.227461
 H   -1.663467    2.356639   -1.883015
 H   -4.125522    1.686822   -1.406825
 H   -3.293810    2.566102   -0.137383
 H   -3.342369    0.838588    1.331312
 H   -2.817210   -1.520278    0.774933
 H   -2.768570   -1.127992   -0.933474
 H   -1.009280   -0.038082    1.294751
 H   -5.087668   -0.504635   -1.758846
 H   -7.415581   -1.294914   -1.705080
 H   -8.711680   -1.240786    0.413948
 H   -7.639924   -0.377965    2.485207
 H   -5.302009    0.414691    2.431251
 H    1.752906    0.259437   -1.794469
 H    2.110341    1.963300   -2.057238
 H    4.598900    1.363948   -2.026152
 H    3.702210    0.617481   -3.346958
 H    3.546609   -1.503390   -2.176854
 H    5.226409   -1.008463   -2.092666
 H    5.363409   -2.619207   -0.215926
 H    5.352828   -2.867365    2.244919
 H    4.117689   -1.205130    3.635058
 H    2.912933    0.628610    2.562928
 H    0.271160   -1.852423    1.909411
 H    1.880231   -3.634983    1.353691
 H    2.314044   -4.225382   -1.028250
 H    1.123388   -3.000935   -2.826984
 H   -0.452634   -1.199366   -2.279856
