63 
3uih_ligand_ani.xyz
 N   -0.019236   -2.448339    1.692683
 C   -1.446325   -2.816911    1.385266
 C   -1.807412   -1.992979    0.140195
 O   -1.406454   -2.350604   -0.968170
 C   -2.344559   -2.617116    2.595049
 N   -2.500789   -0.848085    0.340978
 C   -2.361387    0.319192   -0.527076
 C   -2.162565    1.490444    0.448885
 O   -2.934219    1.618872    1.394074
 C   -3.576044    0.519887   -1.467680
 C   -4.918050    0.521093   -0.735283
 C   -3.564351   -0.560150   -2.552194
 N   -1.114660    2.346657    0.290972
 C    0.044652    2.157461   -0.563922
 C    0.868742    0.905439   -0.187360
 O    0.561737    0.124390    0.706243
 C    0.829469    3.463346   -0.349955
 C    0.560292    3.783581    1.120424
 C   -0.906744    3.389290    1.303720
 N    1.983685    0.730211   -0.954288
 C    2.780849   -0.494462   -0.910707
 C    1.832516   -1.698256   -1.020505
 O    0.950880   -1.560242   -2.001957
 C    3.693518   -0.612689    0.328228
 C    4.384483    0.710298    0.691350
 C    4.710810   -1.738944    0.133654
 C    5.311139    1.271882   -0.385852
 O    1.861318   -2.663759   -0.281180
 H    0.098776   -1.413673    1.705011
 H    0.586109   -2.818568    0.933712
 H    0.300058   -2.846815    2.593076
 H   -1.468819   -3.858427    1.061036
 H   -2.209344   -1.622580    3.034943
 H   -2.107408   -3.357733    3.364862
 H   -3.396917   -2.744375    2.328397
 H   -2.800167   -0.602795    1.277616
 H   -1.480186    0.153116   -1.154601
 H   -3.439152    1.501595   -1.949803
 H   -4.943071    1.267292    0.063410
 H   -5.110230   -0.461861   -0.291249
 H   -5.728625    0.735183   -1.440764
 H   -4.385604   -0.406789   -3.259722
 H   -3.676862   -1.554105   -2.106768
 H   -2.623569   -0.554648   -3.114024
 H   -0.261544    2.052593   -1.614665
 H    0.405486    4.237742   -0.996193
 H    1.892884    3.367088   -0.585235
 H    0.752409    4.830644    1.369726
 H    1.196251    3.159280    1.759878
 H   -1.133328    2.984189    2.293947
 H   -1.594666    4.223904    1.122364
 H    2.035086    1.269413   -1.804102
 H    3.391471   -0.496359   -1.821510
 H    0.211762   -2.182332   -1.816891
 H    3.029994   -0.878082    1.159577
 H    3.624884    1.458187    0.947931
 H    4.964208    0.541359    1.608081
 H    4.213172   -2.696972   -0.021010
 H    5.353794   -1.545997   -0.734027
 H    5.357334   -1.825005    1.014401
 H    4.774470    1.465770   -1.320813
 H    5.752688    2.219387   -0.059657
 H    6.135369    0.585567   -0.608863
