63 
3uih_ligand_xtb.xyz
 N   -0.475125   -2.529855    1.636479
 C   -1.835410   -2.874488    1.119515
 C   -1.964890   -1.953167   -0.118718
 O   -1.428997   -2.298222   -1.159517
 C   -2.871038   -2.700679    2.214476
 N   -2.559713   -0.790842    0.098130
 C   -2.232295    0.447652   -0.576785
 C   -1.863046    1.378252    0.595242
 O   -2.488920    1.266279    1.639142
 C   -3.415266    1.035141   -1.377383
 C   -4.711445    0.999931   -0.572821
 C   -3.570506    0.268714   -2.688705
 N   -0.915183    2.310881    0.417724
 C    0.202480    2.188090   -0.494790
 C    0.905942    0.841989   -0.238170
 O    0.431416   -0.002831    0.512680
 C    1.085174    3.394021   -0.148880
 C    0.872922    3.538047    1.356296
 C   -0.613877    3.242242    1.505125
 N    2.032159    0.646544   -0.927153
 C    2.755512   -0.619073   -0.862473
 C    1.668753   -1.694919   -0.910981
 O    0.915946   -1.539784   -1.965890
 C    3.660554   -0.736575    0.376582
 C    4.458205    0.552900    0.621301
 C    4.570108   -1.953575    0.230199
 C    5.378300    0.970299   -0.520840
 O    1.512880   -2.562561   -0.074452
 H   -0.395919   -1.511266    1.786707
 H    0.281189   -2.738183    0.910931
 H   -0.261212   -3.027601    2.504562
 H   -1.810533   -3.910627    0.768806
 H   -2.803356   -1.722669    2.686919
 H   -2.735375   -3.458408    2.983489
 H   -3.870925   -2.822921    1.807389
 H   -2.997932   -0.586134    0.994075
 H   -1.398810    0.258614   -1.254750
 H   -3.164537    2.078221   -1.600320
 H   -4.577109    1.449028    0.407837
 H   -5.054468   -0.024694   -0.449196
 H   -5.484329    1.553705   -1.098104
 H   -4.421877    0.650753   -3.244489
 H   -3.733164   -0.788399   -2.493369
 H   -2.683043    0.369614   -3.309384
 H   -0.125137    2.205860   -1.540224
 H    0.709847    4.276887   -0.666526
 H    2.130248    3.252698   -0.415597
 H    1.135320    4.525782    1.724673
 H    1.465298    2.795006    1.892796
 H   -0.879180    2.789815    2.461549
 H   -1.217036    4.144007    1.367728
 H    2.380538    1.364551   -1.541600
 H    3.352014   -0.707908   -1.774359
 H    0.084453   -2.079336   -1.938986
 H    3.010717   -0.891492    1.244524
 H    3.761673    1.366516    0.839856
 H    5.063100    0.401249    1.516454
 H    3.981235   -2.863900    0.165889
 H    5.183248   -1.878345   -0.663431
 H    5.226391   -2.030743    1.092368
 H    4.827715    1.160188   -1.439693
 H    5.901367    1.883776   -0.249647
 H    6.124933    0.207384   -0.717973
