38 
3uil_ligand_ani.xyz
 O    4.663330    0.984607    0.499055
 O    4.272488   -0.687425    1.896160
 C    4.343138   -0.307046    0.759140
 C    4.105486   -1.189638   -0.459769
 C    3.129218   -0.646312   -1.510092
 C    1.668937   -0.526518   -1.059569
 C    1.396230    0.553284   -0.010657
 C   -0.083944    0.699044    0.349784
 C   -0.958887    1.242511   -0.782241
 C   -2.409140    1.512186   -0.369189
 C   -3.183867    0.262019    0.048894
 C   -4.640640    0.561431    0.403598
 C   -5.442128   -0.661360    0.860280
 C   -5.631619   -1.715733   -0.229633
 H    4.663128    1.136049   -0.455638
 H    3.756144   -2.153102   -0.082265
 H    5.084204   -1.367755   -0.928037
 H    3.170817   -1.322852   -2.370687
 H    3.479494    0.326089   -1.888163
 H    1.333051   -1.497083   -0.667598
 H    1.058533   -0.330997   -1.949821
 H    1.779360    1.519240   -0.372168
 H    1.951766    0.326029    0.907762
 H   -0.168597    1.373077    1.213444
 H   -0.465805   -0.276040    0.684101
 H   -0.955395    0.541046   -1.628342
 H   -0.516191    2.176288   -1.155274
 H   -2.933690    1.990419   -1.207920
 H   -2.423496    2.239420    0.456701
 H   -2.696350   -0.208988    0.913797
 H   -3.139011   -0.473660   -0.766272
 H   -5.138306    1.014319   -0.467137
 H   -4.661386    1.320787    1.197839
 H   -6.426552   -0.328694    1.213203
 H   -4.945679   -1.116301    1.728763
 H   -6.125139   -1.285657   -1.109315
 H   -4.674962   -2.135531   -0.558779
 H   -6.249196   -2.546767    0.126803
