14 
3umq_ligand_ani.xyz
 C   -2.704006   -0.222814   -0.006419
 C   -1.334789    0.447790    0.012315
 C   -0.193343   -0.562552   -0.000077
 C    1.169588    0.106236   -0.001255
 O    2.230078   -0.735495    0.001338
 O    1.343289    1.295240   -0.005536
 H   -2.827107   -0.841917   -0.902714
 H   -2.839025   -0.869749    0.868207
 H   -3.509383    0.518561   -0.000427
 H   -1.229421    1.083583    0.898050
 H   -1.220106    1.113798   -0.849657
 H   -0.260803   -1.211790   -0.885673
 H   -0.254638   -1.227870    0.873740
 H    1.928849   -1.654545    0.004674
