37 
3unz_ligand_xtb.xyz
 F   -4.757042    1.814496   -0.773506
 N    0.823532   -2.613613    0.128397
 N   -1.162481   -1.391349    0.050192
 N   -1.120422   -3.763657    0.036108
 N   -3.178908   -0.234605   -0.029261
 C    2.450659    0.635065   -0.497257
 C    3.767302    0.340231   -0.144379
 C    4.073892   -0.960019    0.262587
 C    3.094269   -1.920818    0.350605
 C    1.767893   -1.613715    0.026092
 C    1.465088   -0.326845   -0.421309
 C    4.880877    1.321222   -0.201926
 C   -0.537536   -2.564118    0.058677
 C   -2.490819   -1.409984   -0.020818
 C   -3.197377   -2.622806   -0.102748
 C   -2.442343   -3.774111   -0.052556
 C   -2.717381    1.059906    0.153621
 C   -1.496478    1.384691    0.739084
 C   -1.127866    2.708335    0.898774
 C   -1.962700    3.736085    0.494394
 C   -3.192175    3.437762   -0.070953
 C   -3.547965    2.117255   -0.229874
 O    6.038919    0.999683   -0.192582
 O    4.540000    2.625535   -0.252590
 H    1.170885   -3.555041    0.258745
 H   -4.161332   -0.308050   -0.259357
 H    2.172822    1.610822   -0.875775
 H    5.098987   -1.187989    0.511039
 H    3.344210   -2.921645    0.671820
 H    0.456213   -0.095868   -0.715602
 H   -4.271104   -2.644284   -0.182441
 H   -2.899861   -4.754088   -0.082938
 H   -0.850375    0.589708    1.068576
 H   -0.177166    2.936247    1.356418
 H   -1.667749    4.765382    0.623203
 H   -3.873385    4.211088   -0.388313
 H    3.583792    2.755252   -0.212571
