37 
3unz_ligand_ani.xyz
 F   -4.445668    2.244546   -0.434110
 N    0.559064   -2.817152   -0.132054
 N   -1.256597   -1.393796    0.014163
 N   -1.523871   -3.771654   -0.031080
 N   -3.083156    0.041534    0.137814
 C    2.368658    0.360950   -0.766890
 C    3.581319    0.107225   -0.122287
 C    3.786202   -1.149126    0.450491
 C    2.787370   -2.105909    0.430866
 C    1.549559   -1.825118   -0.159245
 C    1.359085   -0.589636   -0.793529
 C    4.701049    1.095287   -0.052199
 C   -0.799320   -2.646943   -0.052439
 C   -2.573764   -1.232206    0.080184
 C   -3.445018   -2.335197    0.080978
 C   -2.846842   -3.580054    0.031734
 C   -2.403215    1.260396    0.200597
 C   -1.070791    1.430804    0.584140
 C   -0.517978    2.708850    0.614296
 C   -1.266710    3.829696    0.278865
 C   -2.604320    3.679900   -0.083708
 C   -3.140533    2.411901   -0.105540
 O    5.845698    0.780964    0.147831
 O    4.381636    2.400090   -0.219314
 H    0.856381   -3.776788   -0.034939
 H   -4.079308    0.140588    0.006159
 H    2.207562    1.296383   -1.300801
 H    4.748641   -1.358161    0.908053
 H    2.955498   -3.077358    0.889729
 H    0.419473   -0.366638   -1.286917
 H   -4.522939   -2.214446    0.133472
 H   -3.452861   -4.483809    0.042130
 H   -0.486207    0.569634    0.874236
 H    0.521536    2.825771    0.913431
 H   -0.820712    4.818703    0.305164
 H   -3.233033    4.527167   -0.341700
 H    3.421727    2.512167   -0.248945
