47 
3uo4_ligand_xtb.xyz
 N    0.460608    3.988521    0.086250
 N    0.115010    1.658440   -0.200798
 N   -2.028203    0.803492   -0.517331
 N    2.232443    2.586358    0.115794
 C   -0.849570    4.178738   -0.000394
 C    0.878019    2.724471    0.002529
 C   -1.197997    1.856017   -0.302928
 C   -1.744056    3.149073   -0.181361
 C   -1.718676   -0.545935   -0.686779
 C   -0.483527   -0.962933   -1.171582
 C   -0.196084   -2.309903   -1.288642
 C   -1.138671   -3.259506   -0.933569
 C   -2.381783   -2.851472   -0.484873
 C   -2.695142   -1.503482   -0.369040
 C   -4.043968   -1.111269    0.088813
 C    3.020784    1.458908    0.192077
 C    4.407791    1.619299    0.099333
 C    5.250928    0.531000    0.156489
 C    4.734451   -0.755314    0.319283
 C    3.352717   -0.905717    0.451336
 C    2.504335    0.175987    0.388715
 C    5.568307   -1.981276    0.388976
 C   -4.882735   -0.353401   -0.726659
 C   -6.148845    0.000227   -0.294966
 C   -6.592759   -0.395720    0.955544
 C   -5.769540   -1.157292    1.768291
 C   -4.505032   -1.515651    1.337593
 O    5.157296   -3.031453    0.805693
 O    6.838738   -1.882761   -0.056523
 H   -3.012844    0.998084   -0.387028
 H    2.707410    3.479127    0.151709
 H   -1.176864    5.207088    0.081023
 H   -2.806860    3.315801   -0.241364
 H    0.245375   -0.223348   -1.454484
 H    0.770475   -2.615454   -1.659623
 H   -0.911845   -4.311470   -1.014752
 H   -3.134949   -3.582714   -0.228706
 H    4.820031    2.611549   -0.018471
 H    6.317694    0.709574    0.102180
 H    2.961188   -1.899589    0.605166
 H    1.441833    0.046990    0.495489
 H   -4.550356   -0.068371   -1.716248
 H   -6.792082    0.582525   -0.938736
 H   -7.579923   -0.116735    1.292569
 H   -6.114713   -1.473459    2.741695
 H   -3.859695   -2.106003    1.971606
 H    7.035168   -1.006663   -0.411903
