37 
3uo5_ligand_ani.xyz
 C    3.379272   -0.266241   -0.106231
 C    4.581291    0.621728   -0.107674
 C    3.397518   -1.591436    0.335063
 C    2.249798   -2.363342    0.281365
 C    1.048095   -1.825182   -0.197432
 C    1.033885   -0.510788   -0.680633
 C    2.193433    0.246834   -0.631404
 N   -0.081094   -2.654776   -0.216535
 C   -1.403909   -2.306809   -0.110945
 N   -2.267090   -3.330397   -0.109731
 C   -3.552816   -2.974348   -0.008824
 C   -3.985959   -1.666592    0.093663
 C   -2.980838   -0.682329    0.097595
 N   -1.696238   -1.009241   -0.006437
 N   -3.313036    0.644995    0.196744
 C   -2.462156    1.765349    0.189638
 C   -2.978401    2.976153   -0.284515
 C   -2.189399    4.117753   -0.314932
 C   -0.877155    4.077786    0.146011
 C   -0.373436    2.880025    0.640169
 C   -1.149989    1.725884    0.672781
 O    5.592963    0.296856    0.730111
 O    4.678502    1.592251   -0.813656
 H    4.317013   -2.055981    0.691349
 H    2.274183   -3.392512    0.633582
 H    0.128038   -0.092974   -1.101785
 H    2.205635    1.264737   -1.008963
 H    0.076824   -3.650649   -0.170483
 H   -4.269368   -3.793423   -0.011259
 H   -5.038198   -1.410818    0.175768
 H   -4.297883    0.855502    0.133894
 H   -4.004452    3.017310   -0.645326
 H   -2.606323    5.045731   -0.698725
 H   -0.258027    4.969661    0.125348
 H    0.649327    2.836629    1.009871
 H   -0.747159    0.803851    1.072557
 H    5.325476   -0.410664    1.332066
