37 
3uo6_ligand_xtb.xyz
 N   -1.251465    2.613341    0.107004
 N    0.815005    1.530072    0.107393
 N    0.611284    3.893071    0.043974
 N    2.908292    0.512912    0.101310
 C   -2.635414   -0.752582   -0.484790
 C   -3.981659   -0.537736   -0.190257
 C   -4.387906    0.749015    0.170450
 C   -3.477818    1.775112    0.267253
 C   -2.122547    1.549675   -0.000592
 C   -1.718522    0.274187   -0.398155
 C   -5.026807   -1.590654   -0.260573
 C    0.111452    2.656783    0.075395
 C    2.140769    1.637365    0.069595
 C    2.764361    2.894671   -0.018729
 C    1.931547    3.992278   -0.010331
 C    2.535997   -0.806297    0.290473
 C    1.332068   -1.184322    0.882136
 C    1.024314   -2.519503    1.061857
 C    1.911308   -3.507884    0.670928
 C    3.124120   -3.153600    0.103875
 C    3.428784   -1.819306   -0.080923
 O   -6.203429   -1.345704   -0.280112
 O   -4.601472   -2.870605   -0.288926
Cl    4.962229   -1.393158   -0.786937
 H   -1.665930    3.531342    0.204362
 H    3.887924    0.640571   -0.124067
 H   -2.277634   -1.716915   -0.823590
 H   -5.434458    0.913929    0.375759
 H   -3.805563    2.764483    0.551925
 H   -0.685336    0.102421   -0.644982
 H    3.835946    2.988117   -0.071833
 H    2.321854    5.000707   -0.047891
 H    0.649289   -0.415190    1.199537
 H    0.085429   -2.786753    1.522742
 H    1.670408   -4.549866    0.810789
 H    3.833109   -3.909579   -0.195864
 H   -3.639834   -2.938103   -0.230099
