40 
3uod_ligand_ani.xyz
 N   -0.074415    4.104442    0.145181
 N   -0.307106    1.736221   -0.101162
 N   -2.362831    0.755674   -0.586928
 N    1.733041    2.716625    0.384631
 C   -1.384429    4.215748   -0.100648
 C    0.390571    2.849008    0.134721
 C   -1.604939    1.875448   -0.349217
 C   -2.215656    3.140623   -0.353435
 C   -1.959899   -0.587934   -0.518688
 C   -0.677558   -0.988822   -0.898742
 C   -0.312048   -2.328137   -0.821823
 C   -1.213070   -3.288950   -0.380681
 C   -2.497843   -2.898277   -0.026371
 C   -2.885045   -1.564200   -0.100759
 C   -4.288360   -1.196831    0.308317
 C    2.518042    1.556194    0.333956
 C    2.024858    0.292479    0.681355
 C    2.860350   -0.810838    0.603407
 C    4.182896   -0.694134    0.176624
 C    4.682352    0.575504   -0.121196
 C    3.863896    1.688204   -0.031464
 C    5.015185   -1.933434    0.124867
 O    6.093186   -1.914822   -0.693552
 O    4.767342   -2.920190    0.768427
 F   -4.935585   -0.488045   -0.658240
 F   -4.324389   -0.427884    1.415070
 F   -5.046249   -2.276568    0.557909
 H   -3.354666    0.912020   -0.682681
 H    2.219059    3.599877    0.435554
 H   -1.780713    5.228949   -0.092644
 H   -3.277640    3.261772   -0.548139
 H    0.027024   -0.246283   -1.252226
 H    0.693307   -2.622489   -1.115666
 H   -0.923751   -4.333225   -0.322190
 H   -3.222640   -3.634335    0.308044
 H    1.001494    0.178944    1.017360
 H    2.502214   -1.798581    0.878461
 H    5.729253    0.719154   -0.388040
 H    4.261956    2.672235   -0.269893
 H    6.080244   -1.126105   -1.252997
