40 
3uod_ligand_dft.xyz
 N   -0.151005    4.016903    0.102059
 N   -0.434046    1.661648   -0.209698
 N   -2.511241    0.742074   -0.700585
 N    1.638900    2.623306    0.268950
 C   -1.458744    4.165825   -0.121963
 C    0.287366    2.752421    0.044538
 C   -1.735179    1.841791   -0.434319
 C   -2.317716    3.120314   -0.399040
 C   -2.097601   -0.603899   -0.700690
 C   -0.911540   -0.997913   -1.323678
 C   -0.529281   -2.333259   -1.325917
 C   -1.335589   -3.302874   -0.738431
 C   -2.529405   -2.923613   -0.139281
 C   -2.911796   -1.584878   -0.108975
 C   -4.176231   -1.190383    0.603063
 C    2.470005    1.504891    0.261908
 C    2.009529    0.181283    0.325750
 C    2.917581   -0.864750    0.316147
 C    4.293116   -0.639985    0.239218
 C    4.748544    0.681586    0.211902
 C    3.853364    1.737824    0.222280
 C    5.198397   -1.827881    0.228018
 O    6.451166   -1.634867   -0.248061
 O    4.865023   -2.920862    0.609017
 F   -3.934488   -0.390626    1.654557
 F   -4.866329   -2.244451    1.049263
 F   -5.012844   -0.494519   -0.214577
 H   -3.507490    0.900118   -0.691745
 H    2.086861    3.521382    0.384341
 H   -1.833766    5.185888   -0.077108
 H   -3.374576    3.279280   -0.577962
 H   -0.286743   -0.248705   -1.791358
 H    0.403456   -2.615117   -1.804797
 H   -1.039294   -4.346253   -0.746877
 H   -3.168689   -3.667429    0.321529
 H    0.949758   -0.016473    0.382419
 H    2.561799   -1.888363    0.374937
 H    5.811612    0.912088    0.217995
 H    4.226920    2.758317    0.200182
 H    6.516413   -0.769053   -0.670635
