38 
3uoj_ligand_ani.xyz
 O    4.429583   -2.644615    0.223014
 C    4.769125   -1.490700    0.169319
 C    3.796246   -0.356494    0.148667
 C    4.101145    0.918472   -0.334720
 C    3.138804    1.912882   -0.341231
 C    2.501582   -0.606442    0.602423
 C    1.530507    0.382944    0.612822
 C    1.841393    1.657476    0.122566
 N    0.922304    2.714227    0.104315
 C   -0.446659    2.674765    0.031066
 N   -1.031499    1.479399   -0.075782
 C   -2.360139    1.456887   -0.140733
 N   -3.003384    0.248389   -0.231814
 C   -2.448824   -1.036542   -0.310643
 C   -1.158866   -1.289832   -0.779911
 C   -0.680991   -2.595200   -0.815068
 C   -1.470967   -3.666311   -0.407718
 C   -2.766740   -3.425312    0.030546
 C   -3.261930   -2.126585    0.070587
 C   -4.612234   -1.874807    0.500631
 N   -5.689613   -1.592420    0.825859
 C   -3.109697    2.646225   -0.100696
 C   -2.386011    3.819130   -0.006361
 N   -1.051192    3.868956    0.057265
 O    6.085147   -1.179352    0.125343
 H    5.085158    1.148102   -0.743342
 H    3.388116    2.903277   -0.715932
 H    2.268513   -1.610056    0.945654
 H    0.541881    0.171954    1.000942
 H    1.297773    3.650205    0.064421
 H   -4.008941    0.268232   -0.120662
 H   -0.541340   -0.469256   -1.121824
 H    0.334495   -2.774792   -1.163833
 H   -1.082960   -4.679071   -0.439321
 H   -3.407683   -4.244948    0.342228
 H   -4.194214    2.641809   -0.152786
 H   -2.895517    4.780178    0.021824
 H    6.216103   -0.227089    0.227594
