39 
3uol_ligand_ani.xyz
Cl  -24.652350  -17.215923    7.642324
 C  -25.101119  -18.884078    7.896661
 C  -26.397429  -19.270885    7.590189
 C  -26.781595  -20.594543    7.763958
 C  -25.850941  -21.516297    8.228102
 C  -24.550107  -21.132117    8.527339
 C  -24.158736  -19.793971    8.404314
 N  -22.872593  -19.347500    8.722022
 C  -22.000999  -19.867744    9.651053
 C  -20.765128  -19.241381    9.896594
 C  -19.961179  -19.839090   10.848829
 N  -20.297351  -20.942999   11.527884
 C  -21.501103  -21.437972   11.218503
 N  -21.881299  -22.568872   11.896852
 C  -23.047843  -23.320052   11.682087
 C  -22.983107  -24.715761   11.768833
 C  -24.102246  -25.492997   11.520124
 C  -25.320184  -24.889756   11.205308
 C  -26.536452  -25.634785   10.888343
 N  -26.752115  -26.960748   11.000747
 N  -28.001633  -27.235881   10.598872
 N  -28.520366  -26.114684   10.252709
 N  -27.646729  -25.099903   10.419434
 C  -25.393934  -23.496124   11.176236
 C  -24.279614  -22.712238   11.418578
 N  -22.358623  -20.959064   10.314528
 H  -27.096113  -18.528344    7.215270
 H  -27.795537  -20.900616    7.527678
 H  -26.137986  -22.557674    8.373680
 H  -23.826255  -21.866926    8.850477
 H  -22.635586  -18.438645    8.349353
 H  -20.459947  -18.347115    9.361757
 H  -18.987745  -19.417146   11.090309
 H  -21.146289  -22.979731   12.453748
 H  -22.037166  -25.194968   12.010421
 H  -24.008658  -26.575839   11.568564
 H  -26.167686  -27.708053   11.344239
 H  -26.352791  -23.040760   10.945670
 H  -24.358471  -21.631807   11.379406
