41 
3up2_ligand_ani.xyz
 N    0.034887    4.063947   -0.165567
 N    0.166916    1.734907    0.364123
 N    2.144050    0.757371    1.093603
 N   -1.799033    2.708108   -0.375737
 C    1.330618    4.165631    0.145498
 C   -0.473513    2.830444   -0.047649
 C    1.454538    1.865772    0.671832
 C    2.109767    3.103794    0.568090
 C    1.713290   -0.578789    1.015133
 C    0.410959   -0.971486    1.319747
 C    0.052496   -2.314882    1.239939
 C    0.978072   -3.280623    0.860472
 C    2.286532   -2.901133    0.569485
 C    2.644379   -1.571214    0.671755
 C    4.371719   -0.945013   -0.784243
 C   -2.608445    1.564574   -0.361227
 C   -3.985273    1.742917   -0.172740
 C   -4.841433    0.655990   -0.142477
 C   -4.345695   -0.637642   -0.320002
 C   -2.981636   -0.804291   -0.558283
 C   -2.109929    0.273486   -0.576789
 C   -5.207840   -1.857906   -0.334224
 O   -4.875121   -2.889459   -0.858738
 O   -6.413246   -1.772262    0.274841
 O    3.984779   -1.194849    0.492816
 F    3.654734    0.039369   -1.346294
 F    4.252451   -2.025095   -1.567159
 F    5.647536   -0.574752   -0.760715
 H    3.146000    0.865546    1.145166
 H   -2.249914    3.591111   -0.564857
 H    1.761987    5.159420    0.047308
 H    3.162219    3.219139    0.811711
 H   -0.311122   -0.218292    1.608531
 H   -0.968563   -2.606333    1.475719
 H    0.691813   -4.324810    0.791092
 H    3.036917   -3.622973    0.264612
 H   -4.380345    2.746362   -0.028817
 H   -5.908559    0.840473   -0.018305
 H   -2.619863   -1.813081   -0.734592
 H   -1.055928    0.118395   -0.773736
 H   -6.487812   -0.946195    0.771475
