40 
3up7_ligand_dft.xyz
 N    1.477187    2.627649    0.219377
 N   -0.606150    1.620608   -0.093961
 N   -0.340280    3.990518    0.102757
 N   -2.715560    0.667643   -0.412734
 C    2.781112   -0.839225    0.486055
 C    4.134444   -0.632862    0.211929
 C    4.573322    0.674550   -0.016512
 C    3.678494    1.731557   -0.012293
 C    2.313052    1.513303    0.224652
 C    1.875015    0.208268    0.495297
 C    5.039165   -1.821484    0.218338
 C    0.111481    2.731637    0.072617
 C   -1.922218    1.773763   -0.247122
 C   -2.519370    3.047087   -0.226134
 C   -1.662397    4.114009   -0.047402
 C   -2.353497   -0.676951   -0.475160
 C   -1.108652   -1.099231   -0.963606
 C   -0.801284   -2.448171   -1.046491
 C   -1.728085   -3.419551   -0.674269
 C   -2.963721   -3.014798   -0.198791
 C   -3.291233   -1.658205   -0.070587
 C   -4.629564   -1.263826    0.457756
 O   -5.193183   -0.224272    0.186894
 O   -5.236618   -2.132287    1.285872
 O    4.761248   -2.864030    0.753993
 O    6.222429   -1.690856   -0.425878
 H    1.923508    3.533595    0.240221
 H   -3.718503    0.814021   -0.339588
 H    2.445033   -1.847837    0.703963
 H    5.627050    0.897228   -0.169279
 H    4.037631    2.740689   -0.196287
 H    0.832675    0.025985    0.710613
 H   -3.587588    3.181942   -0.346467
 H   -2.048737    5.130453   -0.023736
 H   -0.388128   -0.358327   -1.277744
 H    0.171524   -2.741697   -1.429386
 H   -1.495159   -4.474565   -0.768184
 H   -3.705562   -3.773481    0.039188
 H   -4.618785   -2.824339    1.556263
 H    6.231272   -0.876252   -0.944360
