40 
3up7_ligand_ani.xyz
 N    1.396562    2.702338    0.398915
 N   -0.616328    1.649159   -0.067363
 N   -0.456865    4.024597    0.175047
 N   -2.653376    0.610314   -0.515572
 C    2.685510   -0.771570    0.569371
 C    4.007230   -0.585391    0.164877
 C    4.449259    0.712262   -0.103163
 C    3.576386    1.782063   -0.007822
 C    2.234175    1.580681    0.339629
 C    1.798005    0.289283    0.660307
 C    4.890344   -1.788966    0.101659
 C    0.047897    2.784540    0.160937
 C   -1.923462    1.747934   -0.295837
 C   -2.571386    2.995194   -0.300444
 C   -1.770739    4.096166   -0.059179
 C   -2.222705   -0.716023   -0.469607
 C   -0.931194   -1.083380   -0.863606
 C   -0.538032   -2.414258   -0.820872
 C   -1.422565   -3.406376   -0.408998
 C   -2.708484   -3.048598   -0.032390
 C   -3.129774   -1.715675   -0.055939
 C   -4.543201   -1.372316    0.293754
 O   -5.150946   -0.424838   -0.159241
 O   -5.171712   -2.190044    1.161698
 O    4.643998   -2.814053    0.683280
 O    6.011878   -1.695217   -0.649761
 H    1.844339    3.605389    0.452303
 H   -3.665878    0.703050   -0.541895
 H    2.370129   -1.781278    0.815469
 H    5.490869    0.914378   -0.352950
 H    3.929827    2.787705   -0.225854
 H    0.779871    0.123239    0.989192
 H   -3.638510    3.079846   -0.487662
 H   -2.198084    5.096635   -0.050237
 H   -0.244304   -0.320947   -1.208418
 H    0.472361   -2.680995   -1.123153
 H   -1.113855   -4.447208   -0.379106
 H   -3.414889   -3.831805    0.242614
 H   -4.540106   -2.793734    1.577034
 H    6.008929   -0.879330   -1.168390
