92 
3upf_ligand_ani.xyz
 O   -4.478474   -1.641503    0.486559
 O   -5.216702    4.103716    0.454289
 O   -0.451986   -4.287961    2.674782
 O    2.950134    3.777936   -2.963750
 O    2.060583    1.668350   -4.030515
 O    4.814459   -1.179722   -3.059927
 O    6.713908   -0.995020   -1.461256
 O    1.265333    6.575607    0.361986
 O    0.766882    6.301619    2.781841
 O    3.134427    2.629609    2.753215
 O    3.938614    2.285029    0.456477
 O   -1.203211   -1.102244   -1.414372
 O   -3.256021    0.291463   -1.583236
 O    0.564232   -4.922397    0.535704
 O    2.793505   -5.821701    0.369263
 O    3.514276    1.517578   -2.091727
 O    6.000892   -3.216297   -2.432673
 O    2.355648    4.785331    1.553376
 O    5.019017    1.109095    2.387575
 O   -2.238643   -0.122067    0.644251
 O    2.075754   -4.606033    2.443041
 C   -8.014131    1.572670   -1.644945
 C   -3.216942   -6.494356    0.584085
 C   -7.785511    0.203654   -1.528199
 C   -4.223753   -5.696290    0.054489
 C   -7.126017    2.497464   -1.101475
 C   -1.997237   -5.935332    0.945063
 C   -2.546677    3.973695    1.444004
 C    0.448390   -0.626821    1.934104
 C   -1.406824    4.696022    1.801373
 C    1.363859    0.416342    2.103784
 C   -5.843499    0.666128   -0.201297
 C   -2.745355   -3.790905    0.147250
 C    0.124695    1.425679   -1.770074
 C    3.750825   -3.251729   -0.472462
 C    0.992226    3.482820   -0.820228
 C    4.222561   -0.942983    0.122423
 N   -6.402463   -1.646809   -0.770680
 N   -5.057746   -3.527681   -0.630419
 N   -3.676233    2.442609   -0.026321
 N   -0.245235   -2.682304    0.943862
 C   -5.257413   -2.219792   -0.261037
 C   -4.942208    2.980394    0.064557
 C   -0.472986   -4.060666    1.313833
 C   -6.675264   -0.261878   -0.819005
 C   -4.003647   -4.331031   -0.133447
 C   -6.006173    2.029292   -0.421782
 C   -1.772166   -4.576219    0.760057
 C    1.070446    2.455106   -1.729267
 C    4.477273   -2.064082   -0.632100
 C   -2.500981    3.034045    0.435851
 C    0.795827   -1.804667    1.288075
 C   -0.225395    4.529973    1.116062
 C    2.643932    0.306912    1.609733
 C   -0.968762    1.494402   -0.939391
 C    2.654100   -3.217714    0.350646
 C   -0.120858    3.562430    0.057662
 C    3.033227   -0.864149    0.882388
 C   -1.219095    2.670579   -0.140481
 C    2.146054   -1.977442    0.855059
 S    2.434555    2.426811   -2.860000
 S    5.683378   -1.910511   -1.910524
 S    1.118742    5.550483    1.598726
 S    3.820345    1.614702    1.761078
 S   -1.968188    0.032385   -0.937329
 S    2.073457   -4.750255    0.997254
 H    0.486390   -4.252486    2.956362
 H    4.587825   -0.269019   -2.772381
 H    0.685561    7.338914    0.520477
 H    2.728411    3.408309    2.280894
 H    3.763583    1.918138   -1.222044
 H   -3.081025   -0.624963    0.756817
 H   -8.890112    1.920019   -2.186615
 H   -3.387968   -7.557498    0.729714
 H   -8.477327   -0.499717   -1.984951
 H   -5.186625   -6.132593   -0.201244
 H   -7.281241    3.567187   -1.206022
 H   -1.207694   -6.547467    1.375647
 H   -3.481266    4.178842    1.948105
 H   -0.569525   -0.487545    2.285611
 H   -1.461883    5.417717    2.610635
 H    1.030029    1.320586    2.605233
 H   -5.065691    0.309816    0.459855
 H   -2.539352   -2.773418   -0.176267
 H    0.251732    0.577076   -2.435640
 H    4.050267   -4.176224   -0.953027
 H    1.773293    4.233213   -0.815243
 H    4.920028   -0.111091    0.097421
 H   -6.985352   -2.210232   -1.372419
 H   -5.801992   -4.025307   -1.095253
 H   -3.569215    1.615743   -0.624739
 H   -1.111857   -2.148932    0.965635
