57 
3upi_ligand_xtb.xyz
 C   -4.256643    1.651002   -0.928190
 C   -2.970654    2.045983   -1.237434
 C    2.390411    3.556879    1.880610
 C    1.020071    3.741869    1.847421
 C    2.321196    2.752258   -0.403791
 C   -2.163111   -0.167796   -0.528802
 C   -0.903930   -0.814207   -0.424478
 C   -4.501427    0.372348   -0.439884
 C    0.943633    2.911027   -0.437980
 C   -1.933094    1.137984   -1.036046
 C   -3.477384   -0.535584   -0.245201
 C    3.016367    3.068234    0.748858
 C    0.320758    3.415392    0.700109
 C    0.033267    0.090477   -0.874723
 C    0.867825   -4.065377   -0.444565
 C    0.111904   -3.060415   -0.900162
 C    0.823732   -4.340567    0.973290
 C   -0.689966   -2.214944    0.046564
 C   -0.050161   -2.269856    1.433653
 C    1.474687   -0.126132   -1.058806
 C   -5.311368   -1.697251    0.353872
 C   -5.792691   -0.273056   -0.009532
 C   -6.426524    0.451511    1.177073
 C    4.737243   -0.360473   -0.701987
 C    0.129600    2.454335   -1.624370
 N   -0.592471    1.253940   -1.272797
 N    0.368079   -3.520422    1.837805
 N    2.110690   -0.686716    0.010857
 O    0.102550   -1.290937    2.129355
 O    2.082970    0.159725   -2.071857
 O    3.833888   -2.125553    1.070772
 O    3.300941   -2.515213   -1.284613
 O   -3.888587   -1.743495    0.216096
 F    4.352279    2.876254    0.767434
 F   -1.012489    3.606683    0.682545
 S    3.528363   -1.591407   -0.218092
 H   -5.078971    2.335191   -1.068995
 H   -2.785258    3.038508   -1.614047
 H    2.966027    3.785297    2.762557
 H    0.487018    4.126002    2.701922
 H    2.849252    2.374639   -1.264586
 H    1.455525   -4.691232   -1.092965
 H    0.014588   -2.843050   -1.953299
 H    1.175487   -5.296255    1.344044
 H   -1.687506   -2.676294    0.138684
 H   -5.554788   -1.957854    1.387789
 H   -5.733954   -2.458947   -0.308903
 H   -6.513156   -0.306305   -0.832814
 H   -6.701236    1.464121    0.892784
 H   -5.723032    0.506214    2.004793
 H   -7.321339   -0.070987    1.508316
 H    4.392338    0.065516   -1.634828
 H    4.800637    0.377623    0.085600
 H    5.683816   -0.868783   -0.831752
 H    0.792279    2.242260   -2.467688
 H   -0.597258    3.216244   -1.911582
 H    1.626995   -0.791528    0.892563
