109 
3upv_ligand_ani.xyz
 N   -0.078951   -0.508803    1.866069
 C   -0.875424    0.712384    2.185290
 C   -0.944669    1.729389    1.038364
 O   -2.013607    2.240951    0.703867
 C   -0.253788    1.289389    3.480631
 C    0.445241    0.087421    4.123096
 C    0.959371   -0.702373    2.915538
 N    0.226825    2.050157    0.441245
 C    0.305456    3.024315   -0.642865
 C    1.302885    2.481110   -1.677813
 O    0.945444    1.954093   -2.720183
 C    0.623924    4.445912   -0.133648
 O    1.816660    4.391633    0.649827
 C   -0.516896    5.023417    0.690543
 N    2.616820    2.590884   -1.311970
 C    3.580764    1.601125   -1.734570
 C    3.515846    0.382402   -0.789043
 O    2.874489    0.393644    0.256252
 C    4.997059    2.203439   -1.833570
 C    5.043032    3.271802   -2.924581
 C    5.481583    2.767495   -0.493898
 N    4.188282   -0.727951   -1.195926
 C    4.169424   -1.969059   -0.414913
 C    2.727308   -2.517635   -0.285827
 O    2.276965   -2.848371    0.800941
 C    4.818150   -1.846019    0.964622
 C    6.299592   -1.497472    0.890298
 C    6.929898   -1.431830    2.260127
 O    6.362882   -1.620114    3.309254
 O    8.240976   -1.127489    2.189909
 N    2.072054   -2.636415   -1.477114
 C    0.669809   -2.973514   -1.686840
 C   -0.230157   -1.734791   -1.455171
 O    0.158256   -0.764858   -0.813442
 C    0.197695   -4.265888   -0.979871
 C   -0.365146   -4.165948    0.447185
 C   -1.704286   -3.475160    0.506497
 O   -2.592024   -4.027003   -0.318458
 O   -1.951556   -2.502354    1.196794
 N   -1.460828   -1.753089   -2.041816
 C   -2.351296   -0.609373   -1.950815
 C   -3.522945   -0.863886   -0.997782
 O   -4.154488   -1.926329   -0.974483
 C   -2.887724   -0.151750   -3.328595
 C   -1.751627    0.453883   -4.150821
 C   -3.598305   -1.272362   -4.088200
 N   -3.874362    0.175569   -0.212107
 C   -5.085306    0.121944    0.567203
 C   -6.298925    0.180872   -0.364701
 O   -6.271538    0.294329   -1.564104
 C   -5.086167    1.264841    1.594432
 C   -6.163269    1.176916    2.652450
 O   -6.263719   -0.068566    3.157579
 O   -6.826373    2.101364    3.047723
 O   -7.440970    0.094674    0.339830
 H    0.325038   -0.475834    0.918690
 H   -0.723621   -1.321570    1.828269
 H   -1.908998    0.394616    2.361753
 H   -1.010287    1.752240    4.121148
 H    0.483257    2.061258    3.225214
 H    1.255556    0.376477    4.798689
 H   -0.267238   -0.516866    4.697907
 H    1.904062   -0.291621    2.549003
 H    1.102045   -1.770240    3.099541
 H    1.073469    1.522394    0.648543
 H   -0.669495    3.042341   -1.136514
 H    0.794464    5.073990   -1.022920
 H    1.973466    5.274409    1.007479
 H   -0.338016    6.083434    0.900081
 H   -1.466827    4.929000    0.159681
 H   -0.600739    4.490733    1.642343
 H    2.763522    3.010413   -0.400800
 H    3.258750    1.271145   -2.731268
 H    5.675365    1.389399   -2.128067
 H    4.349283    4.084995   -2.687153
 H    6.050630    3.692101   -3.009777
 H    4.765241    2.862300   -3.902580
 H    6.543403    3.029301   -0.553892
 H    5.355153    2.048861    0.325086
 H    4.936047    3.681080   -0.224205
 H    4.872067   -0.639246   -1.931713
 H    4.735844   -2.696058   -1.015276
 H    4.680948   -2.790474    1.496402
 H    4.283985   -1.082436    1.535592
 H    6.464795   -0.525454    0.408171
 H    6.860694   -2.234070    0.299878
 H    8.560290   -1.104522    3.107128
 H    2.464987   -2.064164   -2.212749
 H    0.610234   -3.192857   -2.760137
 H   -0.566137   -4.730258   -1.612921
 H    1.058824   -4.937970   -0.968818
 H    0.335109   -3.653017    1.105195
 H   -0.506977   -5.188464    0.823661
 H   -3.368479   -3.421443   -0.370732
 H   -1.872346   -2.636367   -2.312314
 H   -1.739259    0.202457   -1.543998
 H   -3.631188    0.633888   -3.117771
 H   -2.124645    0.830975   -5.109335
 H   -0.980159   -0.296865   -4.358728
 H   -1.266688    1.280787   -3.617070
 H   -4.060252   -0.874150   -4.998425
 H   -2.896798   -2.058057   -4.393606
 H   -4.380169   -1.731233   -3.474659
 H   -3.296768    1.011855   -0.152389
 H   -5.131220   -0.839979    1.093190
 H   -4.118697    1.250547    2.113240
 H   -5.177234    2.239935    1.107264
 H   -6.976188   -0.033702    3.817178
 H   -8.164825    0.122709   -0.308126
