37 
3usn_ligand_xtb.xyz
 C   -2.191938    1.024708   -1.040288
 C   -2.690665    2.027093    0.031855
 C   -1.984911    3.955834    1.349979
 C   -2.985161   -3.394582   -0.053487
 C   -3.774262   -3.302539    1.079943
 C   -4.426427   -2.114673    1.367391
 C   -4.289986   -1.021612    0.530059
 C    2.474545   -0.065140   -0.108229
 C    4.828846   -0.234329    0.153794
 N    4.401527    0.966321   -0.012592
 N    3.089556    1.056658   -0.154997
 S    3.560727   -1.456922    0.145022
 S    6.493296   -0.656764    0.375036
 N    1.134499   -0.274978   -0.219528
 C    0.207938    0.696900   -0.614388
 O    0.521054    1.809899   -0.966608
 N   -1.063644    0.247864   -0.559653
 O   -3.819722    2.012186    0.477445
 N   -1.751274    2.917570    0.375977
 C   -3.317357    0.086915   -1.513911
 C   -3.498871   -1.102574   -0.609818
 C   -2.848622   -2.300928   -0.892135
 H   -1.833638    1.628510   -1.884061
 H   -3.005960    3.852159    1.713842
 H   -1.288400    3.860137    2.184556
 H   -1.859977    4.939317    0.894516
 H   -2.478213   -4.319477   -0.288447
 H   -3.883683   -4.155315    1.733369
 H   -5.047234   -2.040539    2.247797
 H   -4.787173   -0.091873    0.757928
 H    6.909764    0.604591    0.293399
 H    0.812793   -1.217400   -0.056118
 H   -1.295535   -0.655724   -0.171331
 H   -0.842265    2.882210   -0.073370
 H   -3.088212   -0.256861   -2.524090
 H   -4.237031    0.672037   -1.538692
 H   -2.243681   -2.383961   -1.785948
