37 
3usn_ligand_dft.xyz
 C   -1.923840    1.027353   -1.059701
 C   -2.251814    2.164371   -0.058965
 C   -1.310981    3.905999    1.359672
 C   -3.840480   -3.110784   -0.028900
 C   -4.576518   -2.783826    1.105215
 C   -4.880508   -1.449676    1.367693
 C   -4.450102   -0.445363    0.507060
 C    2.446612   -0.881059    0.075561
 C    4.782862   -0.600984    0.200017
 N    4.404304   -1.766020    0.618125
 N    3.045233   -1.930298    0.546740
 S    3.492196    0.448226   -0.345834
 S    6.460360   -0.067842    0.165313
 N    1.074347   -0.865595   -0.067144
 C    0.348274    0.216447   -0.529952
 O    0.907463    1.243078   -0.913807
 N   -0.993069    0.046238   -0.519347
 O   -3.400552    2.487408    0.213444
 N   -1.168537    2.786784    0.452352
 C   -3.193082    0.316717   -1.567097
 C   -3.710206   -0.761655   -0.637753
 C   -3.412455   -2.104833   -0.892950
 H   -1.421427    1.501622   -1.910491
 H   -2.065764    3.672887    2.113872
 H   -0.353089    4.086210    1.851271
 H   -1.623566    4.816736    0.835953
 H   -3.605327   -4.148405   -0.247352
 H   -4.914292   -3.563998    1.780790
 H   -5.456796   -1.188104    2.250393
 H   -4.671073    0.596483    0.714522
 H    6.916641   -1.215337    0.692822
 H    0.623834   -1.733691    0.189722
 H   -1.405079   -0.755316   -0.059894
 H   -0.256522    2.559099    0.070962
 H   -2.962449   -0.130137   -2.539313
 H   -3.955677    1.083668   -1.720413
 H   -2.848106   -2.365742   -1.786093
