44 
3usx_ligand_ani.xyz
 C   -4.367056   -0.890440    0.076394
 O   -3.925206   -0.398921    1.081578
 O   -5.607343   -1.429577    0.078210
 C   -3.615970   -0.974298   -1.243654
 C   -2.268996   -0.259744   -1.196654
 C   -2.396030    1.265621   -1.206894
 C   -1.092941    2.024358   -0.911625
 C   -0.874171    2.365679    0.570518
 C   -0.692158    1.228897    1.586333
 C    0.662898    0.506640    1.563276
 C    0.836895   -0.594093    0.514141
 C    2.194744   -1.301373    0.574853
 C    3.389461   -0.416104    0.215817
 C    4.704422   -1.196071    0.192378
 C    5.945000   -0.337022   -0.068306
 C    5.938061    0.356043   -1.430053
 H   -5.821235   -1.779948   -0.797540
 H   -4.255994   -0.557846   -2.035083
 H   -3.478996   -2.038262   -1.481830
 H   -1.652792   -0.578486   -2.046993
 H   -1.747559   -0.588348   -0.293489
 H   -3.154875    1.568837   -0.474293
 H   -2.782684    1.568231   -2.188822
 H   -1.120173    2.979006   -1.453048
 H   -0.230525    1.482537   -1.323713
 H   -1.739800    2.961602    0.894089
 H   -0.008706    3.038522    0.650485
 H   -1.522319    0.512972    1.519320
 H   -0.793465    1.686624    2.579642
 H    0.822956    0.051337    2.550297
 H    1.456875    1.258061    1.447188
 H    0.697629   -0.189521   -0.497766
 H    0.049475   -1.348947    0.657380
 H    2.175278   -2.158743   -0.112097
 H    2.345388   -1.719669    1.581652
 H    3.475616    0.411069    0.934636
 H    3.210352    0.046348   -0.765145
 H    4.640486   -1.981311   -0.575853
 H    4.824817   -1.716398    1.152950
 H    6.837429   -0.970922    0.010140
 H    6.036703    0.417404    0.725383
 H    5.818339   -0.372344   -2.240983
 H    5.119644    1.079528   -1.510681
 H    6.873560    0.898093   -1.603279
