23 
3uu1_ligand_ani.xyz
 C    2.397756   -2.511280    0.142439
 C    1.941791    2.502711   -0.162290
 N   -0.881519    2.156212   -0.019631
 O   -2.676634   -1.558901   -0.439642
 O   -2.949035    0.450282    0.431184
 C    2.076607   -0.005061   -0.022646
 C    0.135002   -1.385049    0.082597
 C   -2.180378   -0.396794    0.029249
 C    1.520601   -1.287252    0.072532
 C    1.302734    1.141999   -0.063566
 C   -0.107126    1.027550   -0.004146
 C   -0.693131   -0.257414    0.019999
 H    3.048522   -2.586356   -0.737145
 H    3.046933   -2.488494    1.026148
 H    1.801380   -3.427556    0.192398
 H    1.756012    3.108291    0.734050
 H    3.026106    2.409530   -0.274262
 H    1.563298    3.063534   -1.025027
 H   -0.449175    3.033969    0.213296
 H   -1.851012    2.028535    0.246209
 H   -1.974416   -2.067163   -0.868360
 H    3.161932    0.097012   -0.060660
 H   -0.316733   -2.372303    0.193418
