23 
3uug_ligand_ani.xyz
 C   -1.026935   -1.372788   -0.303314
 C   -1.790459   -0.174002    0.243691
 C   -1.154562    1.114531   -0.236525
 C    0.322812    1.125403    0.117685
 C    0.987586   -0.155250   -0.379190
 C    2.413567   -0.267093    0.156412
 O   -3.134205   -0.172440   -0.188696
 O   -1.746450    2.245087    0.365738
 O    0.979674    2.202043   -0.509755
 O    0.327002   -1.324298    0.097347
 O    2.749992    0.041885    1.272775
 O   -1.620111   -2.520009    0.224581
 O    3.265683   -0.769585   -0.751294
 H   -1.072151   -1.377652   -1.409681
 H   -1.720957   -0.210785    1.343652
 H   -1.248836    1.167034   -1.336420
 H    0.423140    1.160197    1.212754
 H    1.005613   -0.139019   -1.479086
 H   -3.518551   -1.015477    0.087945
 H   -2.695023    2.191192    0.183091
 H    0.560746    3.007064   -0.174177
 H   -0.949179   -3.214233    0.203425
 H    4.130461   -0.814597   -0.309624
