23 
3uug_ligand_xtb.xyz
 C   -1.109474   -1.327894   -0.370790
 C   -1.813147   -0.103079    0.248132
 C   -1.095183    1.166603   -0.209091
 C    0.389347    1.068892    0.162828
 C    0.981194   -0.235152   -0.400172
 C    2.393167   -0.395653    0.161304
 O   -3.156583   -0.037108   -0.161006
 O   -1.618282    2.318849    0.402882
 O    1.120406    2.139831   -0.364879
 O    0.242531   -1.364975    0.005732
 O    2.650388   -0.496266    1.325476
 O   -1.707307   -2.506587    0.046822
 O    3.304827   -0.396819   -0.802593
 H   -1.216735   -1.280878   -1.469281
 H   -1.749126   -0.179225    1.346668
 H   -1.191132    1.247860   -1.304869
 H    0.471940    1.044043    1.261305
 H    1.032652   -0.167406   -1.495916
 H   -3.519927   -0.931626   -0.130493
 H   -2.579380    2.272434    0.329374
 H    0.645557    2.948627   -0.132136
 H   -1.257800   -2.791049    0.853006
 H    4.200682   -0.460497   -0.430388
