103 
3uvx_ligand_xtb.xyz
 N   -1.383159    1.460036   -3.261898
 C   -0.085725    2.103631   -3.541699
 C    1.049980    1.329026   -2.852549
 O    1.613284    0.418421   -3.426544
 O    4.551270   -0.776565    1.233262
 C    5.594497   -0.413564    1.779636
 C    6.106222   -1.035996    3.047185
 N    6.352712    0.562810    1.269862
 C    6.056794    1.250478    0.029515
 C    5.399856    2.629455    0.246095
 C    4.030264    2.743984   -0.427199
 C    2.979473    1.827355    0.223552
 C    2.237347    0.962275   -0.788942
 N    1.371947    1.764648   -1.627866
 C    1.361237   -0.116120   -0.087772
 O    0.287205   -0.407566   -0.897365
 N    2.136026   -1.365554    0.211319
 C    2.483385   -2.197196   -0.956326
 C    1.244534   -2.757079   -1.665844
 O    0.545664   -3.609785   -1.145114
 N    1.049946   -2.293276   -2.905572
 C   -0.087277   -2.732119   -3.689216
 C   -1.384421   -2.167858   -3.111621
 O   -1.851004   -1.089939   -3.481920
 N   -1.969967   -2.928161   -2.191435
 C   -3.181180   -2.523644   -1.506489
 C   -2.817751   -1.580359   -0.350812
 O   -1.718277   -1.637583    0.177084
 C   -3.901289   -3.754423   -0.962871
 O    0.540501   -2.031566    2.140035
 C   -0.082909   -3.028520    2.524855
 C    0.120662   -4.382406    1.915852
 N   -0.958843   -2.958126    3.526683
 C   -1.247661   -1.753753    4.275205
 C   -2.746795   -1.456011    4.319710
 C   -3.379930   -1.244767    2.943539
 C   -2.832287   -0.010339    2.224606
 C   -3.669498    0.341056    0.984621
 N   -3.800386   -0.758446    0.041350
 C   -3.115166    1.572491    0.241522
 O   -2.751088    1.515039   -0.924969
 N   -3.130964    2.705364    0.949076
 C   -2.834591    4.015198    0.404344
 C   -1.359299    4.174183    0.047974
 O   -1.079657    5.421002   -0.283246
 C   -3.312218    5.115234    1.360733
 C   -2.549413    5.133588    2.681082
 O   -0.553637    3.276227    0.005381
 H   -1.691169    1.546292   -2.268706
 H   -2.121758    1.860079   -3.844909
 H   -1.382151    0.410212   -3.457026
 H    0.104237    2.071175   -4.616954
 H   -0.101080    3.142050   -3.208128
 H    5.328127   -1.642892    3.501342
 H    6.954357   -1.678013    2.815341
 H    6.434498   -0.276586    3.751856
 H    7.190991    0.834571    1.759762
 H    5.389458    0.600026   -0.539013
 H    6.988670    1.356553   -0.527293
 H    5.287897    2.809627    1.316646
 H    6.050174    3.409145   -0.148804
 H    3.705043    3.782560   -0.372034
 H    4.137705    2.497548   -1.484551
 H    3.471696    1.160375    0.929208
 H    2.250113    2.416339    0.780749
 H    2.945403    0.473083   -1.463652
 H    0.756360    2.396671   -1.127189
 H    1.037982    0.266736    0.891668
 H   -0.391354   -0.920818   -0.400114
 H    1.515485   -1.895679    0.927139
 H    3.024772   -1.123883    0.705018
 H    3.068217   -3.045268   -0.593186
 H    3.090238   -1.627248   -1.659922
 H    1.505270   -1.437107   -3.207323
 H   -0.125376   -3.824385   -3.681408
 H    0.039018   -2.373159   -4.710262
 H   -1.428144   -3.685512   -1.784769
 H   -3.803810   -1.991375   -2.233690
 H   -4.824127   -3.471137   -0.464404
 H   -4.142022   -4.433845   -1.775925
 H   -3.263789   -4.273671   -0.250687
 H    1.054745   -4.798476    2.291735
 H    0.210343   -4.289208    0.834960
 H   -0.685811   -5.065862    2.161673
 H   -1.417502   -3.801073    3.838783
 H   -0.877466   -1.869684    5.299196
 H   -0.695558   -0.942817    3.798832
 H   -3.256209   -2.287224    4.810979
 H   -2.898489   -0.569212    4.936536
 H   -3.203662   -2.127257    2.327908
 H   -4.458390   -1.136957    3.075913
 H   -2.855207    0.838236    2.910713
 H   -1.800747   -0.187063    1.926739
 H   -4.687114    0.589105    1.311561
 H   -4.648041   -0.756515   -0.505490
 H   -3.432101    2.689573    1.911435
 H   -3.367892    4.115660   -0.553778
 H   -0.144363    5.561989   -0.505075
 H   -4.377810    4.971437    1.546408
 H   -3.187788    6.075048    0.860408
 H   -1.488496    5.304438    2.515873
 H   -2.926081    5.939362    3.304037
 H   -2.663617    4.204694    3.236291
