70 
3uw5_ligand_xtb.xyz
 N   -0.590451    0.258947   -2.457909
 C   -1.251100    0.801544   -3.653191
 C   -0.155320   -1.170975   -2.559267
 C    0.723089   -1.417675   -3.775256
 C    0.540576   -1.435079   -1.202705
 O   -0.008058   -2.041942   -0.314924
 N    1.747481   -0.835841   -1.095159
 C    2.072125   -0.125477    0.125358
 C    1.499873    1.288952   -0.074779
 O    1.429468    1.741658   -1.219023
 C    3.586189   -0.055922    0.396922
 C    4.127344   -1.450611    0.718285
 C    5.613057   -1.378976    1.061231
 C    6.402062   -0.748739   -0.081643
 C    5.853446    0.637097   -0.405086
 C    4.373064    0.547646   -0.767893
 N    1.177835    1.988982    1.026212
 C    0.478884    1.319172    2.112368
 C   -0.590049    0.432948    1.443215
 O   -0.826026    0.550602    0.251336
 C   -0.175899    2.460075    2.901324
 C   -0.479580    3.487212    1.812316
 C    0.746765    3.382398    0.913012
 N   -1.222771   -0.449240    2.238536
 C   -2.086386   -1.409614    1.714353
 C   -3.009550   -1.279657    0.684754
 N   -3.523446   -2.474186    0.335241
 N   -3.111688   -3.456479    0.990260
 S   -1.988424   -3.078358    2.136537
 C   -3.464153   -0.061891    0.022150
 C   -3.786832   -0.109363   -1.333006
 C   -4.229533    1.028728   -1.983317
 C   -4.350650    2.223268   -1.291593
 C   -4.045751    2.271888    0.059316
 C   -3.609105    1.136807    0.716486
 H    0.231730    0.863658   -2.189868
 H   -1.225415    0.327970   -1.640943
 H   -0.541091    0.886581   -4.472201
 H   -1.648692    1.788783   -3.430117
 H   -2.070727    0.151669   -3.952471
 H   -1.051534   -1.797402   -2.602090
 H    1.213944   -2.382104   -3.672564
 H    0.129150   -1.447297   -4.684783
 H    1.488763   -0.653480   -3.889149
 H    2.111927   -0.356303   -1.908630
 H    1.585068   -0.660150    0.942117
 H    3.722052    0.586580    1.274822
 H    3.979840   -2.099722   -0.146834
 H    3.575126   -1.882050    1.555976
 H    5.747724   -0.782435    1.966173
 H    5.988070   -2.382601    1.264591
 H    7.454905   -0.676147    0.192032
 H    6.330289   -1.383985   -0.967024
 H    5.978963    1.291568    0.459906
 H    6.407345    1.074046   -1.236918
 H    4.273034   -0.090628   -1.648777
 H    3.989501    1.539611   -1.014749
 H    1.150584    0.718972    2.731869
 H   -1.064041    2.134247    3.439262
 H    0.539137    2.865350    3.617284
 H   -1.376960    3.199220    1.262910
 H   -0.614323    4.489432    2.209395
 H    1.559647    4.019039    1.273129
 H    0.544190    3.621654   -0.131015
 H   -0.904058   -0.585624    3.188283
 H   -3.714533   -1.054652   -1.849935
 H   -4.499778    0.982689   -3.027977
 H   -4.700859    3.109379   -1.798054
 H   -4.165797    3.195682    0.605288
 H   -3.405588    1.171825    1.776959
