70 
3uw5_ligand_ani.xyz
 N   -0.403087    1.877351   -1.622240
 C   -1.347579    2.917769   -2.050178
 C    0.276241    1.140993   -2.735550
 C    1.196549    2.026432   -3.570421
 C    0.971955   -0.040303   -2.048025
 O    0.416636   -1.115275   -1.943758
 N    2.206118    0.216271   -1.464991
 C    2.365635   -0.179235   -0.066780
 C    1.742125    0.938816    0.806471
 O    1.764155    2.105446    0.417550
 C    3.843679   -0.435069    0.296939
 C    4.378232   -1.660937   -0.453593
 C    5.824971   -1.972132   -0.062547
 C    6.733665   -0.757953   -0.270928
 C    6.194232    0.467570    0.470078
 C    4.755775    0.773977    0.047788
 N    1.170555    0.591919    2.001710
 C    0.380144   -0.626676    2.185812
 C   -0.747048   -0.700608    1.148405
 O   -0.981245    0.217732    0.388313
 C   -0.191245   -0.445582    3.598537
 C   -0.474596    1.056093    3.642369
 C    0.721000    1.666652    2.906062
 N   -1.498424   -1.856726    1.149968
 C   -2.473425   -2.139581    0.198202
 C   -3.407200   -1.296139   -0.370803
 N   -4.114002   -1.889803   -1.390921
 N   -3.856792   -3.118304   -1.585947
 S   -2.673455   -3.689843   -0.510604
 C   -3.760160    0.077086    0.016135
 C   -3.944737    1.032181   -0.982180
 C   -4.280320    2.340393   -0.658207
 C   -4.432452    2.706098    0.677691
 C   -4.254467    1.755875    1.679477
 C   -3.925526    0.444729    1.352564
 H    0.320948    2.296201   -1.014540
 H   -0.893887    1.186107   -1.026504
 H   -0.839510    3.734976   -2.571169
 H   -1.858328    3.329126   -1.178595
 H   -2.103699    2.499829   -2.723968
 H   -0.493818    0.689611   -3.369196
 H    1.799783    1.412526   -4.244218
 H    0.613436    2.718699   -4.185385
 H    1.871231    2.622295   -2.944219
 H    2.570798    1.146802   -1.629256
 H    1.812286   -1.117409    0.045984
 H    3.874975   -0.658361    1.374855
 H    4.313162   -1.467136   -1.532967
 H    3.739491   -2.531224   -0.252029
 H    5.852777   -2.264926    0.997625
 H    6.195325   -2.832667   -0.632623
 H    7.757469   -0.984412    0.051590
 H    6.787639   -0.530053   -1.345707
 H    6.216900    0.278568    1.553072
 H    6.835542    1.338646    0.290848
 H    4.748684    1.018571   -1.025144
 H    4.373280    1.658705    0.570886
 H    1.004390   -1.525715    2.113953
 H   -1.076509   -1.063528    3.775904
 H    0.572906   -0.718823    4.332266
 H   -1.396419    1.277486    3.089097
 H   -0.588722    1.438725    4.660026
 H    1.536586    1.947988    3.584007
 H    0.460716    2.546718    2.312543
 H   -1.168283   -2.635058    1.706335
 H   -3.812161    0.723834   -2.015840
 H   -4.397846    3.084447   -1.444687
 H   -4.688698    3.728939    0.936614
 H   -4.365872    2.039684    2.722392
 H   -3.798918   -0.302531    2.133928
