28 
3uwk_ligand_ani.xyz
 O    4.924305    0.276888    0.035480
 C    3.741613    0.007477    0.001322
 N    2.679192    0.895212    0.163842
 C    2.879633    2.304989    0.417717
 C    1.476736    0.215796    0.057200
 C    0.159117    0.613562    0.118447
 C   -0.803014   -0.393938   -0.037190
 C   -0.372379   -1.713606   -0.250482
 N    0.901105   -2.109756   -0.333265
 C    1.778295   -1.138868   -0.175830
 N    3.155574   -1.236771   -0.205739
 C   -2.250962   -0.070288   -0.004034
 C   -2.733257    1.067112   -0.658989
 C   -4.089385    1.372612   -0.651692
 C   -4.986544    0.553079    0.027575
 C   -4.516805   -0.575806    0.692958
 C   -3.162397   -0.889120    0.670897
 H    2.425818    2.915723   -0.369194
 H    2.457837    2.595969    1.385121
 H    3.957166    2.474378    0.428728
 H   -0.136768    1.645913    0.302229
 H   -1.116737   -2.496428   -0.390793
 H    3.688485   -2.077105   -0.358914
 H   -2.038452    1.706530   -1.199502
 H   -4.444356    2.258106   -1.172392
 H   -6.046347    0.793300    0.038694
 H   -5.208786   -1.222592    1.226056
 H   -2.807300   -1.767689    1.204866
