57 
3uwl_ligand_ani.xyz
 C   -3.747867    0.801342   -1.033261
 N   -4.641922    0.526443   -0.046951
 O   -4.017361    1.562166   -1.955480
 N    6.444248    1.555492   -0.646715
 O   -6.973908    3.263676    0.038918
 C    6.695758    2.080992    0.511906
 O   -4.927555    3.124010    0.950253
 N    6.222727    1.564274    1.685368
 O    2.926359   -2.923241    1.200181
 C    5.390638    0.432616    1.783234
 O    5.007829    0.096816    2.895435
 N    4.283365   -1.308926    0.330856
 C    3.852378   -1.712608   -1.038976
 C    5.015108   -1.474629   -1.985378
 N    5.437916   -0.088962   -1.885565
 C    2.568205   -0.982582   -1.470021
 C   -5.938127    1.139816   -0.048877
 C   -6.917743    0.395803    0.869949
 C   -6.091055   -2.026606    0.867376
 C   -7.173024   -1.054563    0.456137
 C   -5.846920    2.604655    0.373179
 N    1.423559   -1.515906   -0.777060
 C   -2.414869    0.138499   -0.933093
 C   -2.132522   -0.945840   -0.094787
 C   -0.858652   -1.487492   -0.047550
 C    0.171778   -0.965812   -0.850247
 C   -0.121218    0.100664   -1.713985
 C   -1.398932    0.634316   -1.749819
 C    5.112475   -0.168059    0.489457
 C    5.671239    0.430686   -0.646559
 N    7.425853    3.238445    0.605150
 O   -5.144374   -1.795292    1.592374
 O   -6.298374   -3.243820    0.344356
 C    3.740440   -2.029696    1.369453
 H   -4.397545   -0.053330    0.742993
 H   -6.847707    4.177815    0.342525
 H    6.360923    2.042686    2.567131
 H    3.648007   -2.780131   -0.970505
 H    4.706531   -1.677749   -3.016411
 H    5.825351   -2.178235   -1.735440
 H    6.047748    0.285932   -2.598215
 H    2.437165   -1.096141   -2.556058
 H    2.684148    0.093631   -1.274733
 H   -6.323361    1.134834   -1.075031
 H   -6.549507    0.420323    1.902839
 H   -7.863195    0.945971    0.851915
 H   -8.097841   -1.419208    0.919197
 H   -7.318195   -1.148919   -0.626233
 H    1.587098   -2.208565   -0.057977
 H   -2.905870   -1.398755    0.524940
 H   -0.652006   -2.320560    0.622707
 H    0.649129    0.512177   -2.360317
 H   -1.631591    1.456516   -2.420453
 H    7.886702    3.473661   -0.264097
 H    8.020744    3.337950    1.415566
 H   -5.574400   -3.804726    0.669771
 H    4.093990   -1.734733    2.363178
