32 
3uwo_ligand_ani.xyz
 C    0.413303   -1.360721   -0.756998
 C    0.132094   -0.064272   -0.295454
 C    1.192800    0.743139    0.136377
 C    2.450027    0.183617    0.078525
 C    2.601305   -1.125641   -0.414825
 N    1.628963   -1.909735   -0.835357
 N    3.711457    0.650669    0.408682
 C    4.665515   -0.328831    0.137953
 N    3.951994   -1.410340   -0.368189
 C    4.060484    1.944669    0.952415
 O    5.863349   -0.242919    0.312293
 C   -1.260140    0.448503   -0.285272
 C   -1.529601    1.764169   -0.680065
 C   -2.830985    2.253828   -0.678943
 C   -3.885781    1.438791   -0.282145
 C   -3.633556    0.122965    0.106906
 C   -2.328124   -0.357954    0.114759
 C   -4.718715   -0.810666    0.558821
 O   -4.498298   -1.750608    1.301677
 N   -5.979343   -0.525802    0.099367
 H   -0.409237   -1.982439   -1.108348
 H    1.012353    1.747409    0.518244
 H    4.388247   -2.271165   -0.655188
 H    5.138344    1.937353    1.119715
 H    3.809667    2.748916    0.253236
 H    3.546925    2.123164    1.902522
 H   -0.712647    2.402844   -1.006938
 H   -3.024087    3.277849   -0.986869
 H   -4.897259    1.836153   -0.246903
 H   -2.165102   -1.370567    0.474536
 H   -6.672854   -1.231768    0.300825
 H   -6.098013   -0.012646   -0.760439
