45 
3uyt_ligand_ani.xyz
 C   -0.034824   -0.406816   -0.149880
 N   -1.151891   -1.234056   -0.168688
 C   -0.674154   -2.505483   -0.154151
 N    0.627953   -2.562800   -0.120262
 C    1.055634   -1.271077   -0.074605
 C    0.968615    1.674506   -1.051484
 C    0.896866    3.055820   -1.177443
 N   -0.084449    3.789370   -0.667901
 C   -1.023917    3.095037   -0.006925
 N   -1.072439    1.776056    0.161349
 C   -0.059433    1.045852   -0.349085
 N   -2.036652    3.823955    0.569111
 C   -3.452260   -1.855779   -0.889023
 C   -2.570320   -0.841370   -0.154567
 C   -3.090561   -0.605546    1.268582
 C   -4.551204   -0.147630    1.238584
 C   -5.439426   -1.136345    0.476191
 C   -4.905355   -1.380084   -0.938392
 C    4.285776    0.325492    1.069908
 C    5.192235   -0.443372    0.358029
 C    4.789458   -1.480775   -0.468854
 C    3.434304   -1.749102   -0.585340
 C    2.487972   -0.976274    0.092845
 C    2.932382    0.049484    0.934591
 F    6.504158   -0.179893    0.477631
 H   -1.327855   -3.369175   -0.179835
 H    1.788631    1.111899   -1.481373
 H    1.671308    3.600754   -1.717565
 H   -2.167327    4.741348    0.170006
 H   -2.881154    3.297367    0.739232
 H   -3.426252   -2.818860   -0.358040
 H   -3.055007   -2.022016   -1.896773
 H   -2.623900    0.107675   -0.695449
 H   -2.468906    0.149631    1.759149
 H   -2.999794   -1.539652    1.841628
 H   -4.608079    0.839564    0.751768
 H   -4.922412   -0.009646    2.261311
 H   -6.475568   -0.777797    0.443314
 H   -5.454327   -2.093238    1.018184
 H   -5.526561   -2.115682   -1.463022
 H   -4.964463   -0.448296   -1.519874
 H    4.643690    1.120905    1.714086
 H    5.534479   -2.063268   -1.001546
 H    3.090910   -2.568003   -1.210285
 H    2.206786    0.648620    1.477254
