14 
3uz5_ligand_xtb.xyz
 C    8.517697   -1.010442    8.985248
 N    9.543026   -1.448975    8.210963
 N   10.706438   -1.084443    8.758697
 N   10.512220   -0.443161    9.828582
 C    9.171965   -0.344272   10.055584
 C    8.444690    0.256600   11.082745
 C    7.074484    0.164365   10.996583
Cl    6.096155    0.879719   12.224800
 C    6.415550   -0.492648    9.943416
 C    7.130130   -1.085993    8.927484
Cl    6.344690   -1.899266    7.620531
 H    9.505227   -1.969968    7.349433
 H    8.939563    0.762406   11.893746
 H    5.338165   -0.527921    9.938188
