36 
3uza_ligand_ani.xyz
 N   -1.663726   -3.063757   -0.062978
 N   -0.486492   -2.493298    0.033280
 C   -0.365459   -1.168699   -0.024445
 C   -1.539252   -0.359581    0.006203
 N   -2.722280   -0.928723   -0.194603
 C   -2.728957   -2.263867   -0.228264
 N    3.735698    0.074141   -0.267042
 C    3.363271   -0.981601    0.463531
 C    2.039929   -1.411162    0.546380
 C    1.052310   -0.702013   -0.127650
 C    1.451212    0.384329   -0.905778
 C    2.796400    0.742628   -0.943049
 C   -1.622203    3.878136    0.661390
 C   -0.704728    3.093594    1.353808
 C   -0.671150    1.719160    1.157176
 C   -1.551484    1.109047    0.255106
 C   -2.496272    1.899990   -0.404634
 C   -2.519281    3.276132   -0.216108
 N   -3.924532   -2.886812   -0.444349
 C    3.255555    1.925049   -1.749466
 C    4.459340   -1.703845    1.200763
 H    1.770691   -2.290917    1.122373
 H    0.714839    0.978415   -1.439066
 H   -1.643120    4.954376    0.810727
 H   -0.008465    3.555461    2.048635
 H    0.063889    1.118226    1.688339
 H   -3.211843    1.422451   -1.068339
 H   -3.248047    3.880072   -0.751493
 H   -3.959001   -3.859021   -0.175990
 H   -4.742874   -2.331126   -0.252622
 H    3.738122    2.663857   -1.101007
 H    3.989445    1.613735   -2.500009
 H    2.415786    2.404879   -2.260075
 H    5.234030   -2.029117    0.499841
 H    4.927761   -1.035474    1.930199
 H    4.072726   -2.580458    1.728559
