14 
3uzj_ligand_dft.xyz
 N   -0.440879   34.499715  -17.609587
 C   -1.248482   35.355201  -16.925514
 C   -2.463983   35.996072  -17.199647
 C   -2.961965   36.810028  -16.201522
 C   -2.286517   36.989411  -14.971184
 C   -1.090028   36.354826  -14.709144
 C   -0.569728   35.524062  -15.711840
 N    0.584839   34.770865  -15.743032
 N    0.646077   34.166825  -16.874296
 H   -0.545043   34.102182  -18.529223
 H   -2.987382   35.863597  -18.140453
 H   -3.901257   37.329814  -16.363831
 H   -2.725593   37.641976  -14.223451
 H   -0.561059   36.483427  -13.771276
