45 
3uzp_ligand_ani.xyz
 C   -0.029108   -0.391202   -0.168127
 N   -1.136695   -1.230376   -0.198678
 C   -0.645684   -2.496283   -0.211573
 N    0.656537   -2.539789   -0.178489
 C    1.071086   -1.244595   -0.106787
 C    0.918961    1.706949   -1.093914
 C    0.817880    3.086699   -1.222773
 N   -0.159265    3.804291   -0.684124
 C   -1.063181    3.096426    0.011199
 N   -1.084953    1.776820    0.181927
 C   -0.077980    1.062377   -0.361986
 N   -2.066288    3.809986    0.622113
 C   -3.441357   -1.864761   -0.894875
 C   -2.558969   -0.853965   -0.156295
 C   -3.058967   -0.649211    1.278898
 C   -4.524480   -0.206294    1.280321
 C   -5.414609   -1.189466    0.512892
 C   -4.899640   -1.402738   -0.913743
 C    4.293508    0.374175    1.033381
 C    5.206024   -0.439754    0.382212
 C    4.808473   -1.509935   -0.404361
 C    3.452895   -1.765117   -0.541775
 C    2.500828   -0.948321    0.075097
 C    2.939710    0.110811    0.877237
 F    6.518325   -0.189066    0.522862
 H   -1.290592   -3.365788   -0.257562
 H    1.737468    1.158103   -1.543833
 H    1.564159    3.642841   -1.790131
 H   -2.228579    4.723331    0.225240
 H   -2.893842    3.268853    0.826472
 H   -3.397719   -2.836664   -0.381366
 H   -3.058100   -2.009364   -1.911351
 H   -2.631920    0.103677   -0.679253
 H   -2.437531    0.103804    1.773148
 H   -2.949088   -1.592322    1.833591
 H   -4.599067    0.789527    0.813964
 H   -4.880889   -0.092009    2.311214
 H   -6.454372   -0.840094    0.501693
 H   -5.412718   -2.156061    1.037552
 H   -5.521642   -2.134935   -1.442152
 H   -4.976596   -0.461395   -1.477457
 H    4.647011    1.194165    1.648654
 H    5.557554   -2.128201   -0.888776
 H    3.111918   -2.610154   -1.132467
 H    2.211936    0.742988    1.377644
