45 
3uzp_ligand_dft.xyz
 C   -0.001763   -0.411628   -0.100426
 N   -1.106188   -1.250040   -0.065622
 C   -0.621482   -2.507699    0.069538
 N    0.689125   -2.550195    0.130676
 C    1.096856   -1.246801    0.031881
 C    0.834154    1.705769   -1.120329
 C    0.676162    3.078090   -1.234815
 N   -0.303627    3.759745   -0.642961
 C   -1.150702    3.020201    0.086854
 N   -1.082315    1.698071    0.299916
 C   -0.087960    1.038690   -0.307078
 N   -2.206696    3.672503    0.655302
 C   -3.336137   -1.860330   -0.985728
 C   -2.520617   -0.874344   -0.145592
 C   -3.123970   -0.700965    1.250437
 C   -4.572687   -0.218141    1.143689
 C   -5.415194   -1.160572    0.278406
 C   -4.782489   -1.365879   -1.101847
 C    4.351885    0.513581    0.841982
 C    5.248310   -0.365449    0.254028
 C    4.827432   -1.518774   -0.390427
 C    3.465943   -1.787568   -0.455903
 C    2.530812   -0.914966    0.111059
 C    2.993698    0.227103    0.773121
 F    6.562710   -0.095437    0.317742
 H   -1.268391   -3.371903    0.116710
 H    1.631367    1.176773   -1.625857
 H    1.365182    3.665157   -1.838740
 H   -2.139622    4.676794    0.705807
 H   -2.681922    3.197971    1.406457
 H   -3.340458   -2.850648   -0.511352
 H   -2.880513   -1.974318   -1.975509
 H   -2.546505    0.096824   -0.645071
 H   -2.513327    0.013864    1.808582
 H   -3.084139   -1.663826    1.778844
 H   -4.578616    0.787413    0.698999
 H   -5.010962   -0.125102    2.143553
 H   -6.433518   -0.770406    0.171461
 H   -5.499765   -2.133267    0.783147
 H   -5.370773   -2.079337   -1.689040
 H   -4.795460   -0.415664   -1.653378
 H    4.720506    1.395122    1.354811
 H    5.560118   -2.187028   -0.829429
 H    3.111059   -2.688653   -0.945045
 H    2.285754    0.896687    1.251078
