56 
3v2p_ligand_dft.xyz
 C   -5.160667   -2.683675   -0.042372
 O   -5.955112   -3.520388    0.290340
 O   -3.886247   -3.040330   -0.338313
 C   -5.458283   -1.198611   -0.143053
 C   -4.698464   -0.377749    0.911440
 C   -5.035183    1.115816    0.871514
 C   -4.745086    1.811120   -0.465916
 C   -3.318540    1.631465   -0.996723
 C   -2.225082    2.123008   -0.047548
 C   -0.822922    2.016898   -0.646604
 C    0.277696    2.487987    0.303296
 C    1.678799    2.386036   -0.298852
 C    2.777286    2.832553    0.666600
 C    4.182042    2.855625    0.052631
 C    4.658638    1.523655   -0.538489
 C    4.660536    0.360325    0.453868
 C    5.248170   -0.923358   -0.132519
 C    5.220413   -2.095978    0.849308
 C    5.893540   -3.370792    0.330380
 C    5.216661   -3.974900   -0.900485
 H   -3.375868   -2.263250   -0.601811
 H   -6.535947   -1.074581   -0.013886
 H   -5.202035   -0.851700   -1.152875
 H   -3.615124   -0.511082    0.787048
 H   -4.938694   -0.773726    1.904697
 H   -4.477710    1.614801    1.673233
 H   -6.097584    1.247767    1.112824
 H   -4.946566    2.883312   -0.345710
 H   -5.453763    1.457853   -1.225966
 H   -3.230965    2.167333   -1.950758
 H   -3.136130    0.572890   -1.236297
 H   -2.255799    1.550973    0.890066
 H   -2.427722    3.168072    0.226828
 H   -0.778628    2.603490   -1.575079
 H   -0.629545    0.973559   -0.935877
 H    0.237059    1.895594    1.228650
 H    0.082465    3.528738    0.598194
 H    1.728268    2.993361   -1.214298
 H    1.856948    1.347810   -0.610903
 H    2.766627    2.180202    1.550131
 H    2.541068    3.840131    1.034359
 H    4.895772    3.178375    0.822443
 H    4.212513    3.620454   -0.735084
 H    5.675965    1.660438   -0.928979
 H    4.038618    1.256762   -1.405064
 H    3.635304    0.157919    0.793582
 H    5.228358    0.646851    1.351015
 H    6.285273   -0.738702   -0.448283
 H    4.692196   -1.183804   -1.043130
 H    4.176919   -2.320151    1.114172
 H    5.713453   -1.788106    1.781396
 H    5.903223   -4.116239    1.135262
 H    6.945397   -3.154484    0.099369
 H    4.154864   -4.169031   -0.706905
 H    5.280818   -3.308261   -1.766891
 H    5.684516   -4.924374   -1.180560
