50 
3v2q_ligand_dft.xyz
 C    7.953048   -1.015797    0.161008
 O    8.998970   -0.199467    0.439549
 O    8.149577   -2.093631   -0.330757
 C    6.579252   -0.455685    0.486974
 C    6.203268    0.736654   -0.408405
 C    4.843005    1.349849   -0.064451
 C    3.656814    0.402561   -0.252911
 C    2.309136    1.090803   -0.035565
 C    1.117890    0.147694   -0.201377
 C   -0.230578    0.836546    0.006821
 C   -1.421822   -0.107355   -0.155180
 C   -2.770905    0.581499    0.049072
 C   -3.961906   -0.363070   -0.110885
 C   -5.311408    0.325820    0.090542
 C   -6.502175   -0.619374   -0.067790
 C   -7.852032    0.069343    0.131434
 C   -9.043519   -0.875881   -0.025713
 C  -10.387448   -0.177594    0.174127
 H    8.684157    0.619854    0.843182
 H    6.548634   -0.150285    1.542561
 H    5.869958   -1.274642    0.357721
 H    6.205398    0.406519   -1.454646
 H    6.971224    1.518135   -0.332829
 H    4.694355    2.234923   -0.696581
 H    4.857809    1.712761    0.973229
 H    3.737375   -0.445589    0.439866
 H    3.690153   -0.023276   -1.265835
 H    2.211020    1.928381   -0.740609
 H    2.284989    1.533400    0.970530
 H    1.213247   -0.686438    0.508211
 H    1.146211   -0.300102   -1.204840
 H   -0.327079    1.668785   -0.704930
 H   -0.257772    1.287067    1.009275
 H   -1.326398   -0.938268    0.558249
 H   -1.392994   -0.559923   -1.156588
 H   -2.866884    1.411345   -0.665595
 H   -2.799306    1.035563    1.049899
 H   -3.866687   -1.191937    0.604995
 H   -3.932366   -0.818586   -1.110979
 H   -5.407089    1.153812   -0.626320
 H   -5.340635    0.782511    1.090147
 H   -6.406961   -1.446600    0.650043
 H   -6.471958   -1.077173   -1.066867
 H   -7.948141    0.896127   -0.586971
 H   -7.882635    0.528058    1.130218
 H   -8.947204   -1.700685    0.693042
 H   -9.011855   -1.333826   -1.023445
 H  -10.456086    0.262689    1.175663
 H  -10.521498    0.631476   -0.553244
 H  -11.223082   -0.875363    0.056910
