50 
3v2q_ligand_xtb.xyz
 C    7.916401   -0.983273    0.139201
 O    8.927622   -0.151431    0.456147
 O    8.131852   -2.038282   -0.380055
 C    6.533268   -0.458591    0.468651
 C    6.135181    0.637494   -0.529328
 C    4.806647    1.306746   -0.174979
 C    3.611010    0.361685   -0.267449
 C    2.289155    1.092283   -0.041796
 C    1.098219    0.139261   -0.103132
 C   -0.233081    0.861508    0.087052
 C   -1.415782   -0.099895    0.002126
 C   -2.757190    0.615232    0.140683
 C   -3.930610   -0.355270    0.031902
 C   -5.279730    0.353117    0.122620
 C   -6.445912   -0.626112    0.012521
 C   -7.798376    0.080528    0.049733
 C   -8.962390   -0.900997   -0.062504
 C  -10.309500   -0.189600   -0.038417
 H    8.615386    0.664075    0.869554
 H    6.520802   -0.058946    1.486721
 H    5.834032   -1.291133    0.406986
 H    6.065872    0.196716   -1.525485
 H    6.914271    1.405205   -0.563032
 H    4.649061    2.140436   -0.863363
 H    4.863924    1.721211    0.834783
 H    3.705745   -0.430719    0.476728
 H    3.599231   -0.106987   -1.253943
 H    2.169447    1.869023   -0.800774
 H    2.308716    1.584843    0.933433
 H    1.207100   -0.625273    0.669779
 H    1.095057   -0.369218   -1.070154
 H   -0.338541    1.631671   -0.680735
 H   -0.240327    1.361818    1.058228
 H   -1.325654   -0.854043    0.787579
 H   -1.385414   -0.620573   -0.958096
 H   -2.843422    1.374405   -0.640391
 H   -2.798282    1.128224    1.104410
 H   -3.858672   -1.099299    0.828846
 H   -3.868668   -0.887114   -0.920733
 H   -5.352690    1.092471   -0.678651
 H   -5.345214    0.889227    1.072384
 H   -6.391220   -1.345968    0.832905
 H   -6.358361   -1.185803   -0.922010
 H   -7.852570    0.798180   -0.772443
 H   -7.888104    0.641501    0.983105
 H   -8.913292   -1.613966    0.763839
 H   -8.867693   -1.466862   -0.992338
 H  -10.430290    0.367173    0.888356
 H  -10.386389    0.509248   -0.868655
 H  -11.123495   -0.906508   -0.116879
