50 
3v2q_ligand_ani.xyz
 C    7.953303   -1.023408    0.132433
 O    8.989373   -0.160050    0.283668
 O    8.160171   -2.150425   -0.225927
 C    6.578007   -0.453027    0.436914
 C    6.188539    0.707495   -0.486672
 C    4.844320    1.347158   -0.128261
 C    3.647079    0.405129   -0.248842
 C    2.311323    1.100514    0.010544
 C    1.113212    0.162944   -0.121415
 C   -0.230067    0.853634    0.110008
 C   -1.421998   -0.089504   -0.046429
 C   -2.772735    0.594064    0.160024
 C   -3.957175   -0.355679   -0.012794
 C   -5.313808    0.329555    0.142288
 C   -6.492865   -0.624430   -0.041698
 C   -7.851776    0.062752    0.076389
 C   -9.031245   -0.890465   -0.111700
 C  -10.383404   -0.191060    0.006069
 H    8.667490    0.693643    0.604246
 H    6.560927   -0.117006    1.484050
 H    5.868659   -1.277636    0.346565
 H    6.159299    0.345355   -1.522540
 H    6.966466    1.482546   -0.457513
 H    4.682813    2.213441   -0.783555
 H    4.891366    1.743192    0.896659
 H    3.756486   -0.433261    0.453060
 H    3.634355   -0.038028   -1.256116
 H    2.194771    1.939330   -0.692132
 H    2.319499    1.544910    1.017083
 H    1.220769   -0.669091    0.590336
 H    1.118270   -0.291142   -1.123801
 H   -0.334295    1.691184   -0.596121
 H   -0.244616    1.299131    1.116085
 H   -1.322688   -0.923657    0.664429
 H   -1.395748   -0.540223   -1.050035
 H   -2.869232    1.428524   -0.550784
 H   -2.807401    1.042925    1.164037
 H   -3.875899   -1.175812    0.716471
 H   -3.902762   -0.825706   -1.006398
 H   -5.391492    1.148119   -0.589064
 H   -5.375839    0.800417    1.134843
 H   -6.426800   -1.433012    0.701890
 H   -6.416489   -1.110040   -1.026343
 H   -7.916327    0.870405   -0.668135
 H   -7.930659    0.549175    1.060232
 H   -8.965528   -1.695695    0.633104
 H   -8.950204   -1.373585   -1.095303
 H  -10.498594    0.277467    0.990656
 H  -10.484859    0.597383   -0.749104
 H  -11.212331   -0.893498   -0.129885
