59 
3v3q_ligand_ani.xyz
 C   -1.661654   -0.643785   -0.401016
 C   -2.727552    0.093733    0.121146
 C   -2.782651    1.479707    0.014835
 C   -1.772710    2.159979   -0.688639
 C   -0.670617    1.443662   -1.156987
 C   -0.602302    0.055275   -0.991185
 C   -1.554578   -2.124410   -0.141099
 C   -0.558806   -2.378438    0.989584
 O   -0.133737   -1.493337    1.689805
 O   -0.187808   -3.648561    1.251322
 C   -0.417040   -4.724399    0.333414
 C    0.638560   -4.789606   -0.757867
 C    0.634450   -0.694633   -1.420511
 C    1.946238   -0.265917   -0.793191
 C    3.156651   -0.981170   -1.383537
 C    4.443961   -0.862301   -0.559278
 C    4.957539    0.566158   -0.329341
 C    4.393585    1.256658    0.914718
 C    4.983462    2.646788    1.143239
 C    4.440392    3.325190    2.398445
 O    0.572334   -1.644497   -2.174982
 O   -3.736615   -0.568997    0.775576
 O   -3.793261    2.184568    0.608896
 O   -1.956084    3.492574   -0.840971
 C   -3.607185   -0.454528    2.191894
 C   -5.025408    2.083751   -0.090907
 C   -0.974113    4.198913   -1.565550
 H    0.146247    1.953648   -1.656171
 H   -1.221565   -2.633782   -1.049995
 H   -2.532296   -2.522658    0.159423
 H   -1.431944   -4.671169   -0.082168
 H   -0.366367   -5.614229    0.964918
 H    0.586017   -3.932139   -1.437177
 H    1.638042   -4.817245   -0.312922
 H    0.500665   -5.702953   -1.347667
 H    1.835426   -0.478145    0.279854
 H    2.042248    0.825315   -0.873719
 H    3.335554   -0.601101   -2.398054
 H    2.902395   -2.041432   -1.497383
 H    5.221464   -1.445399   -1.069524
 H    4.296417   -1.348525    0.416895
 H    4.756111    1.180691   -1.219611
 H    6.051033    0.535541   -0.226781
 H    4.600644    0.627681    1.793637
 H    3.300311    1.331428    0.854327
 H    4.777445    3.275150    0.265682
 H    6.077156    2.565758    1.212996
 H    3.353221    3.452667    2.338340
 H    4.654041    2.727827    3.292659
 H    4.885178    4.315172    2.543418
 H   -2.612755   -0.798847    2.505674
 H   -3.759567    0.583356    2.506039
 H   -4.380068   -1.091472    2.626553
 H   -4.925396    2.510173   -1.097066
 H   -5.348578    1.039204   -0.159817
 H   -5.756897    2.662348    0.477691
 H    0.007766    4.129859   -1.078993
 H   -0.893306    3.825390   -2.594916
 H   -1.298597    5.240124   -1.582304
