59 
3v3q_ligand_xtb.xyz
 C   -1.782300   -0.239624   -0.310156
 C   -2.632822    0.811470    0.021157
 C   -2.235656    2.150971   -0.126583
 C   -0.926152    2.421752   -0.563830
 C   -0.078562    1.365211   -0.859162
 C   -0.488710    0.042646   -0.744793
 C   -2.238918   -1.659593   -0.136853
 C   -1.395000   -2.352855    0.922592
 O   -0.650245   -1.755226    1.656432
 O   -1.518821   -3.672433    1.082249
 C   -2.233512   -4.505091    0.177453
 C   -1.350765   -4.934295   -0.989328
 C    0.449318   -1.077523   -1.039737
 C    1.789668   -0.964270   -0.361523
 C    2.734174   -2.103830   -0.724758
 C    4.053245   -2.061710    0.046397
 C    4.891804   -0.804686   -0.229019
 C    4.752231    0.265157    0.854488
 C    5.466784    1.560704    0.475683
 C    5.332701    2.620319    1.562690
 O    0.134034   -2.025242   -1.726361
 O   -3.906274    0.508051    0.451604
 O   -3.181165    3.073739    0.206726
 O   -0.541665    3.734960   -0.659706
 C   -4.181766    0.849107    1.799072
 C   -3.116762    4.391024   -0.294445
 C    0.763774    4.029268   -1.092256
 H    0.917553    1.571495   -1.213105
 H   -2.160908   -2.184449   -1.088525
 H   -3.282608   -1.661361    0.187988
 H   -3.144471   -4.011705   -0.173768
 H   -2.518686   -5.375588    0.775307
 H   -0.942854   -4.070025   -1.508647
 H   -0.518865   -5.529188   -0.621848
 H   -1.930560   -5.530478   -1.688312
 H    1.579943   -0.969293    0.712547
 H    2.233782   -0.000422   -0.607884
 H    2.936089   -2.072041   -1.798178
 H    2.229617   -3.049582   -0.517562
 H    4.628439   -2.946517   -0.233731
 H    3.846725   -2.133152    1.115955
 H    4.607702   -0.384139   -1.196693
 H    5.947014   -1.078116   -0.299987
 H    5.173527   -0.116502    1.787399
 H    3.698840    0.480459    1.038934
 H    5.048283    1.944828   -0.458596
 H    6.524639    1.353021    0.299328
 H    4.284691    2.847059    1.748649
 H    5.773680    2.268884    2.492758
 H    5.836514    3.538699    1.269672
 H   -3.486663    0.340559    2.475889
 H   -4.122484    1.926845    1.960076
 H   -5.197113    0.505203    1.988976
 H   -2.346202    4.978888    0.207705
 H   -2.936303    4.401514   -1.371124
 H   -4.097190    4.820457   -0.087199
 H    1.516625    3.622394   -0.409712
 H    0.948270    3.660068   -2.106156
 H    0.829394    5.116464   -1.090237
