62 
3v5j_ligand_ani.xyz
 C  -57.526672  -21.582937   27.596502
 C  -58.909649  -21.010628   27.321978
 O  -58.892482  -20.142932   26.205410
 C  -57.972446  -19.086945   26.400807
 C  -56.571038  -19.622714   26.639522
 N  -56.588732  -20.491727   27.811902
 C  -55.265080  -20.948317   28.206710
 C  -54.520471  -19.948181   29.076940
 O  -54.010943  -18.893046   28.273037
 C  -53.290895  -17.927577   28.904331
 C  -53.083222  -17.889669   30.278206
 C  -52.340453  -16.848986   30.875755
 C  -52.166033  -16.812800   32.394289
 C  -52.909326  -15.578489   32.945262
 C  -52.967665  -15.470596   34.467113
 C  -50.669496  -16.795061   32.765665
 C  -49.926493  -18.034020   32.275496
 O  -52.758679  -17.993898   32.921939
 C  -51.790841  -15.842338   30.098561
 C  -51.997077  -15.885956   28.715444
 N  -51.576923  -15.033802   27.726672
 C  -52.743699  -16.911377   28.089535
 C  -52.747649  -16.631356   26.690348
 C  -52.025295  -15.477206   26.503063
 C  -51.694637  -14.728072   25.307356
 C  -52.047545  -14.982385   23.945030
 S  -52.904970  -16.054386   22.871910
 C  -52.440000  -15.075361   21.501736
 C  -51.680390  -13.995478   21.815526
 C  -51.458735  -13.949528   23.231954
 N  -50.815462  -13.162483   24.139546
 N  -50.951902  -13.623598   25.393570
 H  -57.570376  -22.206832   28.498582
 H  -57.226857  -22.233977   26.751861
 H  -59.267467  -20.474521   28.215279
 H  -59.621488  -21.809022   27.088648
 H  -58.005174  -18.471275   25.495786
 H  -58.279405  -18.466796   27.257883
 H  -56.237584  -20.167505   25.734878
 H  -55.870336  -18.803319   26.813547
 H  -55.387082  -21.858495   28.806712
 H  -54.631072  -21.213921   27.342053
 H  -55.201001  -19.542763   29.835293
 H  -53.684928  -20.451162   29.582317
 H  -53.481799  -18.651413   30.934960
 H  -52.439386  -14.678252   32.532737
 H  -53.929281  -15.609237   32.543211
 H  -53.489800  -14.553692   34.757009
 H  -53.515215  -16.306061   34.919951
 H  -51.971915  -15.431184   34.921553
 H  -50.573931  -16.717803   33.856933
 H  -50.211403  -15.888581   32.352719
 H  -48.869737  -17.990065   32.556190
 H  -50.362792  -18.938542   32.708901
 H  -49.986375  -18.119350   31.184103
 H  -52.725005  -17.923143   33.884923
 H  -51.214650  -15.032414   30.538905
 H  -51.018132  -14.196122   27.821963
 H  -53.222083  -17.212390   25.909134
 H  -52.771592  -15.373724   20.514820
 H  -51.304924  -13.283593   21.090584
 H  -50.278334  -12.325020   23.979473
