57 
3v5q_ligand_ani.xyz
 F   21.765846   10.597650    6.824662
 C   22.600459    9.909766    7.627089
 F   22.109074    9.981903    8.877071
 F   22.524758    8.619713    7.245619
 C   24.007395   10.434929    7.535486
 C   24.547546   10.693402    6.279965
 C   25.859302   11.148807    6.191595
 C   26.611983   11.341233    7.342143
 C   26.060178   11.082886    8.601593
 N   26.879310   11.284290    9.729503
 C   26.501417   11.213536   11.057885
 O   25.354464   11.034941   11.427577
 N   27.573455   11.372140   11.920730
 C   27.556600   11.235699   13.326001
 C   28.786946   11.065921   13.975145
 C   28.824077   10.930865   15.355363
 C   27.656292   10.956062   16.112101
 C   26.429946   11.124324   15.463655
 N   25.209502   11.197972   16.145956
 C   24.813256   10.584507   17.333965
 C   25.416007    9.403784   17.825313
 C   24.965967    8.804524   18.988293
 C   23.896267    9.371077   19.699063
 C   23.308294   10.544564   19.188929
 N   22.279740   10.935239   20.027800
 C   22.128512   10.074628   21.100733
 O   21.278258   10.232440   21.967998
 C   23.177210    9.018273   20.922058
 C   23.434948    7.935587   21.701992
 C   22.822225    7.436980   22.900322
 C   23.189221    6.284186   23.582779
 C   22.334797    6.156956   24.697265
 C   21.473557    7.229650   24.666663
 N   21.773749    7.993906   23.583457
 C   23.736922   11.147391   18.021756
 C   26.384311   11.287712   14.074955
 C   24.745728   10.624665    8.697554
 H   23.944830   10.540214    5.391428
 H   26.297934   11.354899    5.219998
 H   27.636396   11.697974    7.263221
 H   27.830352   11.544874    9.516720
 H   28.499352   11.404133   11.521190
 H   29.709027   11.038968   13.400647
 H   29.778593   10.799416   15.857216
 H   27.697985   10.864537   17.192791
 H   24.489429   11.728693   15.675062
 H   26.228287    8.944893   17.269560
 H   25.461710    7.896887   19.326495
 H   21.686329   11.742222   19.909033
 H   24.256709    7.296731   21.379190
 H   23.989964    5.617205   23.292256
 H   22.339880    5.373604   25.442967
 H   20.669836    7.507776   25.332629
 H   23.260952   12.051300   17.644478
 H   25.434147   11.436183   13.577370
 H   24.319948   10.429420    9.672824
 H   21.319817    8.849962   23.285888
