62 
3v5t_ligand_dft.xyz
 C    6.304890   -1.173650    1.821264
 C    5.583474   -1.912992    0.685945
 C    6.454188   -1.910748   -0.578450
 C    4.176992   -1.301212    0.505810
 N    3.097319   -2.316570    0.128573
 C    2.659162   -3.126426    1.296319
 C    3.404326   -3.173636   -1.046197
 C    4.121439   -0.118414   -0.466965
 N    2.851956    0.561302   -0.406765
 N    1.685632   -0.130583   -0.582091
 C    2.609468    1.875759   -0.184461
 N    3.532707    2.818651    0.026090
 C    2.972890    4.014848    0.179572
 N    1.678534    4.347571    0.109710
 C    0.776266    3.385688   -0.115537
 N   -0.512071    3.754470   -0.217605
 C    1.218441    2.038183   -0.230823
 C    0.688596    0.735152   -0.467428
 C   -0.706580    0.284541   -0.565547
 C   -1.657881    0.758836    0.310911
 C   -1.073820   -0.682471   -1.542835
 C   -2.361321   -1.132965   -1.624335
 C   -3.366506   -0.653852   -0.736334
 C   -4.698972   -1.103610   -0.804634
 C   -2.999896    0.310292    0.246625
 C   -3.997219    0.783929    1.132976
 C   -5.290860    0.336563    1.053465
 C   -5.652975   -0.623887    0.071232
 O   -6.897320   -1.118589   -0.069543
 C   -7.942189   -0.654344    0.779825
 C   -9.204108   -1.392050    0.383894
 H    7.304478   -1.591572    1.967485
 H    5.762952   -1.260033    2.768482
 H    6.424232   -0.108472    1.592821
 H    5.456370   -2.954231    1.010638
 H    5.986521   -2.402527   -1.435839
 H    7.390552   -2.436465   -0.373164
 H    6.718341   -0.890776   -0.876822
 H    3.831789   -0.927215    1.474784
 H    2.285278   -1.703563   -0.154878
 H    3.496175   -3.714831    1.674686
 H    2.292223   -2.453726    2.072358
 H    1.854829   -3.792097    0.981004
 H    4.217385   -3.858174   -0.803623
 H    3.676781   -2.545422   -1.893703
 H    2.507081   -3.740878   -1.297561
 H    4.878022    0.616209   -0.179650
 H    4.332880   -0.425301   -1.496797
 H    3.654033    4.838798    0.375494
 H   -0.711134    4.744269   -0.225461
 H   -1.214002    3.112609   -0.552272
 H   -1.380576    1.468399    1.088110
 H   -0.320493   -1.039197   -2.238581
 H   -2.638667   -1.860643   -2.381720
 H   -4.995562   -1.835572   -1.549042
 H   -3.727796    1.516942    1.888708
 H   -6.030296    0.720310    1.746161
 H   -7.686947   -0.855631    1.828684
 H   -8.066398    0.429398    0.654760
 H  -10.039915   -1.062115    1.007603
 H   -9.074720   -2.469553    0.515437
 H   -9.450225   -1.195321   -0.662887
