62 
3v5t_ligand_ani.xyz
 C    6.442976   -0.909025    1.707740
 C    5.703135   -1.757259    0.667737
 C    6.521716   -1.806377   -0.630609
 C    4.255351   -1.251042    0.503349
 N    3.220097   -2.317156    0.221450
 C    2.887587   -3.112231    1.415575
 C    3.514298   -3.208395   -0.917773
 C    4.116683   -0.113858   -0.516018
 N    2.817241    0.524934   -0.421803
 N    1.674522   -0.178617   -0.627072
 C    2.563313    1.833901   -0.193088
 N    3.456851    2.808118    0.051833
 C    2.878739    3.984156    0.215704
 N    1.572070    4.300091    0.149962
 C    0.711127    3.317605   -0.110456
 N   -0.616487    3.627784   -0.195207
 C    1.175371    1.988963   -0.255005
 C    0.671160    0.672941   -0.507613
 C   -0.737326    0.238246   -0.587114
 C   -1.675020    0.704907    0.303166
 C   -1.123031   -0.692107   -1.586956
 C   -2.423151   -1.101002   -1.687031
 C   -3.413938   -0.629988   -0.779083
 C   -4.758951   -1.059970   -0.858599
 C   -3.030259    0.283251    0.235663
 C   -4.015001    0.736267    1.143611
 C   -5.316161    0.307725    1.061526
 C   -5.693035   -0.607162    0.044491
 O   -6.957669   -1.083317   -0.105225
 C   -7.942359   -0.696291    0.838448
 C   -9.227386   -1.404512    0.466452
 H    7.456337   -1.292348    1.868868
 H    5.926206   -0.913239    2.674138
 H    6.538588    0.134228    1.379412
 H    5.644949   -2.782102    1.059251
 H    6.046081   -2.397037   -1.421023
 H    7.506532   -2.246280   -0.437800
 H    6.690573   -0.799276   -1.030087
 H    3.931511   -0.847933    1.469638
 H    2.374566   -1.788502   -0.036764
 H    3.741751   -3.718804    1.737657
 H    2.596608   -2.453461    2.237362
 H    2.053169   -3.782122    1.190024
 H    4.423595   -3.790815   -0.744741
 H    3.625768   -2.633980   -1.839695
 H    2.685904   -3.910211   -1.054058
 H    4.856168    0.664153   -0.321999
 H    4.263270   -0.480679   -1.538118
 H    3.544950    4.819355    0.426697
 H   -0.806596    4.618450   -0.269454
 H   -1.172094    3.035624   -0.797118
 H   -1.384271    1.412642    1.073589
 H   -0.369872   -1.064699   -2.275164
 H   -2.719003   -1.805070   -2.461676
 H   -5.064328   -1.758034   -1.633077
 H   -3.724560    1.435025    1.925959
 H   -6.047364    0.670960    1.776177
 H   -7.619424   -0.975787    1.850934
 H   -8.073434    0.394467    0.813633
 H  -10.022048   -1.140415    1.170587
 H   -9.084977   -2.488588    0.490527
 H   -9.542292   -1.117513   -0.540721
