74 
3v7c_ligand_ani.xyz
 N    0.362285   -3.817410    2.339230
 C   -0.865065   -3.277804    2.396848
 N   -1.490624   -2.538175    1.488719
 C   -0.727066   -2.316080    0.416632
 C    0.570160   -2.778652    0.220163
 C    1.101578   -3.590284    1.245364
 N    2.323389   -4.160578    1.152375
 N    1.077734   -2.307523   -0.979956
 C    0.086190   -1.626458   -1.493645
 N   -1.040460   -1.591596   -0.711715
 C   -6.526096   -0.446873   -2.241905
 C   -6.329860   -2.629353   -0.981430
 O    4.658131   -3.339818   -0.531456
 C   -1.466580    2.959093    1.423191
 C    1.358122    3.322619   -0.213103
 C    0.717382    4.697105   -0.385481
 C    2.189931    2.840605   -1.401762
 C   -0.122715    5.125746    0.833100
 C    2.739045    1.429910   -1.164162
 C    6.424834    0.521744   -0.692048
 C   -3.490164    1.477657    1.626343
 N   -2.596973    4.793391    0.936910
 N   -3.468229    3.857868    1.159330
 N    5.882241   -1.629716    0.465518
 N    3.945380   -1.128011   -0.497071
 O   -2.173572    0.333350   -0.037293
 O   -5.587218   -0.532709   -0.040601
 O   -4.394131   -1.400800   -1.766445
 S    5.478831    2.044571   -0.984243
 C    4.809178   -2.166427   -0.228026
 C   -1.338984    4.285188    1.076111
 C   -3.508980    0.676927    0.328107
 C    3.944321    1.399119   -0.217203
 C   -4.253347   -0.655487    0.406194
 C   -3.538100   -1.500022   -0.648240
 C   -2.211068   -0.773976   -0.922576
 N   -2.801854    2.743593    1.456934
 C   -5.712290   -1.265494   -1.263368
 C    5.779345   -0.179361    0.505490
 C    4.258414    0.010115    0.355920
 H   -1.421429   -3.488905    3.305429
 H    2.974646   -3.942419    0.403977
 H    2.658797   -4.664164    1.959299
 H    0.107864   -1.106501   -2.441695
 H   -6.027095    0.508416   -2.421760
 H   -7.520727   -0.258500   -1.828297
 H   -6.625519   -0.982118   -3.190761
 H   -7.337493   -2.495107   -0.577840
 H   -6.384858   -3.212648   -1.905634
 H   -5.736852   -3.182622   -0.247133
 H   -0.766648    2.168702    1.659975
 H    1.974792    3.330068    0.696886
 H    0.566802    2.581358   -0.042181
 H    1.500323    5.448881   -0.548612
 H    0.083168    4.705238   -1.281630
 H    3.014744    3.534731   -1.613399
 H    1.553575    2.823868   -2.295728
 H   -0.462320    6.157901    0.706406
 H    0.515505    5.109736    1.727884
 H    3.016317    0.952908   -2.111414
 H    1.933444    0.825209   -0.720964
 H    7.475088    0.764044   -0.512647
 H    6.355003   -0.122089   -1.573720
 H   -2.974357    0.909373    2.405865
 H   -4.509731    1.703113    1.951340
 H    6.774480   -2.092228    0.364342
 H    2.985954   -1.370778   -0.741070
 H   -3.971316    1.287560   -0.458564
 H    3.744460    2.053681    0.639943
 H   -4.208713   -1.086808    1.413871
 H   -3.391903   -2.541608   -0.342955
 H   -2.188810   -0.434976   -1.964260
 H    6.157771    0.227904    1.447207
 H    3.768723   -0.094780    1.337113
