66 
3v7s_ligand_dft.xyz
 C    2.546245    3.666401   -1.038749
 O   -0.037977    1.467467   -1.139234
 O    5.557089   -2.356353    1.511760
 C    4.921460    2.817412   -0.845215
 C    5.878362    1.867472   -0.472257
 C    3.101028    1.421066   -0.059300
 C   -1.071153   -2.779326   -1.490608
 C   -5.026696   -1.911458   -0.755817
 C   -4.536666   -3.183124   -0.045588
 C   -4.272900   -0.605209   -0.458970
 C    2.278291   -2.384145   -1.089954
 C    2.500407   -2.723774    0.385530
 C   -3.289982   -3.846106   -0.648504
 C   -4.246357   -0.277220    1.037764
 C    1.089973   -1.464900   -1.377012
 C    2.782229   -1.521903    1.288671
 C   -3.946988    3.052081   -0.422781
 N   -1.654487   -2.420474    0.606975
 N   -0.531090   -1.787170    0.401421
 N   -1.436395    3.105706   -0.273901
 N   -1.717546    1.012762    0.395972
 O    6.126946   -0.369482    0.548610
 S   -5.224634    2.365665    0.665709
 C   -0.964415    1.814405   -0.417901
 C    3.552817    2.612773   -0.646539
 C   -2.031396   -3.043010   -0.538613
 C    5.235712   -1.295478    1.041639
 C    5.406073    0.709658    0.101043
 C    4.047634    0.480145    0.304040
 C   -4.034284    1.188951    1.452119
 N   -0.167780   -1.995953   -0.867861
 N    3.966705   -0.779694    0.890840
 C   -2.689762    3.113790    0.453734
 C   -2.612694    1.779312    1.241290
 H    2.956601    4.349674   -1.788718
 H    1.639941    3.200779   -1.436970
 H    2.252687    4.266493   -0.168344
 H    5.254787    3.743262   -1.305304
 H    6.939047    2.028616   -0.627250
 H    2.036964    1.260923    0.082669
 H   -0.969356   -3.067490   -2.525435
 H   -5.025185   -2.086280   -1.840654
 H   -6.077703   -1.756282   -0.477823
 H   -5.341505   -3.926923   -0.082666
 H   -4.356047   -2.982449    1.016137
 H   -4.794059    0.198434   -0.993634
 H   -3.255759   -0.641203   -0.857674
 H    3.169636   -1.892415   -1.498564
 H    2.152898   -3.318885   -1.649595
 H    1.622612   -3.239006    0.790040
 H    3.343491   -3.417281    0.465118
 H   -3.470119   -4.068312   -1.707506
 H   -3.135392   -4.812446   -0.151919
 H   -3.478950   -0.885201    1.533953
 H   -5.206393   -0.582899    1.474979
 H    0.963534   -1.319992   -2.452362
 H    1.203439   -0.471539   -0.945440
 H    1.939011   -0.826919    1.296415
 H    2.931391   -1.869992    2.314811
 H   -4.259302    4.037957   -0.775881
 H   -3.774704    2.400225   -1.286270
 H   -1.258975    3.752198   -1.027921
 H   -1.338585    0.110514    0.664304
 H   -4.251872    1.247559    2.522117
 H   -2.753384    3.967002    1.133658
 H   -2.150550    1.945069    2.223067
