37 
3v8s_ligand_ani.xyz
 C  -43.194152  -57.869497   30.043510
 N  -41.283528  -59.795627   25.747984
 C  -42.153922  -59.270660   24.772079
 C  -44.268786  -58.552758   23.937573
 C  -42.286891  -58.337969   22.508589
 C  -41.555935  -58.881425   23.540318
 O  -42.780307  -60.631224   27.287762
 C  -41.630705  -60.438571   26.924062
 N  -40.536727  -60.877839   27.640584
 C  -40.713221  -61.415233   28.979101
 C  -40.361990  -60.419248   30.097762
 C  -41.110879  -59.107859   30.006216
 C  -40.434254  -57.914024   29.756373
 C  -41.124045  -56.708747   29.649451
 C  -42.506815  -56.684897   29.794632
 C  -42.501622  -59.071407   30.144086
 C  -43.510021  -59.110876   24.984187
 C  -43.667087  -58.176454   22.726624
 N  -44.669810  -57.683874   21.946713
 N  -45.871345  -57.715063   22.563915
 C  -45.649222  -58.231159   23.753027
 H  -44.275965  -57.858078   30.155983
 H  -40.312150  -59.821095   25.476958
 H  -41.820286  -58.046851   21.573024
 H  -40.485752  -59.019931   23.408436
 H  -39.641590  -60.457786   27.436906
 H  -41.760081  -61.717421   29.052627
 H  -40.096415  -62.315277   29.087979
 H  -40.568063  -60.905119   31.061058
 H  -39.281624  -60.225054   30.079940
 H  -39.351316  -57.931947   29.641893
 H  -40.578279  -55.788254   29.454419
 H  -43.049553  -55.746150   29.714022
 H  -43.049948  -59.995854   30.319910
 H  -43.950026  -59.417782   25.922010
 H  -44.605034  -57.320335   21.009309
 H  -46.461656  -58.366655   24.455980
