37 
3v8s_ligand_xtb.xyz
 C  -43.313818  -57.899470   29.254410
 N  -41.266424  -60.224158   26.021424
 C  -42.107281  -59.471659   25.193843
 C  -44.182354  -58.484935   24.591530
 C  -42.212936  -58.075509   23.197117
 C  -41.506391  -58.867274   24.069075
 O  -42.699623  -60.961990   27.650153
 C  -41.575941  -60.788535   27.237180
 N  -40.461423  -61.215610   27.929204
 C  -40.565599  -61.341477   29.366486
 C  -40.277550  -60.001636   30.074644
 C  -41.152057  -58.932309   29.481849
 C  -40.689013  -58.141362   28.438027
 C  -41.530399  -57.247802   27.798418
 C  -42.848553  -57.131738   28.200258
 C  -42.472505  -58.793999   29.888751
 C  -43.449002  -59.289599   25.463130
 C  -43.564297  -57.884545   23.467713
 N  -44.537726  -57.174732   22.838521
 N  -45.714616  -57.278438   23.471525
 C  -45.531749  -58.048830   24.512744
 H  -44.341614  -57.811089   29.573340
 H  -40.292890  -60.206945   25.753990
 H  -41.737796  -57.619709   22.341810
 H  -40.452204  -59.034664   23.893755
 H  -39.562911  -60.889687   27.602966
 H  -41.589838  -61.657069   29.572458
 H  -39.870536  -62.112579   29.708421
 H  -40.476441  -60.119733   31.140345
 H  -39.223408  -59.742637   29.945197
 H  -39.657806  -58.225902   28.117947
 H  -41.159324  -56.651788   26.976694
 H  -43.511399  -56.448903   27.690021
 H  -42.846229  -59.406312   30.696235
 H  -43.906435  -59.747423   26.322229
 H  -44.466888  -56.622848   22.000151
 H  -46.344026  -58.275101   25.173439
