67 
3v9b_ligand_ani.xyz
 C   -4.369018   -0.493960   -0.239850
 C   -4.491814   -1.708637    0.415148
 C   -3.392728   -2.543753    0.555714
 C   -2.151411   -2.193675    0.018776
 C   -2.026799   -0.967851   -0.635131
 C   -3.125129   -0.118684   -0.768584
 O   -5.520793    0.234217   -0.398110
 C   -5.567067    1.596684   -0.239014
 F   -6.837348    1.886935    0.062381
 F   -4.790575    2.006717    0.793176
 O   -3.077890    1.067698   -1.438303
 C   -1.831751    1.750959   -1.455660
 C   -2.080292    3.186724   -1.823191
 C   -1.157054    4.243075   -1.289102
 C   -2.555189    4.127852   -0.753858
 C   -1.004854   -3.188789    0.191129
 O    2.260426    1.262839    3.318847
 C    0.542735   -3.927293   -1.656096
 C    1.691876   -3.425766   -2.218112
 C    1.878016   -2.176050   -1.582311
 N    0.893389   -1.935518   -0.719132
 N    0.091521   -3.007019   -0.762527
 C    2.982215   -1.210286   -1.688648
 C    3.106476   -0.249193   -0.691700
 C    4.151554    0.675355   -0.713318
 C    5.076242    0.644859   -1.760508
 C    4.937188   -0.314146   -2.759207
 C    3.904429   -1.241497   -2.733878
 N    4.222669    1.603693    0.345607
 C    5.111014    2.637032    0.509359
 O    5.993039    2.910142   -0.284927
 C   -0.485036   -3.304940    1.650684
 C    4.901116    3.422209    1.792620
 C    0.228406   -2.097847    2.207799
 C   -0.431682   -0.896226    2.467329
 C    0.261272    0.226419    2.883364
 N    1.610095    0.204205    3.056477
 C    2.268190   -0.969493    2.856592
 C    1.603304   -2.107958    2.451115
 H   -5.469830   -1.976979    0.803195
 H   -3.509403   -3.490216    1.080087
 H   -1.069152   -0.680981   -1.050455
 H   -5.269319    2.120027   -1.152479
 H   -1.372506    1.685694   -0.457574
 H   -1.158035    1.267960   -2.176516
 H   -2.475291    3.331509   -2.826229
 H   -0.920925    5.087689   -1.930157
 H   -0.333962    3.927141   -0.652281
 H   -2.697007    3.717752    0.245455
 H   -3.270970    4.896758   -1.032371
 H   -1.410591   -4.172981   -0.063138
 H    0.004547   -4.853160   -1.813990
 H    2.326444   -3.900508   -2.953152
 H    2.362147   -0.233258    0.091762
 H    5.883423    1.363956   -1.784783
 H    5.657502   -0.332847   -3.572975
 H    3.813494   -1.977811   -3.527882
 H    3.530033    1.479062    1.073593
 H    0.175059   -4.178212    1.692292
 H   -1.353187   -3.539610    2.280457
 H    3.868158    3.776490    1.881443
 H    5.578759    4.275221    1.787208
 H    5.118928    2.798857    2.667091
 H   -1.505687   -0.820782    2.319934
 H   -0.179477    1.194761    3.074865
 H    3.334510   -0.906470    3.034785
 H    2.186406   -3.009381    2.289996
