70 
3vap_ligand_ani.xyz
 C   -9.035733    1.458802   -1.432801
 C    4.367235   -0.072986    0.654271
 C   -4.046727   -1.340699    1.657036
 C   -4.558239   -2.218501   -0.288795
 C   -9.470817    2.749678   -1.716361
 C   -8.021282    3.706992   -0.251406
 C   -1.429474   -2.734584   -0.809042
 C   -3.462880   -1.778045    0.438047
 C   -8.024096    1.301741   -0.490113
 C   -7.527018    2.466278    0.093907
 C   -2.070208   -1.856623    0.040807
 C    5.764131   -0.021838    0.393267
 C    3.774170   -1.010133   -0.151441
 C    0.119583   -1.527451   -0.024251
 C   -0.994287    0.037715    1.380105
 C    1.349865   -0.878787    0.337425
 C    0.216968    0.586202    1.675015
 C   -7.793084   -1.149075   -0.532751
 C   10.490047    0.437937    0.372553
 C   10.678080    1.589004   -0.619714
 C    9.257066    0.664636    1.238647
 C    8.218576    2.018830   -0.523039
 C    9.416895    1.844927   -1.456060
 C    0.338777    1.760480    2.606429
 C    9.151024    0.753842   -2.497406
 C    6.761887    0.855396    1.117277
 C   -7.028268   -2.306308    0.127350
 N   -5.362249   -1.487075    1.661909
 N    6.235369   -0.833715   -0.523313
 N    1.411795    0.131623    1.160707
 N   -5.653204   -2.029792    0.473817
 N   -1.040259   -1.065070    0.541003
 N   -8.991541    3.860482   -1.153460
 N   -0.089768   -2.540929   -0.852871
 N   -7.465364    0.093863   -0.078561
 N    2.458362   -1.415357   -0.263040
 N    8.048854    0.825874    0.380960
 O   -8.641791   -1.382728   -1.374982
 F   -6.542326    2.346710    1.013268
 S    4.976893   -1.747368   -1.143435
 H   -9.464210    0.595926   -1.924982
 H    3.820777    0.523899    1.374982
 H   -3.548392   -0.964991    2.542413
 H   -4.645515   -2.634848   -1.286261
 H  -10.261899    2.892026   -2.450251
 H   -7.614145    4.599264    0.221268
 H   -1.901014   -3.520186   -1.387587
 H   -1.935395    0.421077    1.749096
 H   11.371109    0.339963    1.016579
 H   10.388675   -0.517233   -0.159925
 H   11.532720    1.395505   -1.279782
 H   10.912374    2.501158   -0.052666
 H    9.102737   -0.170798    1.929688
 H    9.388252    1.575191    1.842102
 H    8.357628    2.908765    0.108396
 H    7.296027    2.152745   -1.095686
 H    9.541845    2.793836   -1.993498
 H    0.824937    2.596359    2.092728
 H    0.966574    1.494625    3.463642
 H   -0.636944    2.093133    2.975453
 H    9.999568    0.645515   -3.182256
 H    8.975697   -0.225136   -2.035968
 H    8.262249    0.993914   -3.092484
 H    6.916925    0.484799    2.136234
 H    6.391213    1.881163    1.212177
 H   -7.542528   -2.596487    1.047555
 H   -7.063012   -3.137991   -0.576337
 H   -6.743106    0.187775    0.622698
 H    2.251121   -2.188913   -0.887826
 H    7.923581   -0.024630   -0.217890
