81 
3vb5_ligand_ani.xyz
 C    2.014293   -1.113700    1.734598
 O    2.745922   -2.081028    1.577552
 O    2.451392    0.102288    2.122485
 C    3.850264    0.154673    2.489002
 C    4.719930    0.386971    1.285722
 C    4.517841    1.530530    0.512903
 C    5.293645    1.766837   -0.617563
 C    6.297533    0.868024   -0.975872
 C    6.509638   -0.274323   -0.207373
 C    5.713870   -0.515456    0.910805
 N    0.669203   -1.123815    1.572563
 C    0.001523   -2.388671    1.313243
 C   -1.384124   -2.091484    0.720561
 O   -2.332042   -1.830766    1.464596
 C   -0.136822   -3.247990    2.572058
 N   -1.471235   -2.134833   -0.625342
 C   -2.658799   -1.750866   -1.397809
 C   -2.813601   -0.218548   -1.361585
 O   -2.629297    0.453620   -2.375042
 C   -3.941864   -2.525452   -1.035712
 C   -5.082968   -2.064338   -1.946743
 C   -3.723105   -4.033525   -1.156326
 N   -3.125565    0.332594   -0.160553
 C   -2.788057    1.731631    0.099391
 C   -1.247386    1.822363    0.161273
 O   -0.630134    1.707397    1.213756
 C   -3.423508    2.232470    1.388676
 C   -4.952562    2.112608    1.445004
 C   -5.458675    2.612845    2.798663
 C   -5.633266    2.873044    0.305458
 C    1.603350    2.955576   -1.137686
 N    1.211457    4.155083   -1.217548
 C    0.779250    1.685943   -1.186610
 N   -0.639345    1.969033   -1.047695
 C    1.045511    0.935466   -2.499287
 C    2.372919    0.181748   -2.544427
 C    2.341013   -1.070198   -1.671527
 O    1.278456   -1.627949   -1.409989
 N    3.532823   -1.547707   -1.252066
 H    3.903525    0.996870    3.184241
 H    4.122123   -0.768140    3.007788
 H    3.752142    2.243726    0.813520
 H    5.125502    2.651100   -1.229433
 H    6.909609    1.055239   -1.853482
 H    7.286143   -0.982259   -0.486787
 H    5.847980   -1.429339    1.485393
 H    0.171111   -0.241396    1.679834
 H    0.625999   -2.919291    0.583695
 H   -0.621980   -4.197939    2.327583
 H   -0.742738   -2.726883    3.318114
 H    0.855994   -3.452804    2.981651
 H   -0.583024   -2.122562   -1.120507
 H   -2.414989   -1.969948   -2.441660
 H   -4.200880   -2.296563    0.002049
 H   -4.840324   -2.264549   -2.998450
 H   -6.009545   -2.596401   -1.706863
 H   -5.271780   -0.990351   -1.846016
 H   -2.948320   -4.389019   -0.470937
 H   -4.650466   -4.567953   -0.923862
 H   -3.428193   -4.306977   -2.177716
 H   -3.093243   -0.306913    0.632957
 H   -3.134275    2.311493   -0.763273
 H   -3.137501    3.284532    1.523972
 H   -2.974194    1.688843    2.230760
 H   -5.217425    1.049730    1.353668
 H   -5.006522    2.054384    3.626303
 H   -6.546905    2.510442    2.876940
 H   -5.211583    3.673675    2.934686
 H   -6.723444    2.804434    0.390802
 H   -5.363177    3.937111    0.330672
 H   -5.353868    2.475924   -0.677065
 H    2.685928    2.778889   -1.070749
 H    0.182564    4.162202   -1.253301
 H    1.076815    1.070366   -0.330689
 H   -1.215807    1.776083   -1.861571
 H    0.240309    0.208729   -2.648173
 H    0.993570    1.659304   -3.322298
 H    2.570393   -0.143103   -3.573916
 H    3.213191    0.824576   -2.253902
 H    3.527526   -2.175731   -0.455859
 H    4.388941   -1.047567   -1.443500
