66 
3vb7_ligand_ani.xyz
 N   -2.886624   -1.269636   -1.786145
 C   -3.125183    0.173611   -2.141429
 C   -1.930054    1.042633   -1.709045
 O   -1.124142    1.459398   -2.542683
 C   -4.459931    0.630323   -1.553914
 N   -1.836237    1.365581   -0.394180
 C   -0.846966    2.329264    0.079248
 C    0.471277    1.570752    0.326888
 O    0.794719    1.190841    1.456707
 C   -1.326224    3.085699    1.323590
 C   -2.678394    3.756600    1.076378
 C   -0.282013    4.120202    1.748309
 N    1.191117    1.324478   -0.786178
 C    2.386276    0.479650   -0.855557
 C    2.054920   -1.012668   -0.678394
 O    2.471990   -1.849583   -1.482058
 C    3.509534    0.953112    0.079675
 C    4.758267    0.062638    0.054882
 C    5.804587    0.622633    1.018270
 C    5.337179   -0.093339   -1.351658
 C   -0.440790   -2.840281   -0.560376
 N   -0.304529   -2.582787   -1.798144
 C    0.646369   -2.638307    0.508002
 N    1.294990   -1.339671    0.382747
 C    0.101097   -2.819139    1.925700
 C   -0.964653   -1.808571    2.402078
 C   -2.338294   -1.977537    1.767823
 O   -2.847313   -1.145952    1.015415
 N   -2.962715   -3.152825    2.031107
 H   -2.951419   -1.382231   -0.749555
 H   -1.953597   -1.601602   -2.128786
 H   -3.625588   -1.853463   -2.227804
 H   -3.135639    0.257924   -3.226360
 H   -5.286289    0.089357   -2.027889
 H   -4.613040    1.697781   -1.733984
 H   -4.506596    0.449634   -0.475412
 H   -2.304148    0.786400    0.298193
 H   -0.686838    3.036429   -0.744614
 H   -1.432316    2.349933    2.133532
 H   -2.991737    4.322980    1.960259
 H   -3.460585    3.025785    0.846031
 H   -2.612723    4.461041    0.236766
 H   -0.623945    4.665168    2.635025
 H   -0.117881    4.854743    0.949067
 H    0.674594    3.647034    1.985095
 H    0.692157    1.475084   -1.660348
 H    2.736048    0.556632   -1.888258
 H    3.780252    1.974183   -0.221717
 H    3.122914    1.021181    1.100189
 H    4.461317   -0.936128    0.406636
 H    6.690964   -0.020420    1.059135
 H    5.403503    0.709853    2.034517
 H    6.129610    1.621157    0.698320
 H    5.544053    0.886090   -1.803826
 H    6.282443   -0.646912   -1.317015
 H    4.653446   -0.644123   -2.004138
 H   -1.386231   -3.234724   -0.182988
 H    0.708545   -2.654056   -2.004268
 H    1.414812   -3.399121    0.326186
 H    1.099918   -0.608234    1.058858
 H   -0.306602   -3.833673    2.007656
 H    0.950541   -2.776947    2.615364
 H   -1.077656   -1.934136    3.486881
 H   -0.644137   -0.775716    2.235429
 H   -2.612672   -3.790090    2.728196
 H   -3.911560   -3.274065    1.709301
