20 
3vbt_ligand_dft.xyz
 C  -18.479269  -35.882684    2.226435
 C  -17.580714  -34.898471    2.560380
 N  -16.928135  -34.568030    1.424634
 N  -17.346718  -35.277088    0.368914
 C  -18.297545  -36.089935    0.835963
 C  -18.988022  -37.025315   -0.063837
 C  -19.982445  -37.869890    0.443238
 C  -20.646829  -38.758462   -0.382186
Cl  -21.885914  -39.800374    0.287672
 C  -20.340088  -38.832275   -1.738697
 C  -19.359249  -38.003765   -2.255001
 C  -18.674325  -37.097213   -1.438335
 O  -17.738786  -36.334376   -2.029316
 H  -19.166547  -36.378486    2.893903
 H  -17.359828  -34.417563    3.501408
 H  -16.202460  -33.881865    1.298384
 H  -20.239906  -37.831853    1.495954
 H  -20.865189  -39.531511   -2.380157
 H  -19.098008  -38.037884   -3.307117
 H  -17.334022  -35.745959   -1.358240
