24 
3vc4_ligand_ani.xyz
 C    1.170170    2.585624   -0.036766
 C    3.253552    1.384538   -0.037164
 C    2.556599    2.591142   -0.049845
 C    2.547596    0.186864   -0.011826
 C    0.449501    1.379789   -0.010116
 C    1.159091    0.171549    0.002439
 C   -3.401652    1.004016    0.037487
 N   -4.246175   -0.097400    0.018027
 C   -3.702165   -1.368023   -0.021553
 S   -1.913758   -1.212842   -0.034370
 C   -1.978378    0.540366    0.006149
 C    3.318041   -1.103281    0.019253
 C   -1.005657    1.472769    0.005703
 O   -3.774073    2.155052    0.073929
 O   -4.312832   -2.400029   -0.043428
 F    4.221841   -1.159059   -0.978353
 F    2.524362   -2.180638   -0.096848
 F    4.006831   -1.236090    1.169635
 H    0.626289    3.527888   -0.048577
 H    4.338531    1.367945   -0.047158
 H    3.100878    3.531016   -0.070432
 H    0.634426   -0.776956    0.021957
 H   -5.250405    0.016734    0.032778
 H   -1.388621    2.490414    0.018675
