33 
3vd9_ligand_xtb.xyz
 C    0.238072   -0.176531   -1.024058
 C   -0.160090   -1.446109   -0.266740
 O    0.367291   -2.602851   -0.862051
 C   -1.689818   -1.547960   -0.270105
 O   -2.125716   -2.626132    0.520143
 C   -2.278446   -0.260142    0.328554
 O   -1.958525   -0.171074    1.691296
 C   -1.720890    0.962921   -0.411765
 O   -0.302254    0.965613   -0.434990
 C   -2.136184    2.273140    0.265897
 O   -1.713622    3.388332   -0.466626
 S    2.047933    0.004417   -1.096719
 C    2.441037    0.400761    0.667529
 C    3.149005   -0.775225    1.320060
 C    3.282466    1.664901    0.704049
 H   -0.075085   -0.272694   -2.077354
 H    0.173387   -1.358432    0.780405
 H    1.286458   -2.420478   -1.108179
 H   -2.032461   -1.669378   -1.309512
 H   -1.619045   -3.402059    0.250562
 H   -3.372047   -0.280796    0.197048
 H   -2.149997   -1.039224    2.073856
 H   -2.093840    0.942426   -1.449190
 H   -1.719766    2.276797    1.280438
 H   -3.224324    2.325963    0.323153
 H   -0.763560    3.297956   -0.610497
 H    1.471600    0.587232    1.132163
 H    4.088031   -0.976975    0.809106
 H    3.362401   -0.544343    2.362104
 H    2.539495   -1.675544    1.285532
 H    4.226712    1.506380    0.187659
 H    3.489431    1.941562    1.736015
 H    2.757366    2.485293    0.221503
