31 
3veh_ligand_xtb.xyz
 O    3.690848   -1.398072    0.644837
 C    2.550444   -1.069831    0.028396
 O    1.798014   -1.908457   -0.414957
 C    2.330463    0.391386   -0.073568
 C    3.298133    1.280957    0.189218
 C    3.131429    2.748342    0.041166
 O    1.124806    0.779016   -0.590987
 C   -0.007337    0.172317   -0.085176
 C   -0.161690   -0.128745    1.198291
 C   -1.385940   -0.792955    1.742523
 C   -2.211040   -1.435618    0.632084
 C   -1.018501   -0.128831   -1.157530
 O   -0.587180   -1.193774   -1.978695
 C   -2.386180   -0.455807   -0.533726
 C   -3.090814    0.797240   -0.073871
 O   -4.335655    0.536782    0.351858
 O   -2.637317    1.909621   -0.075798
 H    3.792713   -2.363797    0.648659
 H    4.261441    0.911651    0.504839
 H    3.749917    3.112231   -0.779234
 H    3.459408    3.254906    0.947913
 H    2.093683    2.994829   -0.164852
 H    0.617143    0.120593    1.907186
 H   -1.092967   -1.548934    2.475604
 H   -1.985980   -0.045322    2.273002
 H   -3.186782   -1.740309    1.011638
 H   -1.693017   -2.317676    0.252346
 H   -1.116589    0.758326   -1.799292
 H    0.157582   -1.640287   -1.546688
 H   -3.007233   -0.924107   -1.303574
 H   -4.771260    1.356228    0.635545
