90 
3veu_ligand_xtb.xyz
 N   -6.081843    1.432770    0.242494
 C   -5.782200    0.238362   -0.617772
 C   -7.158715   -0.385795   -0.927883
 C   -8.127059    0.298521    0.034262
 C   -7.537490    1.694811    0.142527
 C   -4.889259    0.367353   -1.847403
 C   -4.243064   -1.028110   -1.911867
 N   -4.178776   -1.444265   -0.519597
 C   -4.939952   -0.697057    0.272766
 O   -5.008550   -0.660846    1.484820
 C   -3.244866   -2.427044   -0.016916
 C   -1.849656   -1.786999    0.082242
 N   -0.911585   -2.587563    0.608722
 O   -1.658386   -0.633472   -0.269379
 C   -5.222265    2.622547    0.080283
 C   -5.462842    3.664080    1.171891
 C   -4.426070    4.778587    1.073318
 C   -3.253877   -3.687283   -0.881140
 C    0.516926   -2.290088    0.722599
 C    0.730542   -0.969200    1.519370
 C    2.087786   -0.915505    2.261143
 N    3.064578   -0.160926    1.458885
 C    4.306793    0.229188    2.173403
 C    1.167496   -2.290880   -0.673821
 C    2.667400   -2.414186   -0.640348
 C    3.471090   -1.401125   -1.168823
 C    4.854957   -1.530363   -1.186902
 C    5.449887   -2.658305   -0.649795
 C    4.660179   -3.664465   -0.114528
 C    3.280726   -3.545974   -0.113382
 O    0.673028    0.178589    0.717715
 C    5.320857    0.760533    1.193868
 C    6.574850    0.174154    1.099727
 C    7.495040    0.667014    0.191288
 C    7.159114    1.725503   -0.633349
 C    5.905886    2.324266   -0.556459
 C    4.997066    1.832896    0.372175
 C    5.554932    3.486516   -1.449424
 C    5.374487    4.760394   -0.620347
 C    4.303698    3.192536   -2.280532
 H   -5.900720    1.039168    1.197074
 H   -7.437106   -0.170268   -1.959936
 H   -7.150759   -1.466329   -0.797531
 H   -8.120682   -0.193677    1.007309
 H   -9.146498    0.306065   -0.341112
 H   -7.893644    2.246739    1.009642
 H   -7.725164    2.274676   -0.763616
 H   -4.105338    1.108998   -1.701550
 H   -5.434922    0.605637   -2.757838
 H   -4.854862   -1.726058   -2.491228
 H   -3.240940   -0.990112   -2.338532
 H   -3.576607   -2.662436    1.002851
 H   -1.187636   -3.524059    0.858123
 H   -5.410921    3.057440   -0.903853
 H   -4.179859    2.298903    0.135370
 H   -6.456563    4.100395    1.072645
 H   -5.389779    3.189159    2.152807
 H   -4.604806    5.519787    1.845754
 H   -4.483936    5.274633    0.108185
 H   -3.420382    4.386925    1.203105
 H   -2.822579   -3.494821   -1.860296
 H   -4.275974   -4.033077   -1.012731
 H   -2.695711   -4.489694   -0.407881
 H    0.936854   -3.103937    1.319148
 H   -0.065369   -0.943592    2.281070
 H    2.471559   -1.915159    2.465306
 H    1.955306   -0.389948    3.209149
 H    3.313161   -0.704116    0.591332
 H    2.560395    0.672167    1.114521
 H    4.704899   -0.652685    2.678703
 H    4.055222    0.980217    2.927152
 H    0.762862   -3.144428   -1.223338
 H    0.880177   -1.384121   -1.207850
 H    3.009863   -0.539983   -1.633648
 H    5.459228   -0.752848   -1.626727
 H    6.522223   -2.763891   -0.668922
 H    5.119157   -4.555528    0.283720
 H    2.678122   -4.355571    0.271216
 H   -0.186531    0.153736    0.241082
 H    6.835238   -0.653255    1.741899
 H    8.475474    0.222643    0.125503
 H    7.882520    2.099186   -1.341805
 H    4.030364    2.308184    0.465640
 H    6.388364    3.646613   -2.139405
 H    4.530075    4.670441    0.059304
 H    6.267849    4.960773   -0.034299
 H    5.197209    5.608174   -1.276379
 H    4.133769    4.001358   -2.985755
 H    4.426332    2.269182   -2.843221
 H    3.421309    3.104815   -1.649964
