81 
3vf7_ligand_dft.xyz
 O   -6.898571    0.926677   -1.080348
 C   -7.689134    1.665059   -0.171774
 C   -5.916801    0.142513   -0.588817
 C   -5.168796   -0.559122   -1.544113
 C   -4.132484   -1.383230   -1.148292
 C   -3.833712   -1.510511    0.211342
 C   -4.580665   -0.829995    1.165874
 C   -5.627067   -0.003217    0.771503
 S   -2.429672   -2.463190    0.725225
 O   -2.648656   -2.894881    2.095174
 O   -2.151108   -3.429844   -0.332992
 N   -1.132383   -1.416813    0.743823
 C   -1.070510   -0.490825    1.875420
 C    0.331425   -0.299906    2.468539
 C    1.105931   -1.610072    2.737718
 N    1.221041    0.443579    1.597514
 C    2.493242   -0.021971    1.546221
 O    3.413537    0.507454    0.933167
 C    2.563500   -1.298899    2.366112
 C   -0.619015   -0.948026   -0.558950
 C    0.625259   -1.720688   -1.013796
 O    0.297102   -2.964163   -1.589048
 C    1.433074   -0.962648   -2.082310
 N    1.864203    0.344480   -1.619013
 C    1.151562    1.450185   -1.929853
 O    0.155964    1.480837   -2.634753
 O    1.683926    2.549992   -1.341001
 C    1.825038    4.936602   -1.120840
 C    0.934549    3.757901   -1.537664
 C   -0.260899    3.820573   -0.584398
 C    0.305758    4.349468    0.729142
 O    0.918249    3.315652    1.506649
 C    2.326726    3.550198    1.644222
 C    2.511534    5.040345    1.389502
 C    1.440181    5.320446    0.332889
 C    2.626059   -1.799245   -2.587193
 C    4.671939   -1.485876   -1.126829
 C    5.544528   -1.915228   -0.130746
 C    5.345156   -3.143949    0.489507
 C    4.258576   -3.933955    0.116493
 C    3.383045   -3.496376   -0.871899
 C    3.581580   -2.266912   -1.511731
 H   -7.076364    2.351940    0.424873
 H   -8.253707    1.003725    0.496814
 H   -8.384895    2.240702   -0.782165
 H   -5.422789   -0.440797   -2.591589
 H   -3.565945   -1.945866   -1.882495
 H   -4.361973   -0.964447    2.220014
 H   -6.207335    0.510996    1.528194
 H   -1.700112   -0.896510    2.669589
 H   -1.476999    0.490750    1.587103
 H    0.182528    0.261719    3.402870
 H    0.986385   -1.932199    3.774144
 H    0.705277   -2.400855    2.098233
 H    1.007842    1.399453    1.310093
 H    3.191319   -1.099436    3.241616
 H    3.054650   -2.083703    1.785096
 H   -0.389343    0.110274   -0.443840
 H   -1.387904   -1.020244   -1.335413
 H    1.268654   -1.861481   -0.132821
 H   -0.430282   -3.359927   -1.081055
 H    0.770481   -0.780969   -2.932768
 H    2.587764    0.430925   -0.907347
 H    2.879516    4.662165   -1.217797
 H    1.646741    5.779634   -1.795004
 H    0.629566    3.799007   -2.584129
 H   -0.987597    4.543875   -0.974915
 H   -0.773327    2.860639   -0.484848
 H   -0.463608    4.816943    1.354521
 H    2.617501    3.238491    2.651344
 H    2.871457    2.934724    0.920240
 H    2.303453    5.613454    2.299540
 H    3.522324    5.286191    1.052390
 H    1.101430    6.359073    0.376421
 H    3.161788   -1.191607   -3.324351
 H    2.214285   -2.666732   -3.108212
 H    4.837039   -0.524486   -1.606374
 H    6.377405   -1.283386    0.162061
 H    6.030609   -3.484685    1.260295
 H    4.093689   -4.895116    0.595641
 H    2.524190   -4.099552   -1.152298
