45 
3vf8_ligand_ani.xyz
 C    7.664870   -0.083953    0.348321
 C    6.248153    0.444944    0.295491
 O    5.385428   -0.663214    0.078652
 C    4.061826   -0.402574    0.007703
 C    3.496954    0.858365    0.105124
 C    3.221150   -1.536712   -0.181422
 F    3.810222   -2.738101   -0.270163
 C    1.855331   -1.447428   -0.274038
 C    1.281636   -0.166733   -0.176597
 N   -0.005187    0.257362   -0.222172
 C    2.100614    0.970372    0.013844
 N    1.304705    2.082680    0.086750
 C    0.073941    1.605770   -0.057901
 C   -1.144688    2.392053   -0.041861
 N   -1.266925    3.727553    0.125185
 N   -2.551048    4.022408    0.100182
 C   -3.289548    2.885153   -0.081092
 C   -2.434301    1.808547   -0.183119
 N   -2.648774    0.459718   -0.426722
 C   -3.854740   -0.173709   -0.205469
 O   -4.864446    0.444355    0.112957
 N   -3.854376   -1.536654   -0.383580
 C   -2.706262   -2.295699   -0.855886
 C   -1.735880   -2.741955    0.236272
 C   -5.100068   -2.230943   -0.059651
 C   -5.357120   -2.360405    1.438555
 H    7.768205   -0.815078    1.155078
 H    7.926305   -0.568646   -0.596596
 H    8.367558    0.735492    0.526944
 H    6.125693    1.169847   -0.520922
 H    5.974880    0.943020    1.235932
 H    4.095902    1.750847    0.250854
 H    1.254824   -2.338545   -0.417769
 H   -4.368801    2.894529   -0.121309
 H   -1.755158   -0.039884   -0.459266
 H   -2.185516   -1.716476   -1.627014
 H   -3.101348   -3.181102   -1.365130
 H   -1.210090   -1.896955    0.692514
 H   -2.260277   -3.294125    1.023072
 H   -0.977876   -3.408322   -0.191739
 H   -5.047822   -3.219804   -0.526801
 H   -5.925454   -1.683880   -0.528048
 H   -4.525171   -2.867002    1.940959
 H   -5.486225   -1.371638    1.886195
 H   -6.269467   -2.940536    1.614522
