34 
3vf9_ligand_ani.xyz
 C    6.002008    0.762939   -0.489352
 C    4.989911   -0.260441    0.024272
 C    5.288221   -0.649000    1.476649
 O    5.062843   -1.429066   -0.795619
 C    3.548622    0.225174   -0.077752
 C    2.553965   -0.740091   -0.117137
 C    3.199493    1.599095   -0.040123
 C    1.879972    2.017380   -0.021120
 C    0.854292    1.053830   -0.038103
 C   -0.559566    1.050389   -0.015513
 C    1.213095   -0.345236   -0.088690
 N    0.114205   -1.152481   -0.092483
 C   -0.932527   -0.322251   -0.048652
 C   -2.303643   -0.772222   -0.032065
 N   -2.671660   -2.122703   -0.040997
 N   -3.953988   -2.241529   -0.015552
 C   -4.495006   -0.947417    0.011921
 C   -5.814052   -0.409835    0.046852
 C   -3.483816    0.003152    0.001999
 S   -4.159500    1.603803    0.035256
 C   -5.775990    0.941407    0.061666
 H    5.762255    1.055295   -1.516635
 H    6.029129    1.655803    0.141580
 H    7.005094    0.319138   -0.477583
 H    5.159952    0.213766    2.138205
 H    4.596308   -1.435204    1.799127
 H    6.317294   -1.016189    1.577986
 H    5.960950   -1.776327   -0.714887
 H    2.804798   -1.791853   -0.174920
 H    3.978350    2.355121   -0.034497
 H    1.640171    3.075583    0.009155
 H   -1.266651    1.871360    0.020018
 H   -6.727888   -0.992427    0.060582
 H   -6.620276    1.613364    0.086846
