51 
3vhc_ligand_ani.xyz
 C   -3.914306   -3.479445    0.834639
 C   -2.515982   -2.993801    0.565968
 C   -1.441393   -3.793649    0.947129
 C   -0.103230   -3.451296    0.755659
 C    0.954809   -4.408283    1.238943
 C    0.170368   -2.213047    0.143107
 C   -0.898233   -1.396895   -0.234350
 C   -2.229370   -1.757797   -0.037811
 C   -3.350316   -0.849318   -0.465845
 O   -4.442278   -1.267706   -0.829998
 N   -3.073731    0.480086   -0.390656
 C   -4.127704    1.471663   -0.506374
 C   -3.666510    2.771699   -1.166147
 C   -2.568313    3.500514   -0.405730
 O   -1.337025    2.843947   -0.681111
 C   -0.222690    3.204949    0.005358
 C    0.944876    2.547345   -0.397847
 C   -0.189176    4.111831    1.060433
 C    1.009929    4.295133    1.748048
 C    2.153615    3.588884    1.406571
 C    2.111336    2.689315    0.338400
 S    3.601000    1.812809   -0.085570
 C    3.070886    0.129086   -0.220981
 N    4.011971   -0.666148   -0.712828
 C    1.812120   -0.350513    0.147490
 C    1.550147   -1.699192   -0.093176
 N    2.495789   -2.519169   -0.568735
 C    3.671756   -1.952854   -0.859746
 N    4.628869   -2.773062   -1.386993
 H   -3.886729   -4.433012    1.369691
 H   -4.470944   -2.758426    1.439988
 H   -4.476866   -3.606002   -0.093715
 H   -1.661381   -4.746542    1.427074
 H    1.682633   -3.905742    1.884841
 H    0.499930   -5.228224    1.802117
 H    1.520947   -4.828818    0.401447
 H   -0.672199   -0.460760   -0.744999
 H   -2.179352    0.781710   -0.035638
 H   -4.553188    1.698489    0.484850
 H   -4.925763    1.011802   -1.092951
 H   -4.535403    3.437633   -1.240398
 H   -3.315155    2.573814   -2.183793
 H   -2.773377    3.484831    0.675584
 H   -2.498535    4.549501   -0.725207
 H    0.901753    1.894104   -1.261023
 H   -1.073194    4.672015    1.348299
 H    1.042489    4.997721    2.577145
 H    3.075314    3.722556    1.966449
 H    1.074002    0.276202    0.630158
 H    5.574769   -2.425791   -1.346752
 H    4.492673   -3.759874   -1.233107
