50 
3vhd_ligand_ani.xyz
 C   -1.123622   -1.765135   -0.096997
 C   -1.382366   -3.116797   -0.402707
 C   -0.294753   -3.991212   -0.440511
 C    1.022452   -3.615860   -0.187704
 C    1.265823   -2.267808    0.111721
 C    0.197395   -1.380286    0.150497
 C    2.657158   -1.774942    0.387079
 C    2.117588   -4.643233   -0.264466
 O    3.500090   -2.428715    0.984070
 N    2.927284   -0.527733   -0.103242
 C   -2.748339   -3.676322   -0.704851
 C   -2.163137   -0.700303   -0.042490
 C   -1.812199    0.598474   -0.415919
 C   -2.744150    1.609252   -0.172762
 N   -3.958776    1.354846    0.295023
 C   -4.222296    0.065026    0.544822
 N   -3.396983   -0.976674    0.402249
 N   -5.487523   -0.217794    0.977180
 C    4.304608   -0.065861   -0.143258
 C    4.423330    1.417967   -0.457309
 C    3.976473    2.364318    0.659436
 N    2.547838    2.390846    0.919535
 C    1.706432    3.088915    0.104972
 C    0.227850    3.041257    0.470061
 O    2.115671    3.738929   -0.845911
 C   -0.633888    3.342989   -0.752626
 S   -2.418680    3.317417   -0.455037
 H   -0.487789   -5.035598   -0.683480
 H    0.396125   -0.349356    0.434436
 H    1.707324   -5.617328   -0.545570
 H    2.868323   -4.356745   -1.007079
 H    2.641986   -4.734848    0.690371
 H    2.277238   -0.125996   -0.764444
 H   -3.390541   -3.652257    0.181726
 H   -3.262643   -3.091108   -1.474179
 H   -2.668347   -4.711189   -1.050181
 H   -0.860453    0.811660   -0.882005
 H   -6.007946    0.563011    1.347017
 H   -5.602304   -1.107446    1.436941
 H    4.882678   -0.642578   -0.878742
 H    4.743484   -0.295962    0.833198
 H    3.868197    1.660930   -1.372382
 H    5.479864    1.629484   -0.668183
 H    4.269248    3.380873    0.386971
 H    4.483826    2.111881    1.597499
 H    2.171214    1.746619    1.597769
 H    0.034947    3.792297    1.246601
 H   -0.022469    2.073246    0.921672
 H   -0.392807    2.684633   -1.591613
 H   -0.425388    4.358309   -1.098162
