39 
3vhk_ligand_xtb.xyz
 C   -6.799406   -1.272063   -0.309960
 C   -6.573086    0.074020   -0.070893
 C   -5.729173   -2.147934   -0.412330
 C    5.022672    1.485432   -0.842316
 C   -5.282782    0.548394    0.066759
 C   -4.436059   -1.683985   -0.276053
 C    5.635546    0.311456   -0.431684
 C    3.653779    1.623720   -0.769533
 C    3.481310   -0.600006    0.126538
 C   -4.204490   -0.329654   -0.034817
 C    4.864783   -0.730535    0.050784
 C    2.869575    0.576478   -0.280823
 C   -0.730257    0.294010    0.249959
 C   -1.241892    1.549576    0.432615
 C   -2.846878    0.146082    0.110668
 C   -0.624593    2.871091    0.694947
 C    5.491774   -2.022972    0.509530
 C    0.679656   -0.191830    0.268785
 N   -1.763694   -0.575229    0.048217
 O   -2.591910    1.452006    0.340350
 O    6.884590   -2.007795    0.300109
 O    1.526737    0.813633   -0.242706
 H   -7.809794   -1.638390   -0.416625
 H   -7.407076    0.755780    0.008816
 H   -5.907596   -3.196547   -0.599135
 H    5.622255    2.299439   -1.221514
 H   -5.098872    1.595700    0.253310
 H   -3.588291   -2.345847   -0.351497
 H    6.705080    0.194668   -0.484590
 H    3.161766    2.529679   -1.086729
 H    2.901563   -1.428865    0.503389
 H   -0.833807    3.192047    1.715859
 H    0.448211    2.797431    0.551880
 H   -1.034120    3.616500    0.015375
 H    5.028619   -2.857406   -0.041203
 H    5.266321   -2.164663    1.579530
 H    0.734014   -1.104830   -0.338150
 H    0.967018   -0.442401    1.302609
 H    7.252345   -2.846122    0.596078
