47 
3vi5_ligand_dft.xyz
 C   -3.765505   -2.277239    0.050226
 N   -3.367176    2.866915   -0.351773
 O   -5.160059    0.998113   -0.510365
 S   -0.501636    3.819341    0.246898
 C   -4.162732   -3.615641    0.070627
 N    0.402207   -1.155577    0.680036
 O   -1.264246    4.666172   -0.649794
 S    6.248830   -1.032350   -0.423565
 C   -5.477419   -3.949417   -0.220890
 N    6.764411    0.347576    0.385764
 O   -0.312407    4.203364    1.632440
 C   -6.402329   -2.948934   -0.525411
 O    0.979155    3.634842   -0.388932
 C   -6.012156   -1.616978   -0.538836
 C   -4.689323   -1.276646   -0.253372
 O    6.828680   -2.197991    0.227371
 C   -4.292754    0.156773   -0.270415
 O   -1.596106   -2.825258    0.735417
 C   -2.881424    0.508273   -0.020546
 O    6.457428   -0.753397   -1.835813
 C   -2.491038    1.874682   -0.103249
 C   -1.107102    2.147613    0.128907
 C   -0.201983    1.155509    0.397479
 C   -0.565248   -0.203303    0.419514
 C    1.765046   -1.078466    0.397050
 C    2.631501   -1.897033    1.135441
 C    3.993498   -1.895972    0.880235
 C    4.504214   -1.061623   -0.109463
 C    3.657478   -0.257985   -0.867469
 C    2.293345   -0.271559   -0.623779
 C   -1.925700   -0.518701    0.249495
 C   -2.362385   -1.933519    0.371889
 H   -4.324751    2.598306   -0.539207
 H   -3.028082    3.791809   -0.572088
 H   -3.427795   -4.374254    0.315752
 H    0.026631   -2.062020    0.940109
 H   -5.786377   -4.989995   -0.210476
 H    7.226014    0.100286    1.256003
 H    7.381833    0.876470   -0.223390
 H   -7.431097   -3.212079   -0.751078
 H    1.609323    4.021568    0.241661
 H   -6.715017   -0.823811   -0.767604
 H    0.825409    1.421537    0.611255
 H    2.224465   -2.531065    1.917331
 H    4.662123   -2.538822    1.442440
 H    4.062665    0.351661   -1.668258
 H    1.635996    0.320379   -1.251151
