28 
3vid_ligand_ani.xyz
 C    1.786476    0.477417   -0.076569
 C   -0.220801    2.131994   -0.218521
 C   -2.742793    0.186913   -0.078034
 C    2.970669    1.234675   -0.123182
 C   -3.864270   -0.654557   -0.058233
 C    3.101794   -1.595002    0.113790
 C    4.248722   -0.830591    0.068163
 N    0.626891   -1.518836    0.064551
 C    1.858748   -0.947401    0.039934
 C    4.185760    0.578527   -0.051451
 C   -0.233296   -0.509566   -0.024886
 C   -1.673262   -0.762347   -0.032891
 N   -2.144746   -1.985660    0.001404
 N   -3.525559   -1.926728   -0.014254
 C    0.391549    0.767044   -0.114304
 C   -1.526083    2.309693    0.563375
 C   -2.734652    1.670476   -0.113815
 H   -0.411504    2.377403   -1.276448
 H    0.518473    2.866205    0.131863
 H    2.932990    2.317679   -0.216386
 H   -4.913511   -0.369769   -0.075298
 H    3.133267   -2.676908    0.205019
 H    5.219196   -1.315943    0.124544
 H    5.108750    1.148992   -0.085813
 H   -1.720511    3.382174    0.686258
 H   -1.411386    1.893061    1.570850
 H   -3.651511    2.031008    0.368685
 H   -2.791716    2.021014   -1.155426
