95 
3vjc_ligand_ani.xyz
 C   -3.015425    0.396863   -2.306974
 C    9.011665    4.643468   -1.420462
 C   -3.805753   -3.053424    1.234172
 C    7.073750    2.099629    1.934767
 C   10.406148    1.836316   -1.115651
 C   -6.746574    0.695142    0.755859
 O   -4.445152   -2.469753   -1.013298
 O    3.124284    0.793414   -1.171994
 O   -2.230283   -2.891834   -2.529412
 O    1.263043   -5.376638   -0.151241
 O    2.717419   -3.457718    1.784064
 O   -1.824117   -4.596899   -1.131072
 O    2.064372   -3.696885   -1.383896
 O    1.805571   -2.014373    3.234471
 O    0.361403    0.274718   -1.592913
 O   -0.441862   -3.913862    1.142238
 C    4.743255    0.917824    0.582693
 C    5.541581    1.775850   -0.056501
 C   -8.000714    5.661570    0.852560
 C   -6.700796    5.429406    1.292914
 C   -8.549156    4.842229   -0.128878
 C   -5.957888    4.383386    0.755943
 C   -7.798965    3.799352   -0.666325
 C    9.444723    3.964483   -0.120054
 C   -2.287586    1.331513   -0.117449
 C   -1.627903    0.474421    0.981789
 C   -5.684437    2.407744   -0.794588
 C    7.991714    1.859307   -0.435397
 O   -4.367837   -0.859264    0.561535
 O    2.838687   -0.456779    0.675901
 O   -1.371436   -1.481293   -0.339911
 O   -0.050142   -1.260149    1.552014
 C   -4.232813   -2.130198    0.130639
 C    3.513527    0.433118   -0.072123
 C   -3.278133    0.620316   -1.019405
 C   -1.598768   -3.466083   -1.512129
 C    1.323304   -4.097008   -0.515400
 C    1.928129   -2.576514    2.036874
 C   -6.493173    3.554883   -0.234323
 C    6.836405    2.364197    0.448025
 C    9.386966    2.426892   -0.136258
 C   -5.437184    1.263973    0.208640
 C    0.592790    0.018131   -0.242916
 C   -4.603170    0.155479   -0.444307
 C   -0.581169   -2.515814   -0.877012
 C    1.697450   -1.032443    0.022966
 C    0.306335   -3.202265    0.203238
 C   -0.654611   -0.578383    0.460293
 C    0.986852   -2.025398    0.971336
 H   -3.696974   -0.177289   -2.930256
 H   -2.088128    0.739823   -2.757673
 H    9.098561    5.732216   -1.340014
 H    9.629936    4.326434   -2.267153
 H    7.968670    4.413702   -1.665794
 H   -2.757971   -2.868713    1.487040
 H   -4.416981   -2.901447    2.129250
 H   -3.907727   -4.081569    0.882109
 H    7.221222    1.029446    2.125249
 H    7.961545    2.626783    2.299082
 H    6.218646    2.437095    2.529661
 H   10.180011    2.121393   -2.149782
 H   10.404107    0.741235   -1.069286
 H   11.420913    2.182048   -0.888162
 H   -7.336984    1.477884    1.243556
 H   -7.353042    0.271717   -0.056363
 H   -6.550431   -0.098737    1.481207
 H   -3.029585   -3.411677   -2.720301
 H    1.941610   -5.842661   -0.668075
 H    2.467118   -2.444060    3.802956
 H    1.203588    0.621998   -1.927686
 H   -0.883906   -4.628695    0.648153
 H    4.957652    0.541867    1.578830
 H    5.241604    2.069840   -1.065580
 H   -8.583095    6.477783    1.273022
 H   -6.263999    6.064965    2.059864
 H   -9.564310    5.014014   -0.479707
 H   -4.942534    4.208892    1.111670
 H   -8.235078    3.160806   -1.433113
 H    8.830391    4.345514    0.706496
 H   10.475718    4.264230    0.111398
 H   -2.790410    2.171914    0.377769
 H   -1.501875    1.762404   -0.749089
 H   -2.396661   -0.040560    1.565411
 H   -1.079921    1.131314    1.668525
 H   -4.715029    2.783088   -1.150854
 H   -6.197483    1.990270   -1.672200
 H    7.735707    2.060378   -1.485405
 H    8.039251    0.763549   -0.346213
 H    6.747118    3.450047    0.302306
 H    9.679003    2.085464    0.867916
 H   -4.859406    1.653168    1.057797
 H    0.874214    0.930976    0.305697
 H   -5.181704   -0.307887   -1.252624
 H    0.069662   -2.139873   -1.675274
 H    2.033102   -1.518347   -0.895595
