95 
3vje_ligand_dft.xyz
 C   -3.581964   -1.045556   -3.500661
 C    6.196215   -2.058328   -1.424110
 C   -7.146159   -0.675979   -1.255595
 C    0.772570   -5.276225   -0.296111
 C    5.076281   -4.091782    0.653542
 C   -2.923661   -3.526475   -1.149105
 O   -5.344749    0.892014   -0.912979
 O    1.542800   -0.479398    3.070482
 O   -0.180530    5.820718   -0.840857
 O    2.411844    3.243896    2.010835
 O    3.691443    0.472910    0.276745
 O    2.034519    5.626770   -0.585933
 O    4.106934    3.466521    0.561428
 O    2.746593   -0.314820   -1.600028
 O   -1.401019    2.225720    1.172757
 O    2.648196    3.063412   -1.550590
 C    1.637393   -2.494652    1.803127
 C    1.500747   -3.068842    0.604963
 C   -2.612080    0.784366    3.827896
 C   -3.820928    0.728752    3.135596
 C   -1.654944   -0.211434    3.626833
 C   -4.076094   -0.322475    2.259081
 C   -1.920683   -1.258318    2.748753
 C    5.102848   -3.096670   -1.686692
 C   -1.581830   -0.064099   -2.387011
 C   -1.641638    1.431175   -1.993826
 C   -3.389753   -2.469864    1.096986
 C    3.045890   -4.302481   -0.854290
 O   -4.892634   -1.314441   -1.071001
 O    0.818497   -0.493535    0.925687
 O   -0.364965    3.202015   -1.078554
 O    0.679846    1.191800   -1.451550
 C   -5.716419   -0.246913   -1.056048
 C    1.339566   -1.067016    2.035197
 C   -2.929495   -0.736671   -2.382156
 C    0.926286    5.131731   -0.584116
 C    2.842067    3.194699    0.881542
 C    2.788814    0.473090   -0.527541
 C   -3.133018   -1.333172    2.057001
 C    1.951001   -4.444317    0.225694
 C    4.249811   -3.433998   -0.453833
 C   -2.817019   -2.246684   -0.319047
 C   -0.720469    1.278707    0.406627
 C   -3.485157   -1.039284   -1.005913
 C    0.657556    3.681180   -0.234020
 C    0.713146    0.925892    0.857640
 C    1.978654    2.858833   -0.343372
 C   -0.523735    1.807532   -1.041441
 C    1.561669    1.357981   -0.365001
 H   -3.157603   -0.821982   -4.475312
 H   -4.555080   -1.526097   -3.482070
 H    5.788005   -1.160411   -0.942162
 H    6.975763   -2.450632   -0.764098
 H    6.679165   -1.752923   -2.357581
 H   -7.814569    0.127773   -0.946734
 H   -7.361384   -1.591788   -0.700375
 H   -7.308167   -0.883281   -2.318674
 H    0.007298   -5.403044    0.476718
 H    1.110371   -6.269391   -0.610630
 H    0.303497   -4.790385   -1.160344
 H    5.501884   -5.042036    0.306199
 H    4.468154   -4.298412    1.540158
 H    5.900057   -3.448154    0.975342
 H   -2.422757   -4.356154   -0.639078
 H   -3.972397   -3.802935   -1.301246
 H   -2.463968   -3.401105   -2.133337
 H    0.097681    6.731539   -1.031694
 H    4.562615    3.658508    1.396554
 H    3.576759   -0.820240   -1.597761
 H   -1.746011    1.782486    1.961547
 H    3.024819    3.955616   -1.512807
 H    2.055390   -3.018839    2.657451
 H    1.099583   -2.469005   -0.212135
 H   -2.414269    1.597334    4.520533
 H   -4.566814    1.504999    3.276321
 H   -0.700129   -0.169713    4.140735
 H   -5.021683   -0.356331    1.725561
 H   -1.177449   -2.038460    2.599117
 H    4.438082   -2.728422   -2.483072
 H    5.551811   -4.016970   -2.085053
 H   -0.905052   -0.592231   -1.705215
 H   -1.122546   -0.161149   -3.373940
 H   -1.558911    2.060338   -2.883260
 H   -2.590855    1.686201   -1.510352
 H   -4.465574   -2.658617    1.013974
 H   -2.938199   -3.384117    1.499913
 H    3.394880   -5.305069   -1.138836
 H    2.576248   -3.871784   -1.750736
 H    2.369457   -4.944410    1.107440
 H    3.866531   -2.484789   -0.052061
 H   -1.754072   -1.991777   -0.204734
 H   -1.272973    0.333750    0.359886
 H   -3.351640   -0.155329   -0.373000
 H    0.319614    3.661026    0.811211
 H    1.007409    1.381549    1.802567
