95 
3vje_ligand_ani.xyz
 C   -4.244405    0.189127   -3.195127
 C    8.064666   -2.102453   -1.224882
 C   -8.041697   -0.418089   -0.355490
 C    2.324086   -4.858734   -0.721805
 C    6.250663   -3.363139    0.988833
 C   -4.894426   -3.096463   -2.344022
 O   -6.139845   -0.724195    1.083097
 O    1.265583   -0.526847    2.603857
 O   -0.921284    5.665589    1.750257
 O    2.941883    3.508323    1.565618
 O    3.631726    1.921307   -1.200443
 O    0.386606    6.235781    0.038372
 O    3.429757    4.854400   -0.146316
 O    2.160901    0.927320   -2.566708
 O   -0.813953    1.385404    2.096211
 O    1.339548    4.220961   -1.530737
 C    2.439012   -2.196102    1.371881
 C    2.920686   -2.631219    0.202311
 C   -1.111839   -2.547116    2.925729
 C   -2.327431   -1.888159    3.077140
 C   -0.949826   -3.452802    1.881658
 C   -3.378672   -2.131911    2.197131
 C   -1.993799   -3.690681    0.995021
 C    6.993333   -3.171807   -1.435143
 C   -2.280636    0.263961   -1.659067
 C   -2.270367    1.540432   -0.803602
 C   -4.324301   -3.276589    0.131766
 C    4.698684   -4.042112   -0.897815
 O   -5.846530   -0.721324   -1.157236
 O    1.818456   -0.088389    0.471756
 O   -1.018930    3.306485    0.129985
 O    0.093594    1.847900   -1.280175
 C   -6.583086   -0.636896   -0.040025
 C    1.792228   -0.880026    1.565711
 C   -3.687940   -0.146457   -2.033510
 C   -0.092381    5.375809    0.748284
 C    2.676459    3.946029    0.469235
 C    2.493124    1.627455   -1.484381
 C   -3.220867   -3.036183    1.140193
 C    3.419872   -4.029813   -0.040207
 C    5.816014   -3.088362   -0.452009
 C   -4.120528   -2.480881   -1.178551
 C   -0.334177    1.044077    0.832584
 C   -4.428389   -0.973667   -1.009286
 C    0.183346    3.878265    0.622454
 C    1.199416    1.187764    0.667934
 C    1.403192    3.577838   -0.302732
 C   -0.899408    1.960755   -0.280315
 C    1.318744    2.048901   -0.608853
 H   -3.684372    0.728999   -3.955625
 H   -5.270171   -0.085514   -3.421768
 H    7.630932   -1.096687   -1.273941
 H    8.557280   -2.203773   -0.251991
 H    8.841880   -2.167133   -1.993668
 H   -8.595484   -0.343431    0.579785
 H   -8.428008   -1.253725   -0.948028
 H   -8.169816    0.499258   -0.938144
 H    1.419005   -4.899900   -0.106044
 H    2.656601   -5.885688   -0.912126
 H    2.048764   -4.405259   -1.681322
 H    6.664735   -4.376432    1.081519
 H    5.411437   -3.279494    1.686155
 H    7.018523   -2.657017    1.321803
 H   -4.594213   -4.139902   -2.493356
 H   -5.973218   -3.069136   -2.157906
 H   -4.698739   -2.557379   -3.278224
 H   -1.034000    6.631594    1.744897
 H    4.197260    5.012454    0.428679
 H    3.000120    0.728287   -3.014985
 H   -0.361475    0.781012    2.707447
 H    1.297097    5.175282   -1.339559
 H    2.464668   -2.806329    2.269646
 H    2.895682   -1.964365   -0.662317
 H   -0.290678   -2.333720    3.603617
 H   -2.455347   -1.167086    3.882768
 H   -0.004265   -3.976766    1.757520
 H   -4.323713   -1.605478    2.314191
 H   -1.860885   -4.392757    0.173337
 H    6.602333   -3.088392   -2.458341
 H    7.446346   -4.171696   -1.362158
 H   -1.801372   -0.558584   -1.107896
 H   -1.687685    0.425452   -2.565341
 H   -2.662355    2.378808   -1.386529
 H   -2.934561    1.428325    0.063582
 H   -5.297857   -3.033470    0.570400
 H   -4.343108   -4.343885   -0.123714
 H    5.092786   -5.069480   -0.930099
 H    4.417413   -3.791881   -1.932066
 H    3.629834   -4.486489    0.939715
 H    5.417305   -2.060551   -0.498409
 H   -3.049902   -2.543516   -1.421187
 H   -0.586832    0.004162    0.571324
 H   -4.147229   -0.650272   -0.001612
 H    0.405090    3.491344    1.625557
 H    1.663998    1.674003    1.527871
