62 
3vjk_ligand_ani.xyz
 C    2.667110   -1.959991    1.450539
 C    4.015649   -2.375702    1.394193
 N    4.788127   -1.434803    0.873918
 N    3.969496   -0.394000    0.590133
 C    2.661917   -0.697525    0.876264
 C    4.548018    0.830545    0.164417
 C    3.983995    2.069571    0.475085
 C    4.597854    3.230369    0.017989
 C    5.765288    3.167647   -0.735584
 C    6.331212    1.928474   -1.022133
 C    5.734636    0.761224   -0.564527
 C    4.614989   -3.679920    1.835955
 N    1.622146    0.180787    0.598948
 C    1.402796    0.572351   -0.799611
 C    0.616070   -0.473903   -1.588762
 N   -0.728518   -0.734793   -0.949462
 C   -0.469063   -1.182338    0.471838
 C    0.347542   -0.138305    1.235556
 C   -1.581550   -1.722066   -1.721545
 C   -1.874168   -1.264159   -3.152477
 N   -2.939945   -0.239835   -2.987722
 C   -3.752104   -0.619729   -1.776350
 C   -3.010648   -1.829067   -1.167557
 C   -3.691876    0.588137   -0.837148
 N   -4.633488    0.749310    0.127223
 C   -5.603843   -0.278875    0.507248
 C   -6.328500    0.242481    1.753984
 S   -5.117781    1.245572    2.651938
 C   -4.478554    1.854857    1.068187
 O   -2.734764    1.357115   -0.964061
 H    1.821916   -2.505361    1.844388
 H    3.066453    2.124237    1.051641
 H    4.153978    4.194899    0.250197
 H    6.235219    4.079582   -1.093016
 H    7.249733    1.867126   -1.600688
 H    6.174027   -0.212134   -0.761409
 H    4.405023   -3.876072    2.893494
 H    5.698104   -3.648195    1.693382
 H    4.209933   -4.519808    1.259551
 H    0.835271    1.514132   -0.795214
 H    2.358742    0.765069   -1.287681
 H    1.181654   -1.413182   -1.628448
 H    0.477410   -0.117557   -2.610385
 H   -1.233225    0.172644   -0.897132
 H   -1.419853   -1.345648    0.981630
 H    0.069906   -2.138420    0.444228
 H   -0.237682    0.790892    1.305729
 H    0.542569   -0.479561    2.255059
 H   -1.068861   -2.689317   -1.712492
 H   -2.238587   -2.120881   -3.725834
 H   -1.015393   -0.850130   -3.677234
 H   -3.514070   -0.065294   -3.823928
 H   -2.501089    0.665809   -2.686427
 H   -4.774040   -0.849628   -2.070255
 H   -3.049964   -1.843816   -0.076413
 H   -3.459190   -2.764275   -1.516879
 H   -6.322621   -0.462597   -0.299483
 H   -5.094268   -1.224830    0.729716
 H   -7.189869    0.857259    1.474281
 H   -6.676321   -0.571764    2.392701
 H   -5.026883    2.744101    0.731898
 H   -3.420758    2.105537    1.151895
