63 
3vjl_ligand_xtb.xyz
 C   -1.662913   -1.320639    0.772822
 C   -0.676748   -1.537236    1.717650
 C   -0.400242   -0.262485    2.237027
 N   -1.169146    0.652170    1.674251
 N   -1.942887    0.007791    0.819945
 C   -2.994613    0.697470    0.160930
 C   -2.723412    1.848699   -0.566442
 C   -3.763149    2.534814   -1.169294
 C   -5.064564    2.077612   -1.043622
 C   -5.331500    0.935098   -0.305976
 C   -4.300055    0.241475    0.301362
 C    0.782020    0.055318    3.075126
 F    1.100955    1.340497    3.110058
 F    0.757230   -0.427106    4.303552
 F    1.888792   -0.559676    2.471104
 C   -2.192764   -2.231419   -0.296196
 C   -1.909883   -1.656782   -1.706060
 C   -0.635153   -2.241027   -2.320429
 N    0.381965   -2.448345   -1.254024
 C   -0.057905   -3.629522   -0.459868
 C   -1.577468   -3.631025   -0.215802
 C    1.774624   -2.578485   -1.779160
 C    2.343653   -1.254346   -2.316918
 C    2.965723   -0.531643   -1.103671
 N    3.125664   -1.606868   -0.065686
 C    2.815725   -2.911012   -0.705175
 C    1.929217    0.456494   -0.517573
 N    2.173250    1.741814   -0.436377
 C    3.262020    2.471040   -1.087232
 C    2.847494    3.945280   -1.156092
 S    1.026419    3.950021   -1.085867
 C    1.190820    2.635588    0.152931
 O    0.898413   -0.090587   -0.101457
 H   -0.241920   -2.452907    2.058043
 H   -1.710909    2.211275   -0.652806
 H   -3.553848    3.432217   -1.729534
 H   -5.873023    2.619212   -1.507856
 H   -6.346427    0.590665   -0.187977
 H   -4.510186   -0.623673    0.911422
 H   -3.273736   -2.330097   -0.174477
 H   -1.833342   -0.570958   -1.654720
 H   -2.740519   -1.886436   -2.372041
 H   -0.257038   -1.564373   -3.085314
 H   -0.826530   -3.206434   -2.792737
 H    0.361084   -1.575637   -0.646794
 H    0.461554   -3.627574    0.495549
 H    0.222840   -4.532222   -1.007643
 H   -1.776776   -4.070344    0.760489
 H   -2.075252   -4.257677   -0.955344
 H    1.758873   -3.348522   -2.555624
 H    1.594271   -0.627840   -2.797215
 H    3.108527   -1.474494   -3.061619
 H    3.925963   -0.074769   -1.336355
 H    4.054879   -1.606212    0.367911
 H    2.446399   -1.403950    0.694668
 H    2.507696   -3.646708    0.035122
 H    3.712632   -3.287988   -1.203241
 H    4.187180    2.365519   -0.513623
 H    3.410237    2.079253   -2.095996
 H    3.223929    4.513033   -0.305905
 H    3.168967    4.420620   -2.078106
 H    1.583180    3.048839    1.085838
 H    0.251004    2.123541    0.352209
