63 
3vjl_ligand_ani.xyz
 C   -0.558255   -2.219609   -0.344546
 C    0.220756   -2.595536    0.735057
 C   -0.331509   -1.913877    1.822102
 N   -1.429159   -1.252733    1.503118
 N   -1.611758   -1.502037    0.181159
 C   -2.798982   -1.008729   -0.415512
 C   -3.421757    0.069607    0.215633
 C   -4.536687    0.673998   -0.354812
 C   -5.074412    0.173037   -1.536353
 C   -4.491394   -0.942063   -2.128404
 C   -3.368206   -1.542939   -1.572150
 C    0.305209   -1.775506    3.167133
 F   -0.567365   -1.374976    4.093306
 F    0.828095   -2.954114    3.555504
 F    1.316739   -0.883694    3.129490
 C   -0.270313   -2.324153   -1.818354
 C   -0.306615   -0.957851   -2.556210
 C    1.087145   -0.451489   -2.923320
 N    2.021608   -0.676406   -1.771169
 C    2.287439   -2.158469   -1.643982
 C    1.081979   -3.007867   -2.070417
 C    3.287450    0.147604   -1.852271
 C    3.029390    1.649544   -1.663632
 C    2.876288    1.810677   -0.137859
 N    3.655670    0.662614    0.454465
 C    4.240341   -0.114597   -0.682408
 C    1.415317    1.583235    0.288226
 N    0.486576    2.565600    0.177279
 C    0.671178    3.952445   -0.224696
 C   -0.236623    4.768160    0.693288
 S   -1.760467    3.785373    0.871709
 C   -0.901156    2.228802    0.465442
 O    1.110602    0.444615    0.646306
 H    1.079413   -3.249589    0.746101
 H   -3.013024    0.431041    1.153140
 H   -4.988154    1.533986    0.134181
 H   -5.947518    0.639114   -1.983396
 H   -4.912834   -1.356060   -3.040380
 H   -2.955366   -2.423042   -2.049839
 H   -1.037977   -2.978720   -2.241203
 H   -0.792137   -0.203888   -1.926555
 H   -0.908173   -1.040266   -3.466875
 H    1.050134    0.613105   -3.157894
 H    1.483974   -0.962793   -3.808193
 H    1.501841   -0.410376   -0.910978
 H    2.538575   -2.352652   -0.598218
 H    3.162003   -2.417570   -2.252931
 H    1.114242   -3.968901   -1.551017
 H    1.163924   -3.240391   -3.138817
 H    3.770148   -0.070350   -2.810569
 H    2.161105    2.029134   -2.207313
 H    3.906459    2.199613   -2.015633
 H    3.262944    2.756002    0.235239
 H    4.328664    0.954860    1.176237
 H    2.913150    0.082747    0.914174
 H    4.345077   -1.167733   -0.423291
 H    5.230038    0.267805   -0.943861
 H    1.714327    4.253296   -0.108722
 H    0.380950    4.095703   -1.274596
 H    0.228021    4.909550    1.672286
 H   -0.481414    5.744179    0.269996
 H   -0.934749    1.523829    1.303506
 H   -1.378265    1.754717   -0.402776
