57 
3vnt_ligand_ani.xyz
 F   -3.030273    3.827727    1.488883
 C   -1.892599    3.366201    0.916517
 C   -0.690235    3.986568    1.171788
 C    0.460286    3.497224    0.554309
 C    0.350963    2.397785   -0.288048
 O    1.469267    1.936963   -0.968680
 C    2.412712    1.239324   -0.292734
 C    2.128206    0.586439    0.925836
 C    3.129171   -0.147476    1.533461
 C    4.380958   -0.209843    0.913236
 N    5.506543   -0.886524    1.358618
 C    6.470370   -0.718656    0.517794
 N    7.708045   -1.305655    0.745656
 C    8.803435   -1.248138   -0.094021
 O    8.778030   -0.618193   -1.137084
 C   10.000292   -2.009830    0.367184
 C   10.839829   -2.651099   -0.712651
 C   11.345743   -1.440085   -0.014044
 S    6.158560    0.265295   -0.902256
 C    4.525483    0.483906   -0.298196
 N    3.581197    1.189400   -0.907374
 C   -0.862188    1.776034   -0.547740
 C   -2.014259    2.261867    0.063805
 N   -3.307043    1.760144   -0.133403
 C   -3.657686    0.571433   -0.732158
 O   -2.861630   -0.223435   -1.188579
 C   -5.151707    0.358725   -0.768978
 C   -5.967074    1.346417   -1.324075
 C   -7.337919    1.155203   -1.435442
 C   -7.907500   -0.024733   -0.976088
 C   -7.126844   -1.027711   -0.403472
 C   -5.750725   -0.810570   -0.298849
Cl   -4.777687   -2.021527    0.471037
 C   -7.770443   -2.283883    0.103784
 C   -8.831459   -2.976623   -0.729529
 C   -7.493660   -3.616399   -0.571384
 C   -7.995502   -2.341306    1.541187
 N   -8.193534   -2.431374    2.677989
 H   -0.664016    4.842097    1.839361
 H    1.426913    3.964709    0.712120
 H    1.142777    0.660997    1.372587
 H    2.961780   -0.668599    2.472276
 H    7.750439   -1.841228    1.602303
 H    9.911996   -2.522501    1.320758
 H   10.476265   -2.520154   -1.727494
 H   11.291098   -3.613385   -0.492998
 H   12.155757   -1.545519    0.700566
 H   11.318875   -0.504433   -0.564430
 H   -0.904534    0.929971   -1.220440
 H   -4.031842    2.302257    0.314544
 H   -5.512716    2.263732   -1.689778
 H   -7.961999    1.926979   -1.874862
 H   -8.979420   -0.183130   -1.058113
 H   -9.069529   -2.530274   -1.692155
 H   -9.680904   -3.392288   -0.196849
 H   -7.388712   -4.485433    0.071031
 H   -6.823728   -3.581349   -1.424498
