53 
3vo3_ligand_ani.xyz
 C   -2.067917    3.640028    0.456039
 C   -3.257862    2.925088    0.478653
 C   -0.904124    3.070749   -0.050149
 C   -2.138433    1.026871   -0.513531
 C   -7.348350    0.008346   -0.346002
 C    4.628046    0.025707   -0.553146
 C   -3.299556    1.613002   -0.008184
 C   -0.960782    1.760803   -0.517912
 C   -6.210521   -0.752976   -0.100248
 C   -8.409914   -0.909910   -0.282769
 C    5.293293   -0.392068    0.585561
 C    3.286906   -0.075390    1.213636
 C    2.036643    0.068725    1.854414
 C    0.980779    0.504795    1.112703
 C    1.191592    0.786078   -0.282979
 C   -4.770194   -0.402305   -0.090228
 C    7.589525   -0.678525   -0.247620
 C   10.099194   -0.309053   -0.490311
 C    9.830433   -1.721235   -0.871514
 C    8.969348   -1.057483    0.175188
 C   -9.869439   -0.657766   -0.485823
 C   -5.835805   -3.195781    0.390867
 N   -7.964461   -2.135285   -0.012628
 N    4.484477   -0.459121    1.667424
 N    2.319238    0.645476   -0.918785
 N    3.338426    0.230148   -0.138602
 N   -6.637445   -2.023877    0.092430
 N   -4.541999    0.942400   -0.001775
 N    6.636697   -0.733876    0.742727
 O   -3.882676   -1.241223   -0.152340
 O    7.321724   -0.340400   -1.387779
 O    0.160593    1.175411   -1.083645
 H   -2.048875    4.658690    0.833853
 H   -4.157607    3.387410    0.877496
 H    0.026598    3.628355   -0.094370
 H   -2.146905    0.015171   -0.898745
 H   -7.432707    1.059620   -0.593947
 H    4.944907    0.188314   -1.570681
 H    1.961909   -0.166818    2.910148
 H   -0.000882    0.636074    1.556806
 H    9.799325    0.458410   -1.197712
 H   10.975345   -0.083061    0.109520
 H   10.516889   -2.494729   -0.541410
 H    9.351975   -1.890432   -1.831551
 H    9.092234   -1.360510    1.211274
 H  -10.253469    0.064046    0.243384
 H  -10.063072   -0.249831   -1.484184
 H  -10.421620   -1.593731   -0.377417
 H   -5.125645   -3.390055   -0.413996
 H   -5.271380   -3.040881    1.312231
 H   -6.536783   -4.021881    0.505349
 H   -5.346680    1.522835    0.179708
 H    6.897610   -1.004570    1.678955
