29 
3vp1_ligand_ani.xyz
 O   -1.714692   -2.580082    0.696558
 C   -4.473289    2.451498    0.691144
 C   -4.251084    1.388886    1.563754
 C   -4.269323    2.278952   -0.674094
 C   -3.823033    0.160636    1.071550
 C   -3.849393    1.044558   -1.164790
 C    4.537946    0.916547    0.730038
 C    4.339752   -0.463179    0.155611
 C   -3.162387   -1.371608   -0.806722
 N    2.389967   -1.871511    0.677246
 N    1.044546   -2.029110    0.474721
 N   -0.766596   -1.006272   -0.679166
 S    5.275853    2.128203   -0.024517
 S    1.722486    0.065339   -0.850841
 C   -1.825599   -1.752110   -0.174854
 C   -3.628597   -0.024165   -0.298815
 C    2.889486   -0.847106    0.074880
 C    0.556536   -1.107755   -0.287979
 H   -4.804525    3.412836    1.076705
 H   -4.407396    1.520218    2.631424
 H   -4.438885    3.105236   -1.360323
 H   -3.630575   -0.670571    1.748258
 H   -3.697773    0.912016   -2.234584
 H    4.129034    1.051972    1.735764
 H    4.814071   -1.200474    0.813429
 H    4.807885   -0.517234   -0.832510
 H   -3.865742   -2.162463   -0.532958
 H   -3.078444   -1.362665   -1.900129
 H   -1.005042   -0.247549   -1.299750
