29 
3vp1_ligand_dft.xyz
 O   -1.144386   -2.633462    1.322662
 C   -4.366462    2.464547   -0.421615
 C   -3.949219    2.179472    0.876972
 C   -4.415759    1.447083   -1.369062
 C   -3.581766    0.884100    1.223468
 C   -4.049035    0.149399   -1.018817
 C    4.706170    0.407463    0.459442
 C    4.150072   -0.103733   -0.844284
 C   -3.176844   -1.538861    0.652173
 N    2.412126   -1.845969   -0.755434
 N    1.077997   -2.073516   -0.604297
 N   -0.957932   -0.923146   -0.191973
 S    5.357957    1.865949    0.698438
 S    1.392619    0.466364   -0.370404
 C   -1.662745   -1.770157    0.658488
 C   -3.628827   -0.147762    0.280421
 C    2.739873   -0.592952   -0.687715
 C    0.409911   -0.982573   -0.395972
 H   -4.653881    3.475926   -0.691985
 H   -3.910688    2.968528    1.621864
 H   -4.744202    1.659742   -2.381919
 H   -3.253993    0.666073    2.236998
 H   -4.093836   -0.644087   -1.761169
 H    4.640240   -0.308601    1.283733
 H    4.738885   -0.974950   -1.158233
 H    4.224421    0.667637   -1.615889
 H   -3.522169   -1.818306    1.650874
 H   -3.594632   -2.276823   -0.043211
 H   -1.461836   -0.142190   -0.589964
