14 
3vp2_ligand_xtb.xyz
 S    3.344363   -0.646612   -0.302689
 N   -0.896844    1.552141   -0.097758
 N   -3.387173   -0.851757   -0.431300
 N   -2.112214    1.105781   -0.383592
 C    1.331654    0.916912    0.716312
 C   -2.266921   -0.156284   -0.157005
 C    2.195517    0.477294   -0.418694
 C   -0.092772    0.672875    0.362867
 S   -0.816353   -0.939014    0.483787
 H   -4.207848   -0.310510   -0.645914
 H   -3.518174   -1.751393   -0.003471
 H    1.454581    1.993598    0.867085
 H    1.602095    0.378389    1.626085
 H    1.989908    0.951998   -1.373679
