14 
3vp2_ligand_dft.xyz
 S    3.452588   -0.620836   -0.235409
 N   -0.944934    1.573936   -0.088022
 N   -3.472729   -0.873011   -0.260348
 N   -2.195057    1.097880   -0.359262
 C    1.325915    0.945342    0.632908
 C   -2.297025   -0.181716   -0.137029
 C    2.226746    0.409458   -0.449203
 C   -0.116930    0.671736    0.323521
 S   -0.825525   -0.931394    0.435659
 H   -4.191817   -0.342220   -0.734413
 H   -3.413647   -1.836655   -0.554135
 H    1.427358    2.037560    0.662041
 H    1.617187    0.538484    1.605112
 H    1.984727    0.777950   -1.450366
