18 
3vp3_ligand_ani.xyz
 C   -2.904981    0.546637    1.170975
 C   -2.853584    0.188044   -0.311472
 C   -1.732129   -0.801614   -0.641213
 C   -0.361792   -0.229424   -0.409957
 S    0.985179   -1.184452    0.191010
 N   -0.043857    0.996066   -0.652842
 N    1.269620    1.294563   -0.402113
 C    1.927738    0.272646    0.049042
 N    3.273700    0.303679    0.332452
 H   -3.006192   -0.353371    1.789764
 H   -1.990731    1.064321    1.481726
 H   -3.755673    1.200957    1.388762
 H   -2.716840    1.094227   -0.911930
 H   -3.806512   -0.259593   -0.618270
 H   -1.799935   -1.107706   -1.695385
 H   -1.841614   -1.715108   -0.047257
 H    3.578126   -0.241495    1.126614
 H    3.628760    1.251119    0.343086
