18 
3vp3_ligand_dft.xyz
 C   -4.114823   -0.004122    0.009968
 C   -2.686305    0.535679    0.003982
 C   -1.655977   -0.595250    0.000560
 C   -0.240897   -0.099094   -0.006836
 S    1.136497   -1.199151   -0.011721
 N    0.105300    1.143587   -0.008951
 N    1.459050    1.351484    0.005771
 C    2.130270    0.239120    0.003941
 N    3.501758    0.185009   -0.064141
 H   -4.310714   -0.622075   -0.874119
 H   -4.303816   -0.621042    0.896312
 H   -4.841495    0.814150    0.012276
 H   -2.516733    1.173160    0.877651
 H   -2.523720    1.171910   -0.871878
 H   -1.814065   -1.239264   -0.875059
 H   -1.804891   -1.236731    0.879783
 H    3.948720   -0.561918    0.447640
 H    3.926400    1.089668    0.096494
