37 
3vqu_ligand_ani.xyz
 O    6.279411   -0.189491    0.824302
 C    5.441942    0.358960    0.129324
 N    5.722382    1.500730   -0.579883
 C    4.042645   -0.155492    0.015989
 C    2.961146    0.648025   -0.342852
 C    1.673538    0.137377   -0.421897
 C    3.809284   -1.496733    0.319454
 C    2.535418   -2.025610    0.228566
 C    1.449200   -1.214722   -0.133662
 N    0.193021   -1.830212   -0.216395
 C   -1.072466   -1.285010   -0.140036
 C   -2.174772   -2.147486   -0.136480
 C   -3.464099   -1.612393   -0.047333
 N   -4.573181   -2.411717    0.003712
 C   -3.592851   -0.204420    0.036000
 C   -4.885933    0.401692    0.127866
 N   -5.969252    0.811361    0.193303
 N   -1.193282    0.044628   -0.070473
 C   -2.409754    0.541957    0.014910
 O   -2.545456    1.870485    0.089948
 C   -1.353032    2.658871    0.045228
 C   -1.791029    4.092260    0.238743
 H    6.699858    1.754015   -0.599150
 H    5.185860    1.726296   -1.403495
 H    3.114363    1.707502   -0.534582
 H    0.846357    0.777934   -0.704606
 H    4.648613   -2.112440    0.628551
 H    2.371779   -3.077399    0.455683
 H    0.217274   -2.838270   -0.189330
 H   -2.038509   -3.224658   -0.193747
 H   -4.487257   -3.362181   -0.318239
 H   -5.471249   -1.975306   -0.141247
 H   -0.857467    2.511163   -0.922439
 H   -0.668513    2.324600    0.832799
 H   -2.481983    4.385610   -0.556179
 H   -2.297335    4.205778    1.201031
 H   -0.926658    4.762202    0.216181
