73 
3vru_ligand_ani.xyz
 O   -7.846157   -0.694023    0.798251
 C   -7.120450   -0.393025   -0.397594
 C   -7.946755    0.561714   -1.258855
 C   -6.958199   -1.739962   -1.092326
 C   -5.760184    0.211879   -0.001710
 C   -4.790210    0.474778   -1.155867
 C   -3.414604    1.049325   -0.741215
 C   -3.588407    2.404886   -0.046838
 C   -2.588525    0.050033    0.086566
 C   -2.392894   -1.311930   -0.638848
 C   -0.999547   -1.848733   -0.231424
 C   -0.575231   -0.916943    0.905438
 C   -1.154637    0.466008    0.510124
 C   -0.382344    1.075812   -0.666980
 C   -1.060966    1.357701    1.755840
 C    0.372610    1.442518    2.308235
 C    1.003014    0.062018    2.552331
 C    0.858622   -0.837507    1.344918
 C    1.862185   -1.465859    0.722094
 C    3.300457   -1.570720    1.143991
 C    4.289008   -1.026554    0.098067
 C    4.248190    0.505115   -0.007515
 C    5.718046   -1.487074    0.424533
 C    6.745438   -0.951468   -0.568803
 O    6.454322   -1.544714   -1.833229
 C    6.636886    0.551935   -0.652381
 C    7.658246    1.364081   -0.404725
 C    5.252760    1.028600   -1.028584
 O    5.148008    2.437320   -1.084622
 H   -7.995295    0.141453    1.261114
 H   -8.085197    1.525862   -0.751660
 H   -7.466407    0.753754   -2.223347
 H   -8.934749    0.129762   -1.448370
 H   -7.942285   -2.196344   -1.232687
 H   -6.352631   -2.413803   -0.475690
 H   -6.479341   -1.642690   -2.072263
 H   -5.958325    1.149737    0.539060
 H   -5.310149   -0.474546    0.728221
 H   -5.248955    1.187021   -1.855097
 H   -4.636784   -0.450223   -1.726630
 H   -2.869653    1.217340   -1.682077
 H   -4.357116    3.002978   -0.550209
 H   -3.898672    2.280830    0.997999
 H   -2.669070    2.997508   -0.054334
 H   -3.125991   -0.137435    1.030685
 H   -2.451311   -1.183404   -1.726217
 H   -3.196828   -2.006688   -0.364805
 H   -0.303465   -1.776218   -1.074669
 H   -1.020830   -2.897729    0.080470
 H   -1.149512   -1.213732    1.797993
 H    0.686784    1.145219   -0.451901
 H   -0.487407    0.480630   -1.580783
 H   -0.738046    2.087265   -0.889219
 H   -1.424075    2.369530    1.547076
 H   -1.717825    0.939862    2.533809
 H    1.003666    2.003660    1.606238
 H    0.372116    2.018576    3.241135
 H    2.049883    0.177032    2.847417
 H    0.488930   -0.416275    3.399281
 H    1.644862   -1.987399   -0.209748
 H    3.481639   -1.080000    2.109341
 H    3.530405   -2.634747    1.296468
 H    4.014753   -1.451913   -0.880161
 H    3.245198    0.855543   -0.281781
 H    4.480593    0.950093    0.970645
 H    5.771016   -2.583159    0.433078
 H    5.986384   -1.137718    1.431598
 H    7.760141   -1.230898   -0.244428
 H    7.067378   -1.158680   -2.472993
 H    7.545002    2.442795   -0.457462
 H    8.637912    0.978543   -0.131325
 H    5.002159    0.584782   -2.005715
 H    5.726654    2.725401   -1.802091
