79 
3vrv_ligand_ani.xyz
 C    5.636191    2.936569   -0.882928
 C    6.605590    1.779612   -0.656361
 C    6.314007    0.936764    0.592944
 C    7.419361   -0.129331    0.741900
 C    7.236284   -1.124858    1.888617
 O    6.406147    1.853071    1.689571
 C    4.893263    0.330721    0.595541
 C    4.601331   -0.660131   -0.535406
 C    3.268733   -1.437651   -0.415581
 C    3.286029   -2.322340    0.838342
 C    2.035980   -0.521035   -0.494663
 C    2.009389    0.337350   -1.791285
 C    0.520623    0.529114   -2.176872
 C   -0.244946   -0.006827   -0.967646
 C    0.627618   -1.182898   -0.456936
 C    0.571979   -2.387808   -1.407666
 C    0.103709   -1.565620    0.933535
 C   -1.396978   -1.902291    0.905686
 C   -2.243203   -0.796162    0.264720
 C   -1.730032   -0.340532   -1.114637
 C   -2.544698    0.855486   -1.657568
 C   -3.994570    0.515513   -1.866846
 C   -5.041661    0.874572   -1.116010
 C   -5.017492    1.852860    0.022703
 C   -6.367309    0.166540   -1.248410
 C   -6.677748   -0.585163    0.047796
 O   -5.707013   -1.630367    0.158875
 C   -6.596073    0.351279    1.229217
 C   -7.583244    0.465258    2.110491
 C   -5.299313    1.115436    1.342561
 O   -5.371336    2.005675    2.440236
 H    4.626553    2.574833   -1.110755
 H    5.960244    3.554344   -1.726803
 H    5.576271    3.566569    0.008733
 H    6.625917    1.126057   -1.538525
 H    7.622014    2.175288   -0.541107
 H    7.509937   -0.681425   -0.201879
 H    8.365487    0.409860    0.878065
 H    7.144639   -0.622387    2.860195
 H    6.342798   -1.742098    1.747560
 H    8.095191   -1.799561    1.952862
 H    6.282432    1.338781    2.497984
 H    4.170863    1.156818    0.574959
 H    4.746654   -0.156741    1.569284
 H    5.408372   -1.404694   -0.575081
 H    4.640160   -0.131497   -1.497420
 H    3.237365   -2.100153   -1.293461
 H    4.268595   -2.792260    0.967401
 H    2.555698   -3.134736    0.787734
 H    3.079159   -1.740951    1.745379
 H    2.065093    0.159167    0.372699
 H    2.514780    1.296866   -1.629449
 H    2.554183   -0.164806   -2.599954
 H    0.275383    1.574909   -2.394710
 H    0.274505   -0.049186   -3.076359
 H   -0.184313    0.769319   -0.182252
 H   -0.446427   -2.763443   -1.536055
 H    0.957305   -2.150460   -2.405917
 H    1.169291   -3.219356   -1.017904
 H    0.266898   -0.718614    1.616350
 H    0.655376   -2.415629    1.347719
 H   -1.752702   -2.086292    1.926804
 H   -1.555278   -2.843346    0.362260
 H   -2.229110    0.082676    0.931673
 H   -3.288949   -1.122036    0.193098
 H   -1.854500   -1.163405   -1.836118
 H   -2.122618    1.168113   -2.621190
 H   -2.435957    1.708457   -0.974352
 H   -4.191203   -0.173273   -2.692621
 H   -4.061034    2.386739    0.089284
 H   -5.802489    2.608180   -0.110303
 H   -7.165452    0.899626   -1.420046
 H   -6.357930   -0.537818   -2.087588
 H   -7.687038   -1.020826   -0.004387
 H   -5.817883   -2.033525    1.030834
 H   -7.496808    1.130359    2.963240
 H   -8.503039   -0.104657    1.998794
 H   -4.490679    0.381665    1.497917
 H   -4.527054    2.470951    2.492542
