91 
3vrw_ligand_xtb.xyz
 C    4.945370    1.329662   -1.194143
 C    5.556545    1.870827    0.114325
 O    4.932746    1.309308    1.252914
 C    7.018993    1.513912    0.149051
 C    7.980478    2.420660    0.174154
 C    7.252287    0.026500    0.078375
 O    8.608785   -0.348884    0.124747
 C    6.659896   -0.488065   -1.245701
 C    5.199274   -0.146409   -1.310662
 C    4.272098   -1.090295   -1.417539
 C    2.784351   -0.935308   -1.459546
 C    2.116016   -1.914744   -0.481932
 C    2.714749   -1.789146    0.929768
 C    1.736833   -2.290771    1.986391
 C    0.486761   -1.403730    2.076110
 C    0.018589   -0.884029    0.701548
 C    0.441633    0.575681    0.522356
 C    0.583588   -1.813760   -0.394611
 C   -0.189966   -1.422216   -1.650783
 C   -1.587828   -1.059261   -1.122082
 C   -1.502980   -1.045318    0.421671
 C   -2.461366   -0.017157    1.050870
 C   -2.342991    0.006420    2.575733
 C   -3.926058   -0.263109    0.607337
 C   -4.827084    0.957926    0.859298
 C   -4.591499    2.227179    0.008534
 C   -4.530392    1.944641   -1.500158
 C   -5.770299    1.292498   -2.095213
 O   -3.335289    2.822507    0.310861
 C   -5.715532    3.227913    0.366782
 C   -5.592928    4.570605   -0.345910
 C   -4.546315   -1.496580    1.284773
 C   -5.719605   -2.115671    0.520643
 C   -5.305157   -2.822425   -0.768593
 C   -6.490651   -3.506551   -1.438797
 H    3.880199    1.564157   -1.221336
 H    5.425848    1.847839   -2.028356
 H    5.445229    2.967944    0.137706
 H    3.983047    1.454872    1.181157
 H    9.020872    2.143725    0.146997
 H    7.765532    3.475037    0.207860
 H    6.698281   -0.440664    0.909901
 H    8.988176   -0.012291    0.943155
 H    7.207797   -0.011487   -2.062606
 H    6.820767   -1.563925   -1.307245
 H    4.604126   -2.118425   -1.498748
 H    2.489006    0.086874   -1.236854
 H    2.445015   -1.168569   -2.473434
 H    2.343353   -2.922505   -0.852195
 H    2.974912   -0.752534    1.145186
 H    3.642352   -2.361288    0.985087
 H    1.454758   -3.318585    1.748016
 H    2.227574   -2.309162    2.961612
 H   -0.307372   -1.978235    2.554636
 H    0.712217   -0.556836    2.726211
 H    1.517082    0.680145    0.624796
 H    0.142528    0.958399   -0.448626
 H   -0.020604    1.199309    1.283583
 H    0.231440   -2.815538   -0.121673
 H   -0.224017   -2.239781   -2.371252
 H    0.264223   -0.565284   -2.144947
 H   -1.884363   -0.076664   -1.489535
 H   -2.328875   -1.782205   -1.460832
 H   -1.781379   -2.039242    0.787736
 H   -2.188763    0.967682    0.665906
 H   -3.100220    0.652177    3.013793
 H   -1.373762    0.383716    2.884938
 H   -2.468262   -0.988257    2.995045
 H   -3.914805   -0.447726   -0.465077
 H   -4.751248    1.249029    1.910908
 H   -5.861556    0.654109    0.697121
 H   -4.336364    2.893358   -2.001048
 H   -3.659679    1.314217   -1.681378
 H   -5.619009    1.130764   -3.160402
 H   -6.646040    1.924453   -1.972795
 H   -5.970794    0.330101   -1.633027
 H   -3.331228    3.060887    1.244899
 H   -6.684918    2.779482    0.149202
 H   -5.672888    3.399044    1.447498
 H   -5.863574    4.484855   -1.394707
 H   -6.253914    5.300796    0.115852
 H   -4.570687    4.936592   -0.280908
 H   -3.784341   -2.268286    1.400435
 H   -4.888912   -1.221022    2.284492
 H   -6.465070   -1.352359    0.286844
 H   -6.204395   -2.847483    1.172346
 H   -4.538881   -3.566925   -0.540063
 H   -4.871894   -2.103863   -1.466652
 H   -6.926217   -4.252479   -0.777223
 H   -6.179833   -4.001447   -2.356069
 H   -7.261265   -2.779202   -1.686391
