91 
3vrw_ligand_ani.xyz
 C    5.089204    1.389601   -1.050030
 C    5.834066    1.770848    0.239170
 O    5.330947    1.026307    1.348032
 C    7.287742    1.406031    0.090625
 C    8.271646    2.295175    0.155162
 C    7.504246   -0.066567   -0.178345
 O    8.864464   -0.405676   -0.377623
 C    6.733953   -0.467965   -1.439241
 C    5.285621   -0.077852   -1.321262
 C    4.311983   -0.996403   -1.321627
 C    2.825410   -0.791442   -1.225182
 C    2.139255   -1.780718   -0.255573
 C    2.648050   -1.656943    1.202154
 C    1.620600   -2.170150    2.212192
 C    0.333166   -1.323864    2.214185
 C   -0.075315   -0.826145    0.811048
 C    0.304650    0.651680    0.638061
 C    0.596908   -1.735566   -0.254210
 C   -0.137523   -1.404440   -1.552158
 C   -1.591631   -1.124265   -1.103037
 C   -1.578741   -1.054367    0.450582
 C   -2.604895   -0.062436    1.034132
 C   -2.552873   -0.011948    2.568361
 C   -4.054157   -0.330398    0.523706
 C   -5.001998    0.870414    0.761494
 C   -4.705425    2.217873    0.058595
 C   -4.357790    2.060637   -1.429326
 C   -5.453644    1.458296   -2.308251
 O   -3.550192    2.851734    0.622614
 C   -5.921588    3.140737    0.275231
 C   -5.785265    4.526528   -0.350874
 C   -4.663679   -1.615260    1.128147
 C   -5.844564   -2.208981    0.349231
 C   -5.472344   -2.807371   -1.010109
 C   -6.664840   -3.439503   -1.723247
 H    4.028670    1.651467   -0.962966
 H    5.504889    1.982237   -1.873889
 H    5.743309    2.850228    0.435957
 H    4.366080    1.012893    1.281247
 H    9.305903    1.997482    0.008855
 H    8.075298    3.346590    0.352915
 H    7.083006   -0.624254    0.670801
 H    9.299353   -0.339720    0.481972
 H    7.199952    0.051682   -2.286640
 H    6.853485   -1.545445   -1.609382
 H    4.611375   -2.042599   -1.419402
 H    2.577380    0.242929   -0.957580
 H    2.409735   -0.954753   -2.228161
 H    2.407859   -2.786129   -0.616036
 H    2.891990   -0.609336    1.433244
 H    3.590598   -2.207904    1.315540
 H    1.378652   -3.215768    1.982740
 H    2.055839   -2.175105    3.217969
 H   -0.475738   -1.906959    2.672992
 H    0.491551   -0.455047    2.866481
 H    1.373108    0.820037    0.804566
 H    0.059611    1.038210   -0.358135
 H   -0.221160    1.276321    1.368765
 H    0.272899   -2.750095    0.028902
 H   -0.063059   -2.214122   -2.287261
 H    0.279855   -0.507030   -2.021833
 H   -1.946531   -0.179624   -1.537178
 H   -2.282363   -1.903165   -1.447733
 H   -1.820384   -2.059478    0.833097
 H   -2.342983    0.932648    0.655622
 H   -3.318381    0.656553    2.980489
 H   -1.594424    0.363053    2.940726
 H   -2.714334   -1.002221    3.012459
 H   -4.008591   -0.480737   -0.562866
 H   -5.066201    1.073703    1.840734
 H   -6.014345    0.564620    0.470626
 H   -4.080206    3.050717   -1.807661
 H   -3.444981    1.457444   -1.504418
 H   -5.117928    1.377598   -3.347306
 H   -6.358488    2.074896   -2.298173
 H   -5.735994    0.453699   -1.974545
 H   -3.745900    3.029724    1.552525
 H   -6.822535    2.643335   -0.103843
 H   -6.068395    3.243331    1.361197
 H   -5.783610    4.472056   -1.445225
 H   -6.616818    5.173590   -0.055053
 H   -4.850795    5.001286   -0.036599
 H   -3.885747   -2.389222    1.198016
 H   -4.980897   -1.417352    2.162038
 H   -6.633176   -1.455653    0.210640
 H   -6.296604   -3.001987    0.960534
 H   -4.688522   -3.564323   -0.866324
 H   -5.035748   -2.034016   -1.656669
 H   -7.103201   -4.244205   -1.121689
 H   -6.373904   -3.863844   -2.689774
 H   -7.451568   -2.698564   -1.907120
