88 
3vtb_ligand_xtb.xyz
 C   -5.035894   -0.937468   -0.492722
 C   -6.003878   -2.123286   -0.518687
 C   -5.320146   -3.364368    0.052198
 C   -4.085977   -3.703448   -0.782294
 C   -3.114676   -2.524544   -0.747990
 C   -3.798394   -1.286219   -1.326277
 C   -4.609231   -0.675482    0.954042
 C   -4.899402   -3.094993    1.496471
 C   -2.692355   -2.252170    0.693891
 C   -3.927179   -1.916619    1.527860
 C   -5.748416    0.321907   -1.060201
 C   -4.861517    1.478527   -1.015804
 O   -6.257493    0.117920   -2.365286
 C   -4.120110    2.419812   -1.079015
 C   -3.205349    3.543178   -1.093108
 C   -2.141930    3.444183    0.021681
 C   -2.839322    3.588898    1.372486
 C   -1.362312    2.128348   -0.120279
 C   -0.216534    1.832955    0.876537
 C    0.542751    0.723535    0.104981
 C    0.652960    1.283997   -1.307253
 C   -0.684974    2.014845   -1.509386
 C   -0.648079    1.239610    2.220499
 C    0.553856    0.702972    2.999841
 C    1.381405   -0.296680    2.183784
 C    1.764553    0.280614    0.849820
 C    0.673291    3.060095    1.086157
 C    3.008125    0.396744    0.368343
 C    4.227708    0.004429    1.028717
 C    5.467635    0.099996    0.533963
 C    5.834638    0.592722   -0.832251
 C    6.546616   -0.532160   -1.605872
 C    7.761887   -0.948545   -0.817735
 C    7.417375   -1.456301    0.561093
 C    6.657700   -0.359124    1.325966
 C    9.006691   -0.843636   -1.253227
 O    6.582321   -2.599731    0.516021
 O    6.828640   -0.057869   -2.901848
 H   -6.891779   -1.884377    0.071929
 H   -6.329482   -2.307245   -1.544644
 H   -6.020932   -4.206637    0.026763
 H   -3.600466   -4.597265   -0.383491
 H   -4.379949   -3.914361   -1.813238
 H   -2.228758   -2.761341   -1.349193
 H   -4.088897   -1.490405   -2.360712
 H   -3.104498   -0.441284   -1.329418
 H   -5.485415   -0.421650    1.556251
 H   -3.926344    0.177026    0.989277
 H   -5.778302   -2.867686    2.104203
 H   -4.421665   -3.982724    1.917613
 H   -2.188875   -3.129214    1.107493
 H   -1.986779   -1.418066    0.720944
 H   -3.626829   -1.717103    2.563367
 H   -6.635311    0.526343   -0.445684
 H   -5.514731    0.092298   -2.978367
 H   -2.726403    3.587131   -2.074175
 H   -3.778135    4.465950   -0.960995
 H   -1.455296    4.287068   -0.108837
 H   -2.122302    3.728770    2.175271
 H   -3.443429    2.710073    1.585929
 H   -3.496826    4.456522    1.361587
 H   -2.092045    1.316907   -0.021739
 H   -0.133347   -0.141373    0.057850
 H    1.482744    1.985404   -1.381140
 H    0.808409    0.497891   -2.045396
 H   -0.511227    3.004551   -1.933383
 H   -1.327942    1.469091   -2.200305
 H   -1.156051    1.982003    2.835527
 H   -1.353480    0.423272    2.043405
 H    1.193959    1.533575    3.301273
 H    0.199973    0.214815    3.911130
 H    2.254909   -0.594413    2.761191
 H    0.777550   -1.193647    2.010300
 H    1.652963    2.763639    1.452542
 H    0.225445    3.738682    1.808661
 H    0.817416    3.601532    0.156251
 H    3.124605    0.817286   -0.619259
 H    4.127471   -0.398972    2.026963
 H    6.526601    1.436535   -0.761177
 H    4.971653    0.909787   -1.412858
 H    5.857666   -1.393703   -1.658841
 H    8.345561   -1.699386    1.104828
 H    7.347049    0.473888    1.489585
 H    6.349969   -0.760037    2.291667
 H    9.845555   -1.137519   -0.644618
 H    9.239708   -0.436412   -2.222813
 H    7.038534   -3.299028    0.036494
 H    7.300913   -0.742700   -3.386488
