91 
3vtc_ligand_dft.xyz
 C   -5.423937   -0.753459   -0.416877
 C   -6.405570   -1.889528   -0.049906
 C   -5.660874   -3.201462    0.231679
 C   -4.875253   -3.612834   -1.023017
 C   -3.870680   -2.507505   -1.382608
 C   -4.617728   -1.192252   -1.657400
 C   -4.441063   -0.576064    0.758998
 C   -4.687980   -2.994566    1.401601
 C   -2.898571   -2.296836   -0.210910
 C   -3.688200   -1.885511    1.042205
 C   -6.256731    0.512568   -0.692006
 C   -5.607314    1.685566   -1.445442
 C   -4.523733    2.363207   -0.712469
 C   -3.681020    3.005126   -0.131530
 C   -2.624236    3.774624    0.530774
 C   -1.614778    2.912437    1.328420
 C   -0.959777    1.862163    0.417091
 C   -2.294152    2.320803    2.565989
 O   -6.606546    2.623406   -1.827796
 C    0.163588    0.961370    0.997783
 C    0.747129    0.386968   -0.328100
 C    0.894679    1.607616   -1.232748
 C   -0.314036    2.494357   -0.850101
 C   -0.300207   -0.227232    1.853757
 C    0.816932   -1.255249    2.078602
 C    1.470795   -1.721635    0.766140
 C    1.899301   -0.548718   -0.085435
 C    1.208174    1.797525    1.753457
 C    3.139607   -0.322113   -0.548279
 C    4.318847   -1.144673   -0.312457
 C    5.564119   -0.904983   -0.753341
 C    5.989299    0.277156   -1.587414
 C    7.131086    1.048311   -0.913772
 C    8.261834    0.122958   -0.521169
 C    7.834170   -1.046943    0.329066
 C    6.710312   -1.816617   -0.395432
 C    9.516781    0.321827   -0.914928
 O    8.948891   -1.872887    0.590658
 O    6.570222    1.682698    0.229378
 H   -6.992702   -1.592386    0.830702
 H   -7.118701   -2.037071   -0.872855
 H   -6.386040   -3.983433    0.487082
 H   -5.565879   -3.781110   -1.859966
 H   -4.347274   -4.558933   -0.845408
 H   -3.308959   -2.796889   -2.278977
 H   -5.292614   -1.311385   -2.517030
 H   -3.887471   -0.416041   -1.922868
 H   -3.726461    0.219937    0.526554
 H   -4.992913   -0.257232    1.654739
 H   -4.154376   -3.929304    1.618812
 H   -5.242535   -2.720567    2.308861
 H   -2.168639   -1.518026   -0.471602
 H   -2.332831   -3.217892   -0.016787
 H   -2.998836   -1.730060    1.880895
 H   -7.120055    0.233836   -1.309606
 H   -6.659121    0.890789    0.259157
 H   -5.209198    1.316643   -2.395962
 H   -3.082697    4.501588    1.213114
 H   -2.094389    4.360753   -0.229090
 H   -0.835445    3.610188    1.665303
 H   -1.759226    1.184950    0.082872
 H   -2.989775    1.520035    2.292182
 H   -1.563785    1.912382    3.268699
 H   -2.863823    3.090920    3.098595
 H   -6.905724    3.060906   -1.020372
 H   -0.065675   -0.227547   -0.753472
 H    0.905605    1.336078   -2.292403
 H    1.833027    2.133832   -1.027113
 H    0.016466    3.519299   -0.642497
 H   -1.047292    2.559785   -1.659597
 H   -1.138425   -0.715994    1.341730
 H   -0.679272    0.102787    2.825980
 H    0.408952   -2.123679    2.608898
 H    1.589003   -0.827705    2.729718
 H    2.297495   -2.400799    0.988914
 H    0.729647   -2.304080    0.197750
 H    0.827939    2.089699    2.739106
 H    2.140041    1.244203    1.900965
 H    1.464372    2.716543    1.215923
 H    3.288168    0.570519   -1.149118
 H    4.177544   -2.042344    0.286794
 H    6.358097   -0.079017   -2.559576
 H    5.172259    0.975270   -1.780020
 H    7.512957    1.802706   -1.618507
 H    7.418093   -0.647011    1.267656
 H    6.364944   -2.643143    0.238290
 H    7.156376   -2.254351   -1.299925
 H    9.779329    1.169525   -1.543778
 H   10.311253   -0.357444   -0.626360
 H    8.658245   -2.571005    1.188210
 H    7.294893    2.117135    0.696142
