116 
3vtr_ligand_dft.xyz
 O   -6.985254    3.323540    1.414826
 C   -8.193020    3.113480    1.314523
 C   -9.185851    4.234662    1.536473
 N   -8.745889    1.911062    1.016623
 C   -8.112537    0.606429    0.851166
 C   -6.708501    0.634147    0.205196
 O   -5.732543    1.017921    1.136760
 C   -6.330254   -0.774358   -0.260407
 C   -7.450303   -1.474914   -1.022002
 C   -7.073605   -2.896352   -1.419733
 O   -6.426147   -3.612416   -0.381730
 O   -8.603069   -1.520099   -0.196088
 C   -9.112487   -0.231104    0.029991
 O  -10.343223   -0.326681    0.664027
 O   -5.218002   -0.802031   -1.133875
 C   -3.982575   -0.486856   -0.587773
 O   -3.666958    0.829284   -0.948136
 C   -2.556535    1.303282   -0.225879
 C   -2.455521    2.787052   -0.585561
 O   -1.364454    3.459256    0.021500
 C   -1.320929    0.489020   -0.611692
 C   -1.531497   -1.036386   -0.653902
 O   -0.517159   -1.533600   -1.490147
 C   -2.933513   -1.441277   -1.159955
 N   -3.341815   -2.790852   -0.770161
 C   -2.596334   -3.919560   -0.739992
 C   -3.353179   -5.185203   -0.399868
 O   -1.380847   -3.964406   -0.948362
 O   -0.316237    0.834832    0.335994
 C    0.969505    0.447365    0.018880
 O    1.261364   -0.775958    0.655007
 C    2.437086   -1.330514    0.109293
 C    2.553432   -2.762848    0.615511
 O    3.020000   -2.856587    1.949371
 C    3.603707   -0.436447    0.530488
 C    3.394976    1.052601    0.203881
 O    4.314399    1.768478    0.992857
 C    1.953743    1.502780    0.516838
 N    1.563146    2.769319   -0.096764
 C    2.325904    3.820685   -0.466569
 C    1.565110    4.986662   -1.058691
 O    3.559028    3.869773   -0.377169
 O    4.770320   -0.998036   -0.089383
 C    5.952055   -0.324190    0.142879
 C    7.194200   -1.254529    0.059380
 N    7.056418   -2.504693    0.954733
 C    6.233504   -3.522102    0.215217
 C    8.377640   -3.154057    1.256116
 C    6.384469   -2.195581    2.261777
 C    8.409473   -0.365137    0.377389
 O    9.621861   -1.046544    0.169005
 C    8.419920    0.885479   -0.518456
 O    9.506394    1.638371   -0.043327
 C    7.079667    1.611944   -0.492816
 O    6.103665    0.650402   -0.847458
 C    6.972194    2.733482   -1.513021
 O    8.069718    3.602721   -1.278665
 H   -8.772019    5.152123    1.114957
 H   -9.309678    4.388601    2.613199
 H  -10.166638    4.041726    1.094470
 H   -9.755512    1.853296    1.055778
 H   -7.991843    0.116762    1.829929
 H   -6.719916    1.299647   -0.671478
 H   -5.944287    1.950435    1.356302
 H   -6.107373   -1.365415    0.638306
 H   -7.677212   -0.914939   -1.943697
 H   -7.975354   -3.418763   -1.761577
 H   -6.359391   -2.854402   -2.243107
 H   -7.052054   -3.720888    0.345354
 H   -9.310100    0.270130   -0.928894
 H  -10.221530   -0.845151    1.472183
 H   -4.016189   -0.573523    0.508756
 H   -2.735175    1.194733    0.857447
 H   -2.309999    2.884288   -1.664365
 H   -3.408452    3.264707   -0.327135
 H   -1.475143    3.412437    0.979473
 H   -1.000262    0.795107   -1.618026
 H   -1.420032   -1.404522    0.377304
 H   -0.602393   -2.509972   -1.425932
 H   -2.943963   -1.336886   -2.252121
 H   -4.342505   -2.913493   -0.646355
 H   -2.956471   -5.586378    0.537308
 H   -3.150716   -5.923889   -1.179705
 H   -4.431253   -5.037857   -0.308133
 H    1.073281    0.320713   -1.069053
 H    2.359843   -1.362818   -0.988594
 H    1.571388   -3.236577    0.493070
 H    3.265516   -3.317193    0.001329
 H    2.330170   -2.495348    2.520940
 H    3.714186   -0.511452    1.619926
 H    3.588908    1.196767   -0.867921
 H    4.261930    2.684877    0.637521
 H    1.853873    1.568214    1.608009
 H    0.551490    2.900600   -0.140320
 H    1.934975    5.907305   -0.601788
 H    1.787343    5.040124   -2.128970
 H    0.484336    4.912200   -0.920535
 H    5.922413    0.166681    1.124981
 H    7.289480   -1.643979   -0.957395
 H    6.827221   -3.905606   -0.615563
 H    5.334048   -3.034690   -0.147284
 H    5.981741   -4.329239    0.904629
 H    8.925252   -3.300817    0.328110
 H    8.961059   -2.515451    1.914208
 H    8.164610   -4.110523    1.736314
 H    6.508091   -3.060862    2.914035
 H    5.319814   -2.029321    2.098795
 H    6.865286   -1.328668    2.716063
 H    8.335005   -0.014295    1.421458
 H   10.300185   -0.352721    0.132329
 H    8.594558    0.539751   -1.551601
 H    9.466264    2.502322   -0.487956
 H    6.879881    2.012228    0.510829
 H    6.009508    3.242365   -1.382152
 H    7.012364    2.300460   -2.522623
 H    7.995881    4.371514   -1.854211
