47 
3vv7_ligand_xtb.xyz
 O    2.155437    1.492105    2.726009
 C    2.062893    1.437218    1.518992
 N    1.540497    2.457895    0.779126
 C    1.084291    3.658282    1.450932
 C    1.440639    2.439214   -0.609006
 N    0.866713    3.421913   -1.170214
 N    1.963998    1.378683   -1.320471
 C    2.454648    0.355461   -0.736298
 C    2.523540    0.214475    0.749373
 C    2.952105   -0.718172   -1.602778
 C    3.751195   -1.889059   -1.092381
 C    2.343697   -2.116329   -1.521628
 C    1.260040   -2.403207   -0.543290
 C    1.441686   -3.317967    0.486832
 C    0.411745   -3.568562    1.378232
 C   -0.797167   -2.910949    1.252407
 C   -0.997478   -1.989671    0.225748
 C    0.039795   -1.750445   -0.668416
 C   -2.280532   -1.283157    0.088196
 C   -3.479522   -1.971499    0.229712
 C   -4.682315   -1.300857    0.086426
 C   -4.701102    0.050467   -0.185504
 C   -3.503467    0.756015   -0.322923
 C   -2.296248    0.082354   -0.189854
 O   -3.628740    2.084669   -0.583857
 C   -2.461726    2.863147   -0.696793
 H    1.295537    3.548540    2.512321
 H    0.016252    3.792066    1.285353
 H    1.604735    4.521561    1.039218
 H    0.854599    3.340556   -2.181137
 H    1.916025   -0.636531    1.077771
 H    3.549610   -0.000218    1.064407
 H    3.158037   -0.361190   -2.604471
 H    4.552072   -2.251766   -1.718866
 H    3.972699   -1.932146   -0.037409
 H    2.188254   -2.593498   -2.483792
 H    2.385025   -3.834656    0.585339
 H    0.557451   -4.277881    2.179470
 H   -1.588890   -3.094563    1.962966
 H   -0.101274   -1.049703   -1.478988
 H   -3.468848   -3.032654    0.427305
 H   -5.613203   -1.838587    0.188214
 H   -5.628259    0.589715   -0.296063
 H   -1.357275    0.607230   -0.280437
 H   -1.829593    2.535394   -1.526893
 H   -1.876160    2.843802    0.227026
 H   -2.799124    3.880353   -0.885508
