49 
3vva_ligand_ani.xyz
 O    0.100543   -2.387371    1.608421
 C    0.868088   -1.631649    0.806790
 C    0.669862   -1.763316   -0.571549
 C   -0.480178   -2.577599   -1.122676
 C   -1.681401   -1.699053   -1.377774
 C   -2.862757   -1.672371   -0.750016
 C   -3.800726   -0.510916   -0.995034
 C   -3.827587    0.520456    0.154546
 C   -2.485431    1.133502    0.432480
 C   -2.117146    2.415343    0.359471
 C   -0.666612    2.809739    0.620069
 O    0.024670    1.907790    1.475138
 O    1.324811   -1.291002    3.608789
 C    1.950481   -0.615644    2.790752
 C    1.809690   -0.723428    1.342307
 C    1.476452   -1.011646   -1.421118
 O    1.281952   -1.175458   -2.752406
 C   -3.332630   -2.702217    0.241705
 C   -3.014007    3.548333   -0.056706
 C    0.133083    2.873897   -0.674988
 C    2.581838    0.084178    0.470460
 C    2.414134   -0.104191   -0.898438
Cl    3.320437    0.852138   -2.063862
 C    3.517691    1.132371    1.018719
 H    0.369039   -2.186262    2.537220
 H   -0.161276   -3.003550   -2.078600
 H   -0.714546   -3.404842   -0.449564
 H   -1.498887   -0.946012   -2.146889
 H   -3.516409   -0.002278   -1.926393
 H   -4.819051   -0.891766   -1.144207
 H   -4.167250    0.009051    1.064482
 H   -4.578935    1.284745   -0.066003
 H   -1.719508    0.411590    0.721612
 H   -0.674690    3.812098    1.079055
 H   -0.441125    1.884105    2.321044
 H    2.672800    0.128203    3.166965
 H    1.887756   -0.598667   -3.239748
 H   -4.255901   -3.182550   -0.104282
 H   -2.590848   -3.487345    0.411465
 H   -3.553440   -2.238372    1.210469
 H   -2.687897    3.983139   -1.010659
 H   -4.055409    3.238435   -0.178062
 H   -2.992614    4.352378    0.688974
 H    1.164314    3.173884   -0.467556
 H   -0.305885    3.593910   -1.373960
 H    0.154324    1.892222   -1.160383
 H    4.212462    0.707085    1.749284
 H    2.943607    1.923070    1.518295
 H    4.109058    1.594973    0.229568
