49 
3vva_ligand_dft.xyz
 O   -0.516717   -1.083817    2.044364
 C    0.542292   -0.865671    1.261612
 C    0.731475   -1.741356    0.185602
 C   -0.310933   -2.791582   -0.128369
 C   -1.502595   -2.107299   -0.751757
 C   -2.714543   -1.923228   -0.219393
 C   -3.713111   -1.024721   -0.911923
 C   -3.885344    0.333481   -0.190018
 C   -2.589119    1.090559   -0.084356
 C   -2.145859    2.036346   -0.918510
 C   -0.776366    2.669821   -0.720023
 O   -0.327925    2.641461    0.625294
 O    0.126785    1.049817    3.314358
 C    1.080267    1.170423    2.543739
 C    1.417096    0.219686    1.498083
 C    1.836444   -1.532538   -0.630425
 O    2.008761   -2.371658   -1.668656
 C   -3.172489   -2.489199    1.098680
 C   -2.885440    2.536389   -2.131393
 C    0.285971    1.953915   -1.547774
 C    2.532172    0.432382    0.652924
 C    2.731620   -0.465589   -0.379312
Cl    4.084184   -0.303107   -1.497722
 C    3.430245    1.626079    0.863528
 H   -0.527484   -0.367794    2.727562
 H    0.113089   -3.526051   -0.818487
 H   -0.582616   -3.315225    0.790960
 H   -1.289205   -1.633400   -1.710539
 H   -3.389876   -0.828928   -1.940919
 H   -4.694262   -1.516450   -0.965684
 H   -4.286004    0.160269    0.816153
 H   -4.644885    0.916144   -0.721726
 H   -1.929848    0.783859    0.726695
 H   -0.836573    3.719081   -1.057737
 H   -1.072618    2.883213    1.190705
 H    1.723451    2.056358    2.644611
 H    2.807120   -2.120169   -2.155770
 H   -4.149461   -2.975164    0.983153
 H   -2.476184   -3.218575    1.514657
 H   -3.290069   -1.695622    1.845859
 H   -2.281142    2.404586   -3.037777
 H   -3.833149    2.019366   -2.293989
 H   -3.093882    3.610584   -2.045928
 H    1.268529    2.408244   -1.385359
 H    0.053855    2.012687   -2.615594
 H    0.326687    0.900630   -1.255475
 H    3.864332    1.626208    1.868059
 H    2.859289    2.552643    0.740962
 H    4.251849    1.642528    0.148513
