45 
3vvy_ligand_xtb.xyz
 C    2.010009    1.960037   -1.125849
 C    3.330561    1.596834   -1.280461
 C    3.817115    0.484427   -0.598736
 C    2.951317   -0.257332    0.197125
 N    0.751584   -0.670088    1.104999
 C   -0.685349   -0.569291    0.950900
 C   -2.450418    1.166153    0.751756
 C   -2.929570    2.410762    0.352491
 C   -2.039493    3.292818   -0.258639
 C   -0.728021    2.930732   -0.474070
 C   -1.134112    0.805530    0.532287
 C   -0.245385    1.673131   -0.105006
 C    1.131759    1.245278   -0.318645
 C    1.604157    0.077186    0.328996
 C   -1.210236   -1.581939   -0.056150
 C   -2.202251   -2.486387    0.296127
 C   -2.682312   -3.400027   -0.626256
 C   -2.170578   -3.419471   -1.911757
 C   -1.178907   -2.521185   -2.269814
 C   -0.702231   -1.606373   -1.349040
 C    1.204333   -1.854500    1.800843
 C    1.871832   -1.501419    3.130505
 N    5.127238    0.068554   -0.772858
 N   -4.231640    2.791262    0.629710
 H    1.653359    2.827689   -1.658695
 H    3.988310    2.170209   -1.916811
 H    3.362026   -1.116910    0.702033
 H   -1.135505   -0.792343    1.929425
 H   -3.122735    0.470414    1.235700
 H   -2.387136    4.271025   -0.560456
 H   -0.068089    3.648908   -0.934370
 H   -2.604162   -2.477476    1.300601
 H   -3.454458   -4.099369   -0.339201
 H   -2.542996   -4.132746   -2.632413
 H   -0.776264   -2.531991   -3.272181
 H    0.070250   -0.906935   -1.631800
 H    0.336834   -2.490625    1.992135
 H    1.888689   -2.436492    1.173362
 H    2.199309   -2.404866    3.639341
 H    1.169093   -0.973433    3.770482
 H    2.730749   -0.856292    2.967652
 H    5.500325   -0.524252   -0.048242
 H    5.768514    0.777327   -1.091951
 H   -4.884147    2.037615    0.777358
 H   -4.595566    3.542667    0.065420
