59 
3vw1_ligand_ani.xyz
 C    0.001704   -0.000182   -1.112803
 C   -0.977757    1.097314   -0.703791
 C   -2.182565    1.228867   -1.396073
 C   -3.142760    2.157415   -1.026778
 C   -2.934774    3.011186    0.075823
 C   -1.713001    2.885412    0.765875
 C   -0.761162    1.956058    0.372596
 C    1.439680    0.301703   -0.697217
 C    2.074127   -0.314745    0.380145
 C    3.354748    0.045385    0.774220
 C    4.073631    1.042692    0.085913
 C    3.437808    1.651315   -1.015342
 C    2.153814    1.283696   -1.385106
 C   -0.458115   -1.397156   -0.701584
 C   -1.339090   -1.638323    0.351439
 C   -1.670981   -2.927436    0.742553
 C   -1.136538   -4.049226    0.078839
 C   -0.261906   -3.803270   -0.999059
 C    0.060079   -2.507547   -1.369973
 C   -5.113959    4.054812   -0.290010
 C   -3.663312    4.748122    1.632534
 C    5.946659    0.799369    1.636952
 C    6.079896    2.383631   -0.300121
 C   -2.390500   -5.547082    1.547098
 C   -0.872843   -6.459328   -0.226692
 N   -3.885388    3.933129    0.460337
 N    5.346133    1.407786    0.472207
 N   -1.456367   -5.333541    0.465815
 H    0.005093   -0.000275   -2.215951
 H   -2.385668    0.581966   -2.249090
 H   -4.061950    2.215066   -1.598645
 H   -1.498358    3.521079    1.616588
 H    0.182526    1.898836    0.915961
 H    1.551610   -1.102602    0.923505
 H    3.799493   -0.461206    1.622421
 H    3.946812    2.419768   -1.585986
 H    1.693858    1.785562   -2.235918
 H   -1.783960   -0.792814    0.876920
 H   -2.355269   -3.058597    1.572387
 H    0.170729   -4.628476   -1.552863
 H    0.744659   -2.361006   -2.205112
 H   -5.724077    4.856190    0.136319
 H   -4.918778    4.300045   -1.342662
 H   -5.702285    3.126944   -0.263915
 H   -4.532894    5.389642    1.801189
 H   -3.515245    4.132474    2.530369
 H   -2.781283    5.392908    1.517760
 H    5.327726    0.949644    2.531696
 H    6.091281   -0.282076    1.505294
 H    6.924378    1.253231    1.822361
 H    6.193902    2.066837   -1.345845
 H    5.582240    3.363249   -0.297871
 H    7.079199    2.509621    0.126080
 H   -2.023469   -5.121069    2.490848
 H   -3.368256   -5.094914    1.331716
 H   -2.538683   -6.620656    1.694562
 H   -1.160862   -6.479613   -1.286893
 H    0.224148   -6.437893   -0.176361
 H   -1.214557   -7.389582    0.236002
