36 
3vws_ligand_ani.xyz
Cl   -3.878979    3.834964    0.041189
 C   -3.458156    2.145793    0.072717
 C   -3.440924    1.470919    1.289076
 C   -3.103483    0.123345    1.313168
 C   -3.149784    1.498123   -1.119142
 C   -2.816103    0.149584   -1.091423
 C   -2.785510   -0.525174    0.124907
 S   -2.307244   -2.231443    0.176377
 O   -2.923583   -2.850463    1.335396
 O   -2.459430   -2.772803   -1.161990
 N   -0.684223   -2.212800    0.561314
 C    0.331031   -1.521765   -0.142940
 C    0.290874   -1.377725   -1.538982
 C    1.300469   -0.712826   -2.220970
 C    1.397985   -1.026163    0.596009
 C    2.413675   -0.358282   -0.083240
 C    3.645644    0.293702    0.311487
 C    4.124853    0.382882    1.712404
 O    3.663279   -0.264138    2.617418
 O    5.139929    1.247058    1.957974
 C    2.347989   -0.212793   -1.463582
 O    3.440584    0.461541   -1.924238
 C    4.222242    0.749828   -0.843017
 C    5.491860    1.472720   -1.181873
 H   -3.691926    1.997340    2.203980
 H   -3.097385   -0.429989    2.247772
 H   -3.174765    2.043984   -2.056363
 H   -2.592143   -0.382709   -2.011239
 H   -0.543262   -2.306562    1.560111
 H   -0.533700   -1.810816   -2.092753
 H    1.271975   -0.595204   -3.298217
 H    1.447441   -1.147867    1.672915
 H    5.347130    1.763902    1.167693
 H    5.402095    2.550493   -1.003023
 H    6.343180    1.099224   -0.603323
 H    5.707269    1.333932   -2.243072
