73 
3w2r_ligand_dft.xyz
 C    2.232549    0.495213    2.891698
 C    3.610951    0.590065    2.789627
 C   -2.118123    0.824716   -0.893351
 C    1.439927    0.250475    1.773710
 C   -0.735076    0.901820   -0.863008
 C   -8.650095   -1.449862    0.212221
 C    3.456080    0.188676    0.409934
 C   -2.004747   -1.537456   -0.403123
 C   -8.564600   -0.491290   -0.756988
 C   -5.547693   -2.906267    1.364462
 C   -7.309610   -1.835893    0.507006
 C   -6.458959   -1.054630   -0.298550
 C    4.230812    0.436389    1.540823
 C   -2.767074   -0.395397   -0.662096
 C    2.072581    0.099079    0.543889
 C    0.031092   -0.228035   -0.599572
 C   -0.618827   -1.440862   -0.370947
 C   -5.065543   -1.223255   -0.127995
 C    6.459060    0.561566    0.396463
 C   11.398486   -0.431955   -1.382965
 C   11.210412    1.009863   -0.901629
 C   10.075018   -1.026745   -1.872342
 C   10.125744    1.105339    0.175775
 C    8.991674   -0.935212   -0.794041
 C    8.804311    0.509903   -0.314312
 C   -6.861767    0.670913   -2.152547
 C   -6.609296    2.097173   -1.672498
 C   -5.878331    3.680697    1.033748
 C   -5.752067    2.242159    0.579326
 N   -6.857694   -2.782222    1.361201
 N   -4.638307   -2.180506    0.684888
 N   -7.253050   -0.236025   -1.086058
 N   -4.166228   -0.399695   -0.770432
 N    5.632246    0.517079    1.507630
 N    7.796937    0.624915    0.732934
 O    6.063817    0.575627   -0.757066
 O   -7.069081    4.217791    0.491348
 O    1.398567   -0.143461   -0.628408
 O   -5.480838    2.146118   -0.813590
Cl    0.321633   -2.868491   -0.040812
 H    1.760531    0.612271    3.862601
 H    4.210548    0.780834    3.676378
 H   -2.707332    1.715073   -1.097583
 H    0.362678    0.174015    1.861932
 H   -0.223589    1.841807   -1.041457
 H   -9.549316   -1.855527    0.650346
 H    3.909883    0.076300   -0.563959
 H   -2.486993   -2.484009   -0.207435
 H   -9.353048    0.039322   -1.274213
 H   -5.129702   -3.676892    2.008143
 H   11.784322   -1.042014   -0.553643
 H   12.150787   -0.469004   -2.179118
 H   10.923630    1.640493   -1.754531
 H   12.154454    1.411509   -0.516479
 H   10.213528   -2.070000   -2.177242
 H    9.739974   -0.480007   -2.764696
 H    9.968106    2.145990    0.479840
 H   10.458603    0.554745    1.069867
 H    9.277683   -1.558447    0.067030
 H    8.035345   -1.312003   -1.169810
 H    8.434056    1.106507   -1.154358
 H   -5.973018    0.270062   -2.647296
 H   -7.664644    0.679671   -2.897020
 H   -7.491470    2.502604   -1.169318
 H   -6.388252    2.733118   -2.536280
 H   -4.993064    4.236318    0.692606
 H   -5.893137    3.697588    2.134734
 H   -6.658798    1.681805    0.838274
 H   -4.903130    1.772950    1.087393
 H   -4.547756    0.513420   -1.005312
 H    6.064115    0.716666    2.397274
 H    8.064105    0.231786    1.625788
 H   -7.095251    5.160860    0.685636
