73 
3w2r_ligand_xtb.xyz
 C    2.330963    0.806482    3.176668
 C    3.667015    0.959357    2.864126
 C   -1.970689    0.431028   -0.097691
 C    1.486912    0.088556    2.349239
 C   -0.619850    0.247455    0.107675
 C   -8.816672   -1.052248   -0.730386
 C    3.345484   -0.340240    0.866435
 C   -2.309240   -1.948451   -0.093414
 C   -8.452989    0.148068   -1.261606
 C   -6.160926   -3.232286    0.347532
 C   -7.614771   -1.699682   -0.354944
 C   -6.549079   -0.812670   -0.664450
 C    4.184347    0.383966    1.702477
 C   -2.835067   -0.662282   -0.196229
 C    2.001654   -0.483480    1.190396
 C   -0.086868   -1.032627    0.223969
 C   -0.954586   -2.121332    0.116867
 C   -5.249459   -1.236833   -0.323365
 C    6.237785    0.245628    0.286155
 C   11.184989    0.174454   -1.866577
 C   10.186509    1.253337   -2.274888
 C   10.452468   -1.090524   -1.429614
 C    9.230957    1.560838   -1.125855
 C    9.496235   -0.786409   -0.280319
 C    8.493128    0.291325   -0.697812
 C   -6.438796    1.441665   -1.837621
 C   -6.212947    2.603499   -0.862354
 C   -4.205716    4.543442    0.452713
 C   -4.825822    3.239773    0.965269
 N   -7.417165   -2.920198    0.164578
 N   -5.091647   -2.468237    0.146225
 N   -7.095540    0.310184   -1.236563
 N   -4.171674   -0.402311   -0.446984
 N    5.541875    0.557597    1.438569
 N    7.557986    0.579478    0.369840
 O    5.747544   -0.248084   -0.703826
 O   -5.225324    5.374586   -0.059889
 O    1.253658   -1.268701    0.356187
 O   -5.092895    2.304327   -0.051306
Cl   -0.310235   -3.715176    0.246256
 H    1.940124    1.247738    4.081507
 H    4.315734    1.521525    3.521229
 H   -2.367818    1.431667   -0.187697
 H    0.446111   -0.042802    2.603936
 H    0.043475    1.097212    0.174689
 H   -9.806661   -1.445634   -0.629338
 H    3.725546   -0.792570   -0.033123
 H   -2.966209   -2.798597   -0.157911
 H   -9.074475    0.917696   -1.680015
 H   -5.953305   -4.223075    0.730384
 H   11.799933    0.541981   -1.041418
 H   11.849356   -0.051633   -2.702653
 H    9.611822    0.907615   -3.136359
 H   10.716732    2.161870   -2.567517
 H   11.172072   -1.850794   -1.119506
 H    9.884294   -1.489673   -2.272027
 H    8.506108    2.318172   -1.429753
 H    9.795932    1.953329   -0.275611
 H   10.064667   -0.434665    0.585608
 H    8.957597   -1.689962    0.011039
 H    7.883423   -0.078879   -1.528137
 H   -5.479130    1.131066   -2.258280
 H   -7.072120    1.801495   -2.653807
 H   -7.101916    2.745328   -0.231927
 H   -6.038607    3.528829   -1.423418
 H   -3.466956    4.308939   -0.326764
 H   -3.691999    5.034551    1.289218
 H   -5.744655    3.479043    1.515359
 H   -4.118712    2.742777    1.633321
 H   -4.399861    0.585044   -0.477763
 H    6.047800    1.043838    2.164787
 H    7.946847    0.914779    1.236335
 H   -4.851671    6.230320   -0.294107
