62 
3w32_ligand_ani.xyz
 C    7.169095   -3.375145   -0.554698
 C    7.580100   -2.227262   -1.226655
 C    1.361491   -0.884309   -0.218252
 C    6.094622   -3.327222    0.323627
 C    2.523364   -1.609189    0.005200
 C    5.819785   -0.964892   -0.145868
 C    1.720197    0.336087    1.829287
 C    0.507805    4.233327    0.366756
 C   -1.694548    2.703120    0.089744
 C    6.904705   -1.030653   -1.013035
 C    0.963301    0.104697    0.681826
 C    5.422514   -2.124097    0.514708
 C    3.280944   -1.382931    1.151542
 C    2.858733   -0.421759    2.069748
 C   -1.703501    4.105978   -0.145872
 C   -0.391964    2.175549    0.372594
 C   -2.830409    1.803437    0.136875
 C   -4.100825    2.003568   -0.307881
 C   -5.162499    0.979239   -0.038260
 C   -4.546453    3.204892   -1.068269
 C   -4.166130    4.515033   -0.384095
 C   -8.155636   -3.721707   -1.912483
 C   -5.677069   -1.354182    0.467586
 C   -6.373176   -1.877023   -0.793617
 C    7.347860    0.197957   -1.756185
 N   -0.593052    4.854808   -0.000756
 N    0.678151    2.930119    0.573263
 N   -2.767886    4.840636   -0.559427
 N   -0.241629    0.806815    0.446905
 N   -4.729428   -0.299575    0.185883
 O   -6.350242    1.272466   -0.021340
 O   -6.669483   -4.315749    0.164987
 O   -8.574476   -2.669161    0.449152
 O    4.395825   -2.126600    1.434273
 F    7.122227    0.081200   -3.079798
 F    6.713646    1.307083   -1.339594
 F    8.670973    0.410254   -1.611353
 S   -7.480148   -3.214522   -0.349282
Cl    3.771398   -0.157976    3.515759
 H    7.694084   -4.312237   -0.713580
 H    8.420938   -2.254156   -1.911895
 H    0.774201   -1.077102   -1.112640
 H    5.757868   -4.203272    0.870014
 H    2.842285   -2.369100   -0.701994
 H    5.290470   -0.030526    0.014730
 H    1.422701    1.106892    2.532957
 H    1.387427    4.859723    0.507501
 H   -2.627617    0.878678    0.672635
 H   -5.636736    3.151585   -1.164851
 H   -4.123909    3.214179   -2.083986
 H   -4.455547    4.491474    0.679522
 H   -4.730101    5.332977   -0.843518
 H   -7.348751   -4.056047   -2.568410
 H   -8.830790   -4.551638   -1.696871
 H   -8.712665   -2.892681   -2.354320
 H   -5.164201   -2.177278    0.972560
 H   -6.433284   -0.953009    1.144311
 H   -5.656140   -2.280939   -1.518059
 H   -6.968266   -1.084202   -1.260641
 H   -2.529071    5.822686   -0.577866
 H   -0.916232    0.281782   -0.088708
 H   -3.799604   -0.559039   -0.103133
