88 
3w37_ligand_xtb.xyz
 C   -5.222070   -0.063894   -0.635501
 C   -4.617566    1.257581   -1.185433
 C   -5.730213    2.174681   -1.698792
 C   -6.702219    2.512965   -0.551545
 C   -7.211576    1.254195    0.113226
 C   -8.503573    1.416487    0.865061
 C   -6.522308    0.122784    0.085371
 O   -3.828285    1.854571   -0.185786
 O   -6.376760    1.490036   -2.736872
 O   -6.015785    3.319365    0.387803
 O   -8.390635    2.574629    1.671285
 C   -0.810725   -3.032681   -0.171738
 C   -1.547385   -2.674801   -1.471694
 C   -2.457847   -1.457219   -1.212549
 C   -3.393295   -1.766281   -0.040816
 C   -2.560442   -2.214060    1.185509
 C   -3.428680   -2.652511    2.360418
 N   -4.210351   -0.587921    0.336465
 O   -0.699613   -2.356164   -2.533106
 O   -3.211995   -1.175538   -2.363376
 O   -1.749839   -3.317450    0.836699
 C    4.066473   -1.322176    0.763295
 C    3.714033   -2.353802   -0.321288
 C    2.248940   -2.150874   -0.716687
 C    1.363225   -2.287324    0.524842
 C    1.842619   -1.302261    1.601096
 C    1.108882   -1.517570    2.931029
 O    4.498291   -2.235313   -1.474281
 O    1.850728   -3.100318   -1.685164
 O    0.018205   -1.969604    0.203289
 O    3.226021   -1.468425    1.874654
 O    1.229722   -0.420273    3.787435
 C    6.632897    3.091834   -0.428285
 C    7.252999    1.685480   -0.449600
 C    6.133417    0.653845   -0.646660
 C    5.074830    0.827059    0.449837
 C    4.565706    2.274344    0.423151
 C    3.609697    2.562426    1.587200
 O    6.155546    3.337977   -1.718835
 O    8.221422    1.550683   -1.449435
 O    6.666126   -0.655078   -0.605501
 O    3.972434   -0.029635    0.221675
 O    5.639208    3.200256    0.549720
 O    3.044330    3.836836    1.491597
 H   -5.340719   -0.767230   -1.462419
 H   -3.958547    1.002068   -2.021198
 H   -5.270998    3.111005   -2.046250
 H   -7.558188    3.067874   -0.964989
 H   -8.704686    0.528892    1.477652
 H   -9.321876    1.531737    0.139365
 H   -6.910887   -0.760550    0.576369
 H   -4.372016    2.527483    0.269691
 H   -6.926060    2.099272   -3.242495
 H   -6.633556    3.505890    1.111620
 H   -9.225531    2.733879    2.123369
 H   -0.242613   -3.959663   -0.308120
 H   -2.182978   -3.533011   -1.748012
 H   -1.811003   -0.602496   -0.956883
 H   -4.072406   -2.572363   -0.340776
 H   -1.909109   -1.376817    1.482239
 H   -2.798429   -3.187506    3.064870
 H   -3.865040   -1.805185    2.883478
 H   -4.206983   -3.335530    2.030561
 H   -4.676303   -0.803634    1.223243
 H   -3.611202    0.275104    0.479059
 H    0.218334   -2.610145   -2.314930
 H   -2.628493   -1.317571   -3.122205
 H    5.077067   -1.516585    1.142467
 H    3.832494   -3.360020    0.115388
 H    2.139177   -1.135476   -1.124937
 H    1.429435   -3.313869    0.907642
 H    1.652570   -0.282802    1.237298
 H    0.042372   -1.642658    2.739468
 H    1.502594   -2.431775    3.394600
 H    5.328054   -1.776240   -1.252969
 H    2.587497   -3.179905   -2.308299
 H    2.167200   -0.277403    3.962976
 H    7.391838    3.833800   -0.137683
 H    7.755861    1.495154    0.504673
 H    5.656141    0.824506   -1.624528
 H    5.528692    0.614938    1.427363
 H    4.040823    2.438577   -0.528333
 H    2.784629    1.849928    1.559859
 H    4.163029    2.444846    2.528907
 H    5.792730    4.230226   -1.766062
 H    7.880909    1.965842   -2.254197
 H    7.536746   -0.618464   -1.029999
 H    3.764012    4.479484    1.486793
