50 
3w55_ligand_ani.xyz
 C    1.748093    0.528274    0.527003
 C    1.580092   -0.823717    0.259231
 C    3.074179    1.145336    0.603716
 C    2.684792   -1.642667   -0.082761
 C    3.941612   -1.107833   -0.153081
 O    0.637225    2.488327   -0.073764
 C    4.232642    0.321540    0.055895
 C   -0.251376   -2.328953   -0.510154
 C   -1.366482    3.006040   -1.368535
 C    0.223948   -1.396183    0.315873
 C   -2.668940   -2.459180    0.466361
 C    0.574210    1.416804    0.729354
 C   -0.521907    3.345981   -0.136330
 C   -1.696038   -2.710793   -0.692723
 O   -0.353550    1.196770    1.482030
 C   -2.993952   -1.004461    0.868227
 C   -3.390435   -0.156638   -0.346502
 O   -4.035651   -0.651581   -1.256718
 C   -2.999806    1.300905   -0.356422
 C   -1.935925    1.585416   -1.429696
 O   -3.909583   -3.087489    0.163433
 O   -4.067288   -1.026797    1.785352
 O    3.267013    2.248477    1.076627
 O    5.058898   -1.796233   -0.466202
 C    4.937803   -3.189536   -0.679459
 C    0.006362    4.767165   -0.205479
 H    2.511947   -2.699515   -0.266100
 H    5.091828    0.434116    0.727762
 H    4.554973    0.768774   -0.898792
 H    0.424974   -2.812116   -1.214861
 H   -0.744922    3.178429   -2.256575
 H   -2.189322    3.733489   -1.411963
 H   -0.397827   -0.955889    1.080457
 H   -2.296393   -2.962499    1.366040
 H   -1.092620    3.194173    0.784520
 H   -1.754842   -3.785319   -0.903140
 H   -2.073957   -2.219139   -1.598530
 H   -2.167731   -0.505345    1.380781
 H   -2.643032    1.583851    0.638607
 H   -3.904946    1.881816   -0.565684
 H   -2.390691    1.427337   -2.413811
 H   -1.114222    0.860003   -1.353332
 H   -4.260175   -2.599965   -0.603070
 H   -4.597524   -1.799707    1.522913
 H    4.570803   -3.699781    0.219995
 H    4.263262   -3.405736   -1.517347
 H    5.940441   -3.547052   -0.917011
 H    0.618291    4.898754   -1.103844
 H   -0.820750    5.483798   -0.239332
 H    0.622702    4.990742    0.669149
