50 
3w55_ligand_xtb.xyz
 C    1.733791    0.487626    0.169006
 C    1.923721   -0.864082    0.041427
 C    2.851386    1.421762    0.196037
 C    3.237498   -1.429201   -0.053437
 C    4.332116   -0.643195   -0.117702
 O    0.110100    2.120794   -0.236671
 C    4.219110    0.841342   -0.126602
 C   -0.309227   -1.571236   -0.711684
 C   -2.035177    2.952101   -0.993057
 C    0.814292   -1.806027   -0.037921
 C   -2.368052   -2.532133    0.393949
 C    0.406579    1.067990    0.516210
 C   -1.010216    2.936348    0.144763
 C   -1.446008   -2.527990   -0.845046
 O   -0.291488    0.646176    1.410205
 C   -2.847237   -1.120390    0.783508
 C   -3.643937   -0.429498   -0.329724
 O   -4.267602   -1.058553   -1.155431
 C   -3.625420    1.073452   -0.272025
 C   -2.599312    1.567375   -1.308785
 O   -3.478620   -3.371930    0.201231
 O   -3.743067   -1.209026    1.875621
 O    2.741468    2.604413    0.450416
 O    5.608752   -1.056001   -0.208778
 C    5.880133   -2.441048   -0.230498
 C   -0.480871    4.332982    0.448285
 H    3.307766   -2.504625   -0.082872
 H    4.958961    1.278678    0.548716
 H    4.485029    1.204603   -1.126513
 H   -0.413707   -0.625414   -1.225321
 H   -1.538778    3.340476   -1.884629
 H   -2.842047    3.634629   -0.724049
 H    0.974275   -2.770127    0.426730
 H   -1.824404   -2.948422    1.249714
 H   -1.446500    2.496449    1.049987
 H   -1.074963   -3.547678   -0.968883
 H   -2.047794   -2.273834   -1.720033
 H   -2.003918   -0.504682    1.108615
 H   -3.344233    1.387835    0.731322
 H   -4.611101    1.470340   -0.517822
 H   -3.072807    1.576928   -2.291651
 H   -1.765490    0.865338   -1.359143
 H   -4.003607   -2.987396   -0.521023
 H   -4.245589   -2.030778    1.760781
 H    5.530439   -2.926382    0.684667
 H    5.418635   -2.921295   -1.097837
 H    6.962643   -2.529268   -0.298534
 H   -0.078258    4.782803   -0.455340
 H   -1.278757    4.958421    0.838827
 H    0.318836    4.269349    1.181313
