61 
3w5e_ligand_xtb.xyz
 N   -3.085945    1.942152    0.035264
 C   -1.862830   -0.489097   -0.112617
 N   -1.148113    0.626664   -0.234169
 C   -1.777280    1.791268   -0.148502
 C   -0.954811    2.997414   -0.258534
 N   -1.252267   -1.689063   -0.162882
 C   -1.550070    4.257193   -0.279408
 C   -0.767141    5.390935   -0.383006
 C    0.612230    5.280141   -0.464834
 C    1.210554    4.029736   -0.440532
 C    0.433480    2.892591   -0.337568
 C   -3.828319    0.843640    0.156370
 C   -3.259839   -0.413444    0.099431
 S   -4.210019   -1.908035    0.251727
 C   -5.787847   -1.329558    0.934359
 C   -6.176164   -0.135506    0.085058
 C   -5.293900    1.072149    0.384848
 O   -4.438090   -2.449515   -1.060840
 O   -3.536648   -2.776271    1.193315
 C    0.102638   -1.931704   -0.396225
 C    0.881800   -1.092120   -1.188524
 C    2.022384   -3.336314   -0.031905
 C    0.678647   -3.071718    0.157363
 C    2.814436   -2.485190   -0.792418
 C    2.218897   -1.372435   -1.379844
 C    4.288708   -2.710341   -0.964445
 C    5.068514   -1.438761   -0.614971
 N    4.717211   -0.929800    0.583971
 O    5.907790   -0.963639   -1.349342
 C    5.143517    0.365525    1.114946
 C    4.672797    1.476230    0.170556
 C    4.490277    0.528802    2.486595
 C    6.667652    0.385203    1.246116
 H   -1.807161   -2.475189    0.159524
 H   -2.624551    4.323212   -0.215137
 H   -1.230999    6.366280   -0.400930
 H    1.221404    6.168354   -0.547126
 H    2.285566    3.944488   -0.503317
 H    0.881152    1.911557   -0.313135
 H   -5.618267   -1.080298    1.978144
 H   -6.492125   -2.152816    0.850846
 H   -7.220972    0.131928    0.258912
 H   -6.068920   -0.423365   -0.963717
 H   -5.592290    1.924092   -0.229019
 H   -5.422244    1.375975    1.428958
 H    0.434651   -0.226591   -1.646648
 H    2.458973   -4.216480    0.418528
 H    0.069091   -3.740822    0.747244
 H    2.819993   -0.716962   -1.993011
 H    4.525149   -2.962377   -2.000273
 H    4.633282   -3.526930   -0.326638
 H    3.952619   -1.375934    1.066879
 H    5.122731    1.337343   -0.808538
 H    3.589527    1.448302    0.068168
 H    4.965596    2.448552    0.557307
 H    3.405163    0.519254    2.398545
 H    4.796548   -0.274718    3.153286
 H    4.788907    1.474563    2.930374
 H    6.998827   -0.406501    1.914307
 H    7.120640    0.230211    0.271577
 H    6.997448    1.341322    1.643056
