23 
3w5n_ligand_xtb.xyz
 C    0.753911   -1.548558    0.042192
 C    1.534314   -0.228022    0.095646
 C    0.707423    0.900417   -0.529688
 C   -0.684860    0.924606    0.110111
 C   -1.347359   -0.446555   -0.100826
 C   -2.736127   -0.526867    0.521180
 O    0.792044   -1.998964   -1.281675
 O    1.842424    0.060114    1.431552
 O    1.390515    2.110908   -0.298949
 O   -1.395945    1.986011   -0.490959
 O   -0.555084   -1.450304    0.519512
 H    1.236889   -2.262305    0.726473
 H    2.454134   -0.362276   -0.493533
 H    0.598277    0.718572   -1.608478
 H   -0.570612    1.096537    1.191920
 H   -1.407254   -0.638794   -1.184093
 H   -3.431307    0.120413   -0.007420
 H   -3.096001   -1.549679    0.458596
 H   -2.689346   -0.245249    1.570211
 H    0.312254   -2.834820   -1.335127
 H    2.123816    0.986153    1.448043
 H    0.785088    2.822376   -0.540447
 H   -2.271374    2.036824   -0.093688
