44 
3w9k_ligand_ani.xyz
 C   -5.867594    1.020089   -0.070206
 O   -5.970822    0.803086   -1.248176
 O   -6.113114    2.261723    0.409818
 C   -5.495543   -0.022754    0.972045
 C   -5.066509   -1.357137    0.364891
 C   -3.764982   -1.302090   -0.440713
 C   -2.535531   -0.887508    0.366450
 C   -1.258963   -0.892223   -0.472924
 C   -0.010121   -0.504673    0.316264
 C    1.250328   -0.454648   -0.545769
 C    2.509387   -0.084960    0.236697
 C    3.754906    0.006944   -0.642561
 C    5.022834    0.354070    0.135377
 C    6.256678    0.469743   -0.760067
 C    7.538011    0.862498   -0.018316
 C    8.006031   -0.181802    0.994280
 H   -5.997402    2.281574    1.369631
 H   -6.372279   -0.170807    1.618086
 H   -4.709895    0.387247    1.621618
 H   -5.870820   -1.708379   -0.290674
 H   -4.966709   -2.095058    1.172038
 H   -3.900554   -0.612989   -1.282963
 H   -3.584273   -2.294982   -0.875124
 H   -2.412288   -1.561945    1.227472
 H   -2.677956    0.120098    0.781615
 H   -1.384839   -0.199008   -1.318290
 H   -1.112972   -1.889388   -0.914820
 H    0.135911   -1.218564    1.140753
 H   -0.164081    0.477792    0.786935
 H    1.101643    0.271548   -1.359153
 H    1.399347   -1.430250   -1.032536
 H    2.674283   -0.828559    1.030589
 H    2.353272    0.877203    0.747294
 H    3.588703    0.761677   -1.425991
 H    3.901281   -0.949144   -1.167263
 H    5.188262   -0.410219    0.907514
 H    4.873711    1.303180    0.671758
 H    6.055236    1.211446   -1.545646
 H    6.416850   -0.488844   -1.276242
 H    7.380413    1.823282    0.491628
 H    8.335012    1.034420   -0.752814
 H    7.275976   -0.322142    1.798660
 H    8.159260   -1.154499    0.511715
 H    8.952791    0.113542    1.458378
