30 
3wab_ligand_ani.xyz
 C    3.274448    0.665829    0.611985
 C    3.032448   -0.850721    0.514107
 C    2.564018   -1.336011   -0.865195
 C    1.252782   -0.726296   -1.370561
 C    0.035870   -1.075128   -0.511548
 N    2.105755    1.399953    1.198439
 C   -1.244258   -0.356763   -0.937505
 C   -1.185279    1.131389   -0.648725
 O   -2.233348    1.787857   -1.168498
 O   -0.316667    1.707245   -0.026364
 C   -2.515000   -0.952550   -0.308333
 S   -2.530372   -0.733775    1.506231
 H    3.467191    1.085274   -0.375859
 H    4.145713    0.878120    1.231647
 H    3.963608   -1.374687    0.760855
 H    2.310043   -1.141998    1.288314
 H    2.469947   -2.431078   -0.843028
 H    3.354757   -1.114485   -1.595294
 H    1.359429    0.362721   -1.451517
 H    1.071719   -1.080922   -2.394254
 H    0.227580   -0.851731    0.542820
 H   -0.137577   -2.158611   -0.561013
 H    2.298672    2.413486    1.254621
 H    1.915421    1.052191    2.156745
 H    1.258709    1.269492    0.612567
 H   -1.370628   -0.444410   -2.025892
 H   -2.130852    2.723914   -0.927138
 H   -3.390396   -0.457528   -0.734387
 H   -2.569302   -2.019126   -0.544698
 H   -3.388408   -1.729201    1.770287
