42 
3waw_ligand_ani.xyz
 C    7.637077   -1.771280    0.038200
 C    6.300898   -1.897122   -0.684047
 N    5.203314   -1.316565    0.077711
 C    3.912544   -1.848268   -0.335822
 C    2.821067   -1.347303    0.601978
 C    5.197597    0.139978    0.021859
 C    4.126299    0.689424    0.956184
 N    2.839246    0.103421    0.620428
 C    1.795547    0.896199    0.303911
 S    0.206959    0.225773   -0.058785
 N    1.887205    2.201528    0.247276
 C    0.676152    2.719904   -0.095198
 O    0.608033    4.061420   -0.206852
 C   -0.370409    1.861292   -0.296988
 C   -1.766916    2.258981   -0.682568
 C   -2.765448    1.126249   -0.668504
 C   -3.402632    0.778666    0.517952
 C   -4.295359   -0.288531    0.564813
Cl   -5.055779   -0.672684    2.071698
 C   -4.559500   -1.022534   -0.592615
Cl   -5.657693   -2.360953   -0.584326
 C   -3.928441   -0.676175   -1.783376
 C   -3.040635    0.391905   -1.819375
 H    7.953998   -0.727376    0.134537
 H    7.563972   -2.198671    1.043016
 H    8.421622   -2.303287   -0.510818
 H    6.080382   -2.961852   -0.825647
 H    6.369372   -1.455682   -1.699224
 H    3.950057   -2.943768   -0.297604
 H    3.665364   -1.562698   -1.377112
 H    3.023196   -1.712515    1.617984
 H    1.836609   -1.710140    0.292819
 H    5.009861    0.504441   -1.006502
 H    6.176950    0.523947    0.325886
 H    4.040958    1.774924    0.879017
 H    4.376965    0.426372    1.994539
 H   -0.284833    4.317160   -0.473336
 H   -1.743493    2.724076   -1.680179
 H   -2.109150    3.050569    0.003302
 H   -3.211389    1.334028    1.432523
 H   -4.141621   -1.250442   -2.679483
 H   -2.560804    0.652018   -2.760002
