38 
3wb5_ligand_ani.xyz
 O    1.058435   -2.153538   -1.707252
 C    1.528246   -1.239167   -1.057774
 N    1.859093   -1.387568    0.289387
 C    1.702802   -2.704941    0.890635
 C    2.296696   -0.332267    1.116648
 N    2.620383   -0.439147    2.349143
 N    2.359145    0.904666    0.517689
 C    1.840507    0.108281   -1.665476
 C    1.624855    1.260633   -0.684111
 C    2.234877    2.543825   -1.238403
 C    0.128042    1.505606   -0.448043
 C   -0.359282    2.298842    0.729936
 C   -0.675984    0.837532    0.634580
 C   -2.047831    0.315093    0.340922
 C   -3.202998    1.007514    0.707243
 C   -4.461853    0.488739    0.424759
 C   -4.582618   -0.731008   -0.234982
 C   -3.436566   -1.427495   -0.607083
 C   -2.177788   -0.907924   -0.317860
 H    1.007322   -2.670863    1.737513
 H    1.297092   -3.359917    0.122510
 H    2.666588   -3.105005    1.226697
 H    2.544000   -1.393710    2.684677
 H    2.526018    1.642354    1.186102
 H    1.235417    0.228010   -2.564593
 H    2.893910    0.095142   -1.967430
 H    2.048928    3.378557   -0.554125
 H    1.789210    2.792354   -2.207688
 H    3.315885    2.428870   -1.368088
 H   -0.408452    1.666245   -1.383378
 H    0.381361    2.594137    1.468593
 H   -1.158682    3.023865    0.588787
 H   -0.117603    0.186708    1.298909
 H   -3.105455    1.958355    1.227225
 H   -5.350379    1.041001    0.720057
 H   -5.566136   -1.137196   -0.457953
 H   -3.524148   -2.380916   -1.122330
 H   -1.279346   -1.444913   -0.616943
