45 
3wf7_ligand_xtb.xyz
 N    7.540606  -13.035698   15.373921
 C    8.773984  -12.702893   15.701886
 N    9.867387  -12.772778   14.965585
 C    9.801890  -13.236673   13.707443
 N   10.946824  -13.330889   13.009659
 C   10.980960  -13.622772   11.596951
 C   11.284102  -12.350589   10.803684
 C   12.588870  -11.716161   11.288111
 C   12.828142  -10.382959   10.588043
 O   11.951690   -9.740489   10.064617
 N   14.139493   -9.987843   10.657690
 C   14.719694   -8.802457   10.213317
 C   13.997100   -7.810450    9.557184
 C   14.647478   -6.653593    9.152761
 C   13.830800   -5.598496    8.460389
 F   12.908121   -5.055626    9.276255
 F   14.567884   -4.576708    7.998867
 F   13.156872   -6.083692    7.403990
 C   16.000754   -6.460412    9.386392
 C   16.713382   -7.454754   10.035712
 C   16.083296   -8.612540   10.445220
 C   12.503624  -11.466691   12.801993
 C   12.170953  -12.772183   13.528188
 C    8.534520  -13.634266   13.228367
 N    8.066575  -14.143347   12.039768
 C    6.791934  -14.301795   12.210872
 N    6.358321  -13.930987   13.451098
 C    7.460386  -13.497494   14.126417
 H    8.911559  -12.318339   16.704039
 H   10.022328  -14.041770   11.292587
 H   11.770072  -14.364219   11.421632
 H   10.473174  -11.633258   10.934460
 H   11.354501  -12.585042    9.741284
 H   13.424385  -12.395411   11.080369
 H   14.780520  -10.617435   11.121096
 H   12.944569   -7.942505    9.367456
 H   16.486433   -5.552752    9.066068
 H   17.767417   -7.322453   10.224040
 H   16.649159   -9.381205   10.952717
 H   13.442473  -11.062106   13.185649
 H   11.713247  -10.740344   12.999609
 H   12.976780  -13.499797   13.376536
 H   12.033056  -12.594383   14.594808
 H    6.129572  -14.685541   11.460037
 H    5.420116  -13.960206   13.812234
