58 
3wf9_ligand_dft.xyz
 N   -3.913465   -2.565933    0.312743
 C   -4.672750   -1.588392   -0.248205
 C   -6.035713   -1.868853   -0.524632
 C   -6.838579   -0.914164   -1.091075
 C   -6.317415    0.362730   -1.411917
 C   -5.005238    0.662798   -1.155628
 C   -4.154824   -0.306156   -0.563179
 C   -2.793978   -0.076812   -0.239034
 C   -2.169218    1.253728   -0.519852
 O   -1.798589    1.624810   -1.614956
 O   -2.034159    1.966924    0.601842
 C   -1.372862    3.254841    0.526687
 C   -1.944551    4.119186    1.625430
 C    0.133222    2.989525    0.718727
 O    0.702840    3.243747    1.760807
 N    0.713797    2.406072   -0.379102
 C    1.935629    1.718429   -0.427383
 C    2.925833    1.854411    0.551898
 C    4.081152    1.089073    0.463111
 C    4.253823    0.199110   -0.592404
 S    5.676359   -0.874535   -0.616438
 O    6.734874   -0.219516    0.127226
 O    5.840349   -1.350147   -1.976681
 N    5.249394   -2.212889    0.283941
 C    3.288534    0.084688   -1.589580
 C    2.133102    0.844741   -1.505748
 C   -2.021512   -1.066040    0.324550
 C   -0.568424   -0.824068    0.679110
 C    0.238450   -2.105466    0.906853
 C    1.626293   -1.781441    1.455709
 C   -0.551676   -3.039443    1.824988
 C   -1.855962   -3.472985    1.158909
 C   -2.649718   -2.323831    0.578403
 H   -6.406985   -2.856519   -0.272106
 H   -7.881481   -1.132720   -1.299023
 H   -6.964378    1.106792   -1.866123
 H   -4.605949    1.639049   -1.415535
 H   -1.561088    3.680112   -0.463764
 H   -3.020328    4.242995    1.479485
 H   -1.466974    5.101974    1.605935
 H   -1.756834    3.667947    2.601335
 H    0.087561    2.244592   -1.162310
 H    2.780433    2.543155    1.371753
 H    4.858978    1.192744    1.212897
 H    5.082918   -1.992030    1.260064
 H    4.488552   -2.738558   -0.133077
 H    3.447309   -0.591680   -2.422925
 H    1.368449    0.754474   -2.273174
 H   -0.088347   -0.233704   -0.109690
 H   -0.523971   -0.209058    1.590115
 H    0.359135   -2.608763   -0.064115
 H    2.170062   -1.106321    0.786331
 H    2.215388   -2.697882    1.581006
 H    1.553978   -1.293709    2.435245
 H    0.044432   -3.924045    2.077522
 H   -0.762119   -2.519171    2.770170
 H   -1.629982   -4.168366    0.338682
 H   -2.502794   -4.019695    1.850918
