36 
3wff_ligand_ani.xyz
 C   -0.499479   -0.316890   -1.169881
 C    3.673654   -0.261714   -0.716667
 C   -1.618891   -1.086086   -1.453910
 C    4.290474   -1.501251   -0.684035
 C   -1.836101    1.097773    0.251282
 C    2.712769   -2.213453    1.013547
 C   -0.592894    0.785875   -0.306673
 C    2.555382    0.034364    0.072027
 C   -2.952952    0.323006   -0.016553
 C   -2.841416   -0.771276   -0.879810
 C    3.791947   -2.459679    0.182701
 C    2.118764   -0.967172    0.945326
 C    1.878400    1.330114   -0.030518
 C    0.553178    1.644085   -0.028378
 C    2.632031    2.606777   -0.133271
 C   -5.263373   -0.284057    0.477147
 C    0.431958    3.129223    0.158147
 C   -4.920882   -1.610009   -0.185155
 N   -4.217692    0.596501    0.526544
 O    3.807794    2.799934   -0.295300
 O   -6.350109   -0.056589    0.968109
 O   -3.946707   -1.503645   -1.212694
 O    1.745712    3.631663   -0.010444
 F    4.378735   -3.665233    0.228828
 F    1.089531   -0.718377    1.772958
 H    0.450087   -0.564933   -1.639373
 H    4.054802    0.520072   -1.364491
 H   -1.566098   -1.938034   -2.124498
 H    5.145831   -1.732668   -1.309539
 H   -1.925632    1.959689    0.907181
 H    2.337776   -2.963586    1.699729
 H    0.085886    3.407181    1.162986
 H   -0.224327    3.602237   -0.582798
 H   -5.823336   -2.015185   -0.642759
 H   -4.572784   -2.305546    0.592491
 H   -4.381685    1.459074    1.029857
