39 
3wfg_ligand_ani.xyz
 C    1.131042   -2.072689    1.183870
 C   -1.435464    1.379285    1.077179
 C   -3.081022    1.445457   -0.676882
 C    2.492294   -1.841866    1.309123
 C   -1.501629    2.758788    1.202068
 C   -3.150497    2.825461   -0.571127
 C    0.976127   -0.335810   -0.480901
 C   -2.213000    0.695968    0.128046
 C    0.352202   -1.323523    0.290548
 C    2.339622   -0.103915   -0.360562
 C    3.097748   -0.862302    0.536157
 C   -2.356740    3.461187    0.369000
 C   -2.132044   -0.764479   -0.013970
 C   -1.079821   -1.614344    0.163396
 C   -3.320302   -1.601538   -0.324781
 C    4.284708    1.288389   -0.844482
 C    4.886233    0.650361    0.398866
 C   -1.580771   -3.030255    0.132895
 C   -0.877607   -3.962496   -0.843671
 N    3.011123    0.868906   -1.117730
 O   -4.443647   -1.277774   -0.613906
 O    4.861553    2.134956   -1.495808
 O    4.451371   -0.682604    0.622695
 O   -2.953120   -2.905933   -0.235450
 F   -2.422653    4.798434    0.480687
 H    0.654447   -2.841066    1.787208
 H   -0.767059    0.823285    1.729210
 H   -3.713418    0.923654   -1.387435
 H    3.107213   -2.416038    1.994451
 H   -0.902155    3.294631    1.930941
 H   -3.813837    3.412984   -1.198027
 H    0.388222    0.269952   -1.164979
 H    4.635235    1.278110    1.266534
 H    5.969888    0.618175    0.287060
 H   -1.572106   -3.471746    1.141924
 H   -0.955715   -3.564464   -1.860441
 H    0.180987   -4.067985   -0.583826
 H   -1.349250   -4.948984   -0.818291
 H    2.547829    1.322002   -1.895277
