53 
3wi2_ligand_xtb.xyz
 C   -3.253258    4.160869   -0.297984
 C    8.281966    0.625991    0.146548
 C    7.593029    1.716630    0.701717
 C   -2.538377    3.527165    0.704966
 C   -3.994792    3.411180   -1.195756
 C    7.594903   -0.439267   -0.365709
 C    5.412264   -1.520060   -0.850874
 C    6.226641    1.732819    0.738633
 C   -1.784283   -3.183318    0.269666
 C   -2.567474    2.149538    0.816842
 C   -4.021115    2.031804   -1.098748
 C   -0.442938   -2.893749    0.197448
 C    4.049514   -1.447472   -0.789125
 C   -0.846402   -0.506238   -0.012370
 C    6.186783   -0.455535   -0.343215
 C    5.489721    0.649231    0.217814
 C   -2.682331   -2.123041    0.205636
 C   -2.198442   -0.804696    0.076350
 C   -3.310284    1.395380   -0.086353
 C    0.030487   -1.576598    0.053971
 C    3.456254   -0.306579   -0.208204
 C   -4.401297   -0.854805    0.136515
 C   -6.480981   -0.913435    1.456036
 C   -6.566163   -0.889567   -1.054835
 C    1.956768   -0.184033   -0.141478
 C   -5.818064   -0.385600    0.181974
 N    4.143288    0.694319    0.273904
 N   -4.051995   -2.100764    0.247127
 N   -3.318444   -0.004211    0.023395
 O    1.390438   -1.466655   -0.014166
 H   -3.230880    5.236962   -0.380934
 H    9.361958    0.636537    0.128269
 H    8.157201    2.546783    1.101408
 H   -1.959014    4.108039    1.406957
 H   -4.549652    3.901318   -1.981871
 H    8.118364   -1.282573   -0.794311
 H    5.908778   -2.377877   -1.283984
 H    5.679585    2.560958    1.160973
 H   -2.136889   -4.196554    0.371032
 H   -2.025568    1.649268    1.605614
 H   -4.579438    1.443450   -1.811211
 H    0.295135   -3.678801    0.245826
 H    3.416311   -2.237046   -1.159744
 H   -0.514409    0.512889   -0.131602
 H   -6.416112   -1.997517    1.475864
 H   -5.980124   -0.520912    2.338291
 H   -7.526551   -0.615891    1.487281
 H   -6.112931   -0.508707   -1.967870
 H   -6.529964   -1.975181   -1.081745
 H   -7.604838   -0.568768   -1.023346
 H    1.603768    0.303331   -1.065210
 H    1.691867    0.458768    0.708137
 H   -5.832811    0.709667    0.197725
