53 
3wi2_ligand_ani.xyz
 C   -3.319724    4.154249   -0.553375
 C    8.228247    0.655721    0.476772
 C    7.474299    1.726075    1.021883
 C   -2.520992    3.605210    0.445753
 C   -4.099844    3.318920   -1.347364
 C    7.594515   -0.389431   -0.141902
 C    5.457951   -1.464399   -0.864778
 C    6.107869    1.729201    0.936413
 C   -1.746522   -3.216762    0.085648
 C   -2.497793    2.229720    0.650880
 C   -4.089105    1.943297   -1.138913
 C   -0.412581   -2.946687   -0.128074
 C    4.093394   -1.410516   -0.909647
 C   -0.815893   -0.535970   -0.233708
 C    6.178991   -0.412697   -0.243000
 C    5.427546    0.657630    0.300780
 C   -2.643018   -2.140271    0.149389
 C   -2.159835   -0.837424   -0.016326
 C   -3.291431    1.397055   -0.134921
 C    0.052132   -1.617290   -0.275863
 C    3.441159   -0.288455   -0.334325
 C   -4.346608   -0.851627    0.331408
 C   -6.285042   -0.917190    1.894556
 C   -6.654793   -0.862479   -0.594442
 C    1.938053   -0.187954   -0.385490
 C   -5.756927   -0.388129    0.554607
 N    4.066585    0.706665    0.241504
 N   -4.007977   -2.113965    0.368483
 N   -3.272938   -0.009775    0.087117
 O    1.391655   -1.491410   -0.472934
 H   -3.331447    5.228870   -0.714410
 H    9.312080    0.672884    0.555610
 H    7.991962    2.547799    1.510807
 H   -1.904733    4.247867    1.068561
 H   -4.726135    3.736574   -2.130584
 H    8.162094   -1.216780   -0.563432
 H    6.001233   -2.304282   -1.295009
 H    5.504109    2.533558    1.345295
 H   -2.096142   -4.238607    0.204542
 H   -1.868817    1.787211    1.419419
 H   -4.695454    1.285399   -1.755401
 H    0.314748   -3.751285   -0.183081
 H    3.496600   -2.195440   -1.363023
 H   -0.483872    0.489639   -0.364302
 H   -6.261624   -2.012146    1.904435
 H   -5.674237   -0.552879    2.726679
 H   -7.316694   -0.585171    2.050569
 H   -6.308206   -0.475245   -1.558928
 H   -6.651738   -1.956973   -0.647654
 H   -7.683953   -0.523945   -0.436730
 H    1.629172    0.404921   -1.257371
 H    1.596191    0.323727    0.520382
 H   -5.762350    0.706325    0.591598
