57 
3wix_ligand_ani.xyz
 C    6.235454   -1.430883   -0.037689
 C    5.329974   -2.224015    0.666671
 C    5.755623   -0.362825   -0.798590
 C    7.694746   -1.738135    0.106694
 C    3.968496   -1.991328    0.561877
 C    4.397787   -0.101419   -0.873125
 O    8.154778   -2.322203    1.052732
 O    8.505033   -1.325480   -0.894178
 C    3.476288   -0.925404   -0.206548
 C   -0.199015   -1.698133   -0.733718
 C    1.188187   -1.866439   -0.555981
 C    2.010689   -0.785475   -0.348123
 N    1.424139    0.469991   -0.302919
 C    0.059871    0.669911   -0.437207
 C   -0.766998   -0.447854   -0.674235
 N    2.079374    1.628060   -0.081088
 C    1.130197    2.563748   -0.063674
 C   -0.162084    2.047857   -0.293002
 C    1.561873    3.982887    0.137701
 C   -1.490618    2.729865   -0.353606
 C   -2.241934    2.744981    0.985613
 C   -2.686643    1.374235    1.465023
 O   -3.648484    0.875724    0.539498
 O    2.660101    4.378860   -0.128239
 O    0.628041    4.826143    0.644519
 C   -4.265949   -0.302364    0.823829
 C   -3.954155   -1.097614    1.901471
 C   -4.657339   -2.308467    2.107054
 C   -5.646043   -2.704616    1.252167
 C   -5.984772   -1.902514    0.126483
 C   -5.292339   -0.687945   -0.104052
 C   -7.006318   -2.289992   -0.782749
 C   -7.313450   -1.508429   -1.864903
 C   -6.617571   -0.299940   -2.095306
 C   -5.628013    0.101990   -1.233544
 H    5.713923   -3.030224    1.283734
 H    6.439440    0.315861   -1.306163
 H    3.280690   -2.633561    1.107981
 H    4.034490    0.746518   -1.445408
 H    7.981387   -1.012466   -1.644336
 H   -0.822970   -2.571924   -0.908803
 H    1.622022   -2.857207   -0.617752
 H   -1.830945   -0.297986   -0.787302
 H   -2.118001    2.216229   -1.090263
 H   -1.380943    3.756002   -0.729545
 H   -3.122898    3.389060    0.898444
 H   -1.607744    3.174743    1.772087
 H   -3.144834    1.451489    2.459982
 H   -1.829329    0.689061    1.525731
 H   -0.161900    4.335852    0.909650
 H   -3.174910   -0.819112    2.603029
 H   -4.396323   -2.921615    2.967094
 H   -6.186379   -3.633727    1.416164
 H   -7.539497   -3.220862   -0.602572
 H   -8.095844   -1.813662   -2.555701
 H   -6.871444    0.309186   -2.959090
 H   -5.084018    1.027536   -1.394757
