57 
3wix_ligand_xtb.xyz
 C    4.772187    0.280709   -0.056127
 C    4.282726   -1.023367   -0.107266
 C    3.950751    1.325616   -0.471238
 C    6.170566    0.481151    0.422722
 C    2.995285   -1.271805   -0.528971
 C    2.663155    1.076014   -0.904639
 O    7.003775   -0.381917    0.375723
 O    6.462283    1.691730    0.930521
 C    2.158464   -0.224290   -0.925940
 C   -0.887349   -1.978300   -2.329789
 C    0.439895   -1.696739   -1.965889
 C    0.788973   -0.518164   -1.354640
 N   -0.205740    0.394863   -1.139044
 C   -1.529829    0.137319   -1.449432
 C   -1.875159   -1.076085   -2.061672
 N   -0.055969    1.586497   -0.599865
 C   -1.272328    2.141637   -0.556404
 C   -2.252088    1.275969   -1.066589
 C   -1.424743    3.502143    0.005947
 C   -3.743398    1.392977   -1.093412
 C   -4.378216    1.896193    0.218546
 C   -3.656709    1.398020    1.478140
 O   -3.398933    0.011281    1.384585
 O   -0.793212    3.926472    0.930794
 O   -2.362412    4.263872   -0.601139
 C   -2.134742   -0.474713    1.536996
 C   -1.077388    0.193297    2.107111
 C    0.187917   -0.405390    2.178832
 C    0.402597   -1.665199    1.701149
 C   -0.661153   -2.395785    1.132297
 C   -1.947087   -1.805384    1.054212
 C   -0.485861   -3.701096    0.628590
 C   -1.531266   -4.393719    0.085238
 C   -2.804970   -3.811755    0.021355
 C   -3.007131   -2.544364    0.493352
 H    4.932384   -1.827746    0.202411
 H    4.311497    2.345738   -0.493689
 H    2.624055   -2.284459   -0.530640
 H    2.041681    1.897214   -1.219038
 H    5.692359    2.275374    0.963429
 H   -1.114996   -2.915246   -2.811320
 H    1.206315   -2.420330   -2.186680
 H   -2.904622   -1.267206   -2.315850
 H   -4.133195    0.394697   -1.299380
 H   -4.073747    2.039607   -1.914971
 H   -5.414658    1.557142    0.236184
 H   -4.382908    2.986322    0.262483
 H   -4.293198    1.573605    2.353889
 H   -2.734660    1.965699    1.611435
 H   -2.770263    3.808171   -1.349077
 H   -1.182427    1.188850    2.508486
 H    0.996186    0.157599    2.620128
 H    1.380098   -2.119277    1.762606
 H    0.495952   -4.148911    0.690941
 H   -1.384734   -5.395232   -0.292859
 H   -3.625383   -4.373355   -0.401164
 H   -3.984361   -2.088623    0.456295
