31 
3wk6_ligand_ani.xyz
 C   -3.851712    1.623353    0.273420
 C   -2.584995    1.915986   -0.223468
 C   -4.275938    0.299079    0.345009
 C   -1.749492    0.886857   -0.647716
 C   -3.435802   -0.725395   -0.078582
 C   -2.165863   -0.444257   -0.586407
 C    1.421458   -0.750524    0.485532
 C    3.330983   -0.651011   -0.715262
 C    3.403092    0.748308   -0.061143
 C    3.064248    1.883713   -1.023130
 C   -1.238495   -1.563738   -0.982950
 C   -0.529612   -2.172273    0.235654
 N    2.023294   -1.253738   -0.517275
 N    0.238046   -1.199735    0.997138
 S    2.191297    0.638755    1.300972
 H   -4.506417    2.425236    0.605443
 H   -2.246703    2.947692   -0.279214
 H   -5.263789    0.063619    0.733873
 H   -0.754072    1.112348   -1.027903
 H   -3.765398   -1.761605   -0.016218
 H    4.094450   -1.303761   -0.270712
 H    3.541924   -0.598343   -1.789497
 H    4.393053    0.913169    0.374701
 H    3.797563    1.919815   -1.836642
 H    2.072800    1.734287   -1.462543
 H    3.063900    2.847719   -0.507697
 H   -1.792269   -2.354184   -1.504476
 H   -0.466195   -1.197067   -1.666235
 H   -1.259630   -2.626876    0.914456
 H    0.163775   -2.950575   -0.090032
 H   -0.290355   -0.517825    1.522353
