31 
3wk6_ligand_dft.xyz
 C   -3.641413    1.727740    0.288587
 C   -2.339117    1.910692   -0.167872
 C   -4.185694    0.446279    0.319062
 C   -1.588478    0.817563   -0.590660
 C   -3.429532   -0.643783   -0.101786
 C   -2.122212   -0.473864   -0.564726
 C    1.393635   -0.782525    0.448961
 C    3.210145   -0.544574   -0.861121
 C    3.269566    0.814655   -0.120658
 C    2.745200    1.972067   -0.965133
 C   -1.271398   -1.657013   -0.951848
 C   -0.537128   -2.259413    0.261490
 N    1.921936   -1.176597   -0.643718
 N    0.262027   -1.300607    1.007813
 S    2.234258    0.517488    1.362668
 H   -4.230472    2.579210    0.616279
 H   -1.904760    2.905752   -0.196776
 H   -5.202274    0.294927    0.670729
 H   -0.572075    0.962274   -0.949492
 H   -3.861222   -1.642086   -0.074905
 H    4.005949   -1.209294   -0.497112
 H    3.375066   -0.391263   -1.933580
 H    4.286618    1.022621    0.221255
 H    3.408739    2.137883   -1.822142
 H    1.744785    1.745262   -1.348284
 H    2.691129    2.899203   -0.387840
 H   -1.887991   -2.443792   -1.402208
 H   -0.520482   -1.362155   -1.690350
 H   -1.259010   -2.688340    0.964130
 H    0.129772   -3.057349   -0.074187
 H   -0.261073   -0.659168    1.587349
