32 
3wkb_ligand_xtb.xyz
 C    4.162619    0.053804   -1.108944
 C    4.232640    0.100326    0.272725
 C    2.993838   -0.362192   -1.723511
 C   -1.745951    3.094481   -0.155353
 C   -0.518700    2.876072    0.442393
 C    3.136636   -0.262727    1.035035
 C    1.900405   -0.730952   -0.961108
 C   -2.538574    2.009649   -0.492839
 C   -0.082833    1.591401    0.718374
 C    1.960924   -0.679255    0.424879
 C   -2.109541    0.722553   -0.224288
 C   -0.871984    0.487878    0.401193
 C   -2.661324   -1.647460   -0.226526
 C   -1.528069   -1.803679    0.778906
 C    0.775499   -1.102102    1.258991
 N   -2.886915   -0.373790   -0.610520
 N   -0.482876   -0.822418    0.603817
 O   -3.329154   -2.580005   -0.616413
 H    5.016466    0.341067   -1.704326
 H    5.141330    0.423713    0.758945
 H    2.934035   -0.401471   -2.801165
 H   -2.083986    4.096563   -0.367128
 H    0.112537    3.712437    0.701722
 H    3.193942   -0.221097    2.114215
 H    0.988867   -1.055680   -1.439969
 H   -3.493451    2.156812   -0.976581
 H    0.883572    1.454033    1.173073
 H   -1.112440   -2.806736    0.652409
 H   -1.980643   -1.752801    1.787600
 H    0.827822   -0.631249    2.252962
 H    0.834079   -2.185185    1.410094
 H   -3.673876   -0.203691   -1.223192
