32 
3wkb_ligand_ani.xyz
 C    4.300696    0.079831   -1.080917
 C    4.323014    0.211988    0.303768
 C    3.145482   -0.373939   -1.710735
 C   -2.049278    3.031606   -0.246728
 C   -0.821591    2.940505    0.406557
 C    3.192459   -0.108767    1.049279
 C    2.015567   -0.693443   -0.963583
 C   -2.727512    1.873078   -0.597178
 C   -0.276901    1.698337    0.708346
 C    2.030013   -0.561092    0.425857
 C   -2.190329    0.627738   -0.287986
 C   -0.952501    0.519156    0.373207
 C   -2.545243   -1.802041   -0.178609
 C   -1.429794   -1.813610    0.846040
 C    0.820890   -0.925730    1.273889
 N   -2.855413   -0.553157   -0.642814
 N   -0.453093   -0.769461    0.604207
 O   -3.150082   -2.799667   -0.517750
 H    5.181585    0.328143   -1.667589
 H    5.220804    0.566181    0.804998
 H    3.123565   -0.480108   -2.792971
 H   -2.476401    4.001745   -0.485347
 H   -0.281366    3.841786    0.684395
 H    3.216146   -0.007112    2.133137
 H    1.111449   -1.040680   -1.456296
 H   -3.684882    1.929110   -1.111536
 H    0.685353    1.655499    1.210238
 H   -0.947320   -2.793644    0.790112
 H   -1.888831   -1.725989    1.847999
 H    0.850744   -0.352813    2.216589
 H    0.900039   -1.980238    1.566458
 H   -3.660514   -0.507921   -1.255182
