38 
3wkc_ligand_ani.xyz
 C    0.420723    2.019094    0.134454
 C    3.351387    1.171266    0.511534
 C    0.994521    0.757834   -0.195379
 C    2.377632    0.345227    0.038350
 C   -0.893850    2.001712   -0.230450
 C   -0.016375   -0.004352   -0.779603
 C    4.046315   -1.108379    0.062346
 C   -4.345926   -1.216821    1.731252
 C   -3.161329   -0.368934    1.258145
 C   -5.264128   -1.214094    0.500932
 C   -3.091503   -0.752879   -0.219435
 C   -1.921825    3.082466   -0.135668
 C    0.027284   -1.393115   -1.350718
 C   -2.489477    0.292842   -1.158822
 N    2.789392   -0.961104   -0.215207
 N   -1.163746    0.757998   -0.777486
 N    4.721776   -2.303425   -0.040185
 O   -4.437497   -0.963796   -0.632170
 S    4.850078    0.318091    0.662705
 H    0.922498    2.863196    0.599474
 H    3.280859    2.218237    0.768486
 H   -4.846339   -0.816742    2.619089
 H   -4.018161   -2.236771    1.965230
 H   -3.390972    0.699309    1.363605
 H   -2.227122   -0.571944    1.790238
 H   -5.789156   -2.168612    0.364197
 H   -6.019270   -0.418972    0.568261
 H   -2.541393   -1.700681   -0.314530
 H   -1.462720    3.989876    0.266961
 H   -2.352681    3.333799   -1.113069
 H   -2.745603    2.808749    0.534966
 H   -0.889812   -1.657486   -1.886439
 H    0.871923   -1.510350   -2.040009
 H    0.193786   -2.133766   -0.557255
 H   -3.159904    1.152415   -1.190570
 H   -2.452137   -0.118800   -2.173006
 H    4.201391   -2.993810   -0.564798
 H    5.690887   -2.242209   -0.318236
