38 
3wkc_ligand_xtb.xyz
 C    0.512264    1.973067   -0.047101
 C    3.430248    1.206021    0.384819
 C    1.070116    0.675946   -0.201249
 C    2.452120    0.324963    0.028808
 C   -0.814974    1.898645   -0.357106
 C    0.041053   -0.152176   -0.608582
 C    4.138016   -1.093090    0.140551
 C   -5.106562   -0.558714    1.437275
 C   -3.976326    0.362141    0.984431
 C   -5.268054   -1.443868    0.203669
 C   -3.105268   -0.582227    0.147240
 C   -1.826466    2.990937   -0.379030
 C    0.073419   -1.595044   -0.963033
 C   -2.386492    0.073994   -1.050509
 N    2.887118   -0.970598   -0.106344
 N   -1.097550    0.600507   -0.703356
 N    4.815864   -2.271931    0.156952
 O   -3.967212   -1.612190   -0.329333
 S    4.956668    0.411618    0.569877
 H    1.035404    2.857519    0.256705
 H    3.361706    2.260125    0.550502
 H   -6.019812   -0.026312    1.691870
 H   -4.790353   -1.157751    2.291766
 H   -4.380901    1.157227    0.355397
 H   -3.423293    0.803223    1.810322
 H   -5.673876   -2.433247    0.424812
 H   -5.911947   -0.955768   -0.542510
 H   -2.342895   -1.050641    0.787955
 H   -1.332933    3.931102   -0.148536
 H   -2.290110    3.081398   -1.362259
 H   -2.612136    2.826685    0.357856
 H   -0.117569   -1.735010   -2.028638
 H    1.062576   -1.978107   -0.731677
 H   -0.672734   -2.163924   -0.410367
 H   -3.006630    0.869397   -1.469493
 H   -2.264404   -0.701607   -1.811560
 H    4.358555   -3.037722   -0.311324
 H    5.815766   -2.224375    0.053937
