36 
3wkd_ligand_xtb.xyz
 C   -3.782900    2.323598   -0.094301
 C   -2.741534    3.233411   -0.083962
 C   -3.518302    0.963686   -0.081001
 C   -1.428971    2.793950   -0.090075
 C    2.525104   -0.637808   -0.797550
 C    3.750726   -1.214338   -0.761335
 C    3.713668    0.937989    0.398235
 C    2.491958    0.614898   -0.121850
 C   -2.211237    0.502577   -0.063854
 C   -1.156183    1.433707   -0.094157
 C    1.329690    1.522940    0.044340
 C   -2.784736   -1.807100   -0.653130
 C   -1.434242   -1.377201    1.253573
 C   -2.049387   -3.138071   -0.831607
 C   -0.745659   -2.727740    1.046074
 N   -1.854629   -0.871226   -0.048575
 N    0.133717    0.908034   -0.170250
 O    1.458044    2.686950    0.367932
 O   -1.599099   -3.644900    0.403417
 S    4.895846   -0.258048    0.096501
 H   -4.806456    2.667128   -0.101426
 H   -2.947789    4.292766   -0.081602
 H   -4.337688    0.260961   -0.073215
 H   -0.610758    3.494358   -0.096135
 H    1.692631   -1.079750   -1.316975
 H    4.058159   -2.147268   -1.190558
 H    3.959170    1.823073    0.950200
 H   -3.671833   -1.980812   -0.022998
 H   -3.100829   -1.420593   -1.623487
 H   -0.747987   -0.671737    1.724565
 H   -2.302613   -1.516432    1.918345
 H   -1.194533   -2.991915   -1.510508
 H   -2.714513   -3.896043   -1.247660
 H   -0.479154   -3.176959    2.003953
 H    0.169183   -2.586594    0.447542
 H    0.128325   -0.082458   -0.379480
