62 
3wke_ligand_ani.xyz
 C   -6.231694    1.191461   -0.595157
 C   -7.434080   -0.424526    0.716929
 C   -5.064998    0.446083   -0.473881
 C   -6.286904   -1.186735    0.831083
 C   -7.415622    0.782475    0.010218
 C   -5.091200   -0.751938    0.243318
 C   -8.630014    1.636637   -0.179510
 C    2.501310   -0.500412   -0.119411
 C   -0.618542   -2.352418   -0.900208
 C   -0.630654    0.020861   -0.026215
 C   -1.994738   -2.581713   -0.274325
 C   -2.003880   -0.233366    0.598139
 C    7.802865   -0.343559   -0.100924
 C    6.757735    0.923940    1.792816
 C    7.162676    2.064430   -0.402592
 C    5.460831   -0.873655    0.629007
 C    5.871376    0.265917   -1.559517
 C    4.822344    1.526782    0.323755
 C    6.855342   -0.446325    1.104170
 C    7.266222    0.697558   -1.094062
 C    6.213234    1.963804    0.800685
 C    0.176040   -1.280963   -0.151201
 C   -2.783059   -1.279199   -0.201272
 C    4.903784    0.157547   -0.370903
 N    1.459194   -1.089309   -0.811128
 N    3.597074   -0.230245   -0.915582
 O   -8.759733    2.399060   -1.101232
 O    2.439120   -0.261263    1.079853
 O   -9.609228    1.522726    0.746279
 O   -4.030513   -1.581551    0.420977
 H   -6.239773    2.110668   -1.173031
 H   -8.358887   -0.801923    1.153289
 H   -4.155263    0.804282   -0.943740
 H   -6.284461   -2.125646    1.377100
 H   -0.741617   -2.025208   -1.945129
 H   -0.036733   -3.280741   -0.922452
 H   -0.055558    0.733226    0.574695
 H   -0.755330    0.462945   -1.026859
 H   -1.887318   -2.972692    0.746861
 H   -2.565697   -3.325599   -0.841270
 H   -2.573955    0.699765    0.673385
 H   -1.887104   -0.608600    1.624181
 H    7.885556   -1.320942   -0.594371
 H    8.809869   -0.061329    0.235197
 H    7.746257    1.233023    2.158592
 H    6.093338    0.856339    2.664956
 H    6.787559    2.813679   -1.112156
 H    8.156166    2.396417   -0.071613
 H    4.767185   -0.957253    1.473835
 H    5.508217   -1.857299    0.142392
 H    5.931894   -0.708653   -2.065144
 H    5.465061    0.988873   -2.280545
 H    4.410443    2.255041   -0.386580
 H    4.122113    1.455902    1.163009
 H    7.240053   -1.190448    1.814090
 H    7.939213    0.767995   -1.958730
 H    6.137252    2.941629    1.294634
 H    0.395092   -1.637622    0.861624
 H   -2.962898   -0.918021   -1.224354
 H    1.416882   -0.913508   -1.806970
 H    3.637018   -0.741084   -1.788571
 H   -9.305861    0.995779    1.497968
