30 
3wpn_ligand_dft.xyz
 O   -5.601538    0.782583   -1.210599
 S   -5.178503   -0.034390   -0.084575
 O   -5.647238   -1.397316    0.110164
 N   -5.545228    0.830328    1.303244
 C   -3.397887   -0.076606   -0.084957
 C   -2.691097    0.973876   -0.660964
 C   -1.303535    0.941492   -0.647946
 C   -2.740921   -1.159814    0.487480
 C   -1.352218   -1.181472    0.493398
 C   -0.617570   -0.132503   -0.069194
 C    0.866378   -0.163037   -0.060572
 C    1.592466    0.998251    0.218827
 C    2.974400    0.955265    0.223307
 F    3.650346    2.074129    0.502112
 C    1.561240   -1.345901   -0.331215
 C    2.949872   -1.368779   -0.322386
 C    3.677973   -0.216032   -0.043569
 C    5.182985   -0.216026   -0.025840
 F    5.674906   -1.432760   -0.312451
 F    5.662934    0.136241    1.176124
 F    5.688125    0.641555   -0.924863
 H   -6.093411    1.651824    1.068595
 H   -6.017524    0.237914    1.978727
 H   -3.223616    1.792677   -1.132630
 H   -0.745455    1.745027   -1.119050
 H   -3.312699   -1.976777    0.914027
 H   -0.832393   -2.014419    0.956915
 H    1.096679    1.932538    0.458975
 H    1.012421   -2.249316   -0.576329
 H    3.479542   -2.288443   -0.541779
