86 
3wt5_ligand_ani.xyz
 O    7.277373   -1.804170    0.234396
 C    7.757396   -0.463919    0.218562
 C    7.782992   -0.034576   -1.224867
 C    8.891115    0.342989   -1.851196
 C    6.416384   -0.049084   -1.872981
 O    6.430699    0.401952   -3.215282
 C    5.475887    0.861700   -1.081117
 C    6.815194    0.466777    0.998996
 C    5.453714    0.456762    0.360529
 C    4.367965    0.015237    1.027618
 C    3.045242   -0.197854    0.460863
 C    1.966525   -0.640879    1.144100
 C    1.969760   -1.096713    2.581443
 C    0.947397   -0.308543    3.414350
 C   -0.452647   -0.296532    2.776524
 C    0.585300   -0.721068    0.565299
 C   -0.426558    0.185235    1.318741
 C   -0.021249    1.661019    1.229387
 C    0.320384   -0.433390   -0.914505
 C   -1.209959   -0.216259   -0.971315
 C   -1.713194   -0.098349    0.495924
 C   -2.897019    0.879871    0.641899
 C   -3.381962    1.006960    2.091414
 C   -4.072250    0.520754   -0.317721
 C   -5.158816    1.614399   -0.374222
 C   -4.647037    3.041027   -0.562153
 C   -5.770647    4.059486   -0.746566
 C   -5.250522    5.481166   -0.944991
 C   -4.709842   -0.842715    0.008633
 C   -5.708168   -1.317762   -1.050197
 C   -6.037211   -2.819230   -0.971986
 C   -6.967889   -3.205848   -2.119567
 C   -6.666050   -3.196602    0.365582
 O   -4.835395   -3.590996   -1.054703
 H    7.121734   -2.056651    1.153796
 H    8.777813   -0.418200    0.631986
 H    8.865519    0.673119   -2.885620
 H    9.856971    0.336735   -1.350680
 H    6.030815   -1.077486   -1.808754
 H    6.866183   -0.284214   -3.736415
 H    5.853252    1.888106   -1.176818
 H    4.483123    0.844809   -1.540531
 H    7.237391    1.479029    0.967093
 H    6.767271    0.160544    2.052774
 H    4.481638   -0.196046    2.089671
 H    2.928529    0.005936   -0.602074
 H    2.961512   -1.033288    3.036061
 H    1.693175   -2.161439    2.601250
 H    1.305846    0.722680    3.533568
 H    0.887993   -0.728630    4.425365
 H   -1.116545    0.323036    3.387828
 H   -0.863765   -1.317174    2.799696
 H    0.233664   -1.746524    0.762752
 H   -0.052110    2.032569    0.199103
 H   -0.691060    2.289740    1.825882
 H    0.995508    1.819065    1.598537
 H    0.842694    0.475438   -1.235047
 H    0.659373   -1.247770   -1.562860
 H   -1.718699   -1.043782   -1.479895
 H   -1.443755    0.692103   -1.539514
 H   -2.049347   -1.095066    0.823855
 H   -2.522175    1.862476    0.315338
 H   -3.579443    0.021104    2.531692
 H   -2.652801    1.519304    2.724431
 H   -4.308781    1.587292    2.159237
 H   -3.652493    0.457556   -1.335721
 H   -5.778977    1.571576    0.534699
 H   -5.839143    1.382060   -1.204741
 H   -3.980763    3.079979   -1.437641
 H   -4.037426    3.342642    0.300430
 H   -6.386012    3.770507   -1.609823
 H   -6.433069    4.027942    0.129822
 H   -6.070504    6.194235   -1.079222
 H   -4.660347    5.808397   -0.080934
 H   -4.604476    5.542544   -1.828756
 H   -5.218311   -0.785639    0.981101
 H   -3.935667   -1.610794    0.107599
 H   -5.296668   -1.119218   -2.052979
 H   -6.647112   -0.750627   -0.983160
 H   -7.928153   -2.685756   -2.034138
 H   -6.527123   -2.941337   -3.089120
 H   -7.153913   -4.284802   -2.110045
 H   -7.611261   -2.662282    0.523159
 H   -6.869932   -4.271283    0.385918
 H   -5.995798   -2.968293    1.200139
 H   -4.431205   -3.402865   -1.912456
