89 
3wt7_ligand_dft.xyz
 O   -6.703866   -0.971452   -0.937042
 C   -5.507144   -1.699091   -0.641451
 C   -4.795350   -1.853263   -1.992522
 C   -5.555580   -2.683015   -3.026477
 C   -5.931658   -3.059934   -0.045848
 C   -4.829454   -4.101027    0.150971
 C   -4.630249   -0.943092    0.380493
 C   -4.023713    0.414432   -0.020696
 C   -5.102762    1.508287   -0.121046
 C   -4.586827    2.904317   -0.474385
 C   -5.709970    3.857955   -0.884617
 C   -5.210691    5.270006   -1.184244
 C   -2.840437    0.808275    0.909071
 C   -3.280173    0.890863    2.375620
 C   -1.613218   -0.101304    0.691971
 C   -1.157251   -0.136073   -0.797203
 C    0.380181   -0.305735   -0.802882
 C   -0.305702    0.219747    1.470977
 C    0.713421   -0.627066    0.651219
 C    0.032862    1.717448    1.392663
 C   -0.251559   -0.276603    2.925330
 C    1.169743   -0.209246    3.501604
 C    2.207508   -0.925636    2.619807
 C    2.118747   -0.496101    1.172733
 C    3.141738   -0.048591    0.425298
 C    4.521450    0.139228    0.858535
 C    5.542803    0.537942    0.081178
 C    6.937165    0.689139    0.624419
 C    5.431367    0.798029   -1.408932
 C    6.773439    0.619597   -2.138767
 O    7.479074    1.854901   -2.047823
 C    7.552942   -0.511340   -1.510447
 C    7.880654   -1.608029   -2.190113
 C    7.865152   -0.360351   -0.022169
 O    7.787745   -1.603515    0.650590
 H   -7.162482   -0.815628   -0.101681
 H   -3.798006   -2.277907   -1.821584
 H   -4.642103   -0.849116   -2.401368
 H   -5.623957   -3.738795   -2.743321
 H   -5.051755   -2.635316   -3.997143
 H   -6.571360   -2.297183   -3.149649
 H   -6.709836   -3.469417   -0.698850
 H   -6.416506   -2.865832    0.922274
 H   -4.336970   -4.350083   -0.794881
 H   -5.251036   -5.026239    0.556712
 H   -4.058640   -3.760197    0.849815
 H   -5.228076   -0.809183    1.295716
 H   -3.817685   -1.621591    0.661888
 H   -3.599606    0.315676   -1.025846
 H   -5.672050    1.563922    0.818968
 H   -5.822276    1.188956   -0.881364
 H   -3.857673    2.831784   -1.295414
 H   -4.046516    3.340981    0.376230
 H   -6.461815    3.895379   -0.084757
 H   -6.221623    3.451136   -1.766549
 H   -4.468450    5.260328   -1.990861
 H   -4.734506    5.713567   -0.302088
 H   -6.029356    5.929715   -1.490096
 H   -2.531401    1.814282    0.598768
 H   -4.247711    1.394813    2.471179
 H   -2.566824    1.458425    2.978557
 H   -3.377386   -0.104493    2.824624
 H   -1.886491   -1.125256    0.986823
 H   -1.441944    0.792847   -1.305067
 H   -1.654632   -0.947892   -1.337210
 H    0.720317   -1.087760   -1.488318
 H    0.864580    0.625849   -1.114818
 H    0.417068   -1.676395    0.823463
 H    1.079401    1.907297    1.647898
 H   -0.593372    2.296067    2.080440
 H   -0.130106    2.120401    0.387627
 H   -0.922532    0.298510    3.569888
 H   -0.604536   -1.318044    2.953835
 H    1.179630   -0.654600    4.503012
 H    1.467113    0.838615    3.626890
 H    3.206893   -0.778288    3.036521
 H    2.008995   -2.007507    2.662477
 H    2.927709    0.208279   -0.609369
 H    4.741352   -0.030972    1.910612
 H    7.316357    1.689514    0.390358
 H    6.970311    0.549781    1.708863
 H    4.705434    0.115536   -1.861771
 H    5.083073    1.820829   -1.602496
 H    6.574608    0.387706   -3.195182
 H    8.346352    1.719029   -2.449170
 H    8.387773   -2.437108   -1.705420
 H    7.637530   -1.717747   -3.244419
 H    8.905227   -0.042354    0.105855
 H    6.871279   -1.902402    0.563064
