89 
3wt7_ligand_ani.xyz
 O   -6.851836   -1.101060   -0.446904
 C   -5.584425   -1.768977   -0.384620
 C   -5.124254   -1.879559   -1.843936
 C   -6.036758   -2.736904   -2.717357
 C   -5.827338   -3.151169    0.260299
 C   -4.683600   -4.159850    0.153016
 C   -4.581587   -0.971522    0.480612
 C   -4.016090    0.343468   -0.098007
 C   -5.129462    1.391595   -0.292988
 C   -4.658656    2.761787   -0.777112
 C   -5.815952    3.708189   -1.091071
 C   -5.342125    5.082599   -1.558276
 C   -2.820057    0.888314    0.747813
 C   -3.249924    1.222073    2.181610
 C   -1.595715   -0.048834    0.703671
 C   -1.152731   -0.393733   -0.746892
 C    0.386137   -0.545074   -0.731197
 C   -0.289605    0.427301    1.396908
 C    0.728150   -0.557418    0.760686
 C    0.038918    1.879552    1.031854
 C   -0.225842    0.209844    2.915617
 C    1.201183    0.368245    3.468903
 C    2.221553   -0.514922    2.736272
 C    2.130788   -0.330344    1.242013
 C    3.161670   -0.015268    0.432554
 C    4.533046    0.245686    0.863775
 C    5.581511    0.434046    0.040506
 C    6.968502    0.686144    0.559825
 C    5.457857    0.376589   -1.465134
 C    6.808914    0.331185   -2.181971
 O    7.329501    1.659007   -2.219462
 C    7.749283   -0.597981   -1.453738
 C    8.371166   -1.599273   -2.068930
 C    7.977824   -0.335299    0.023877
 O    7.951417   -1.541008    0.775189
 H   -7.228282   -1.125962    0.443383
 H   -4.093212   -2.262488   -1.878948
 H   -5.097513   -0.867579   -2.263952
 H   -6.039443   -3.784833   -2.399354
 H   -5.709946   -2.710071   -3.761963
 H   -7.064926   -2.366290   -2.667757
 H   -6.734061   -3.574344   -0.190480
 H   -6.070651   -2.989967    1.320722
 H   -4.486543   -4.438687   -0.886624
 H   -4.927170   -5.077344    0.698272
 H   -3.749050   -3.770582    0.571220
 H   -5.076729   -0.755152    1.439695
 H   -3.749621   -1.645428    0.715713
 H   -3.614465    0.133470   -1.100204
 H   -5.691417    1.519978    0.644459
 H   -5.854400    0.988315   -1.008792
 H   -4.036627    2.643542   -1.677938
 H   -4.016821    3.233206   -0.020035
 H   -6.442782    3.820888   -0.195257
 H   -6.456491    3.256653   -1.861495
 H   -4.730090    5.000516   -2.464292
 H   -4.729992    5.568323   -0.789230
 H   -6.185105    5.744623   -1.781779
 H   -2.502208    1.821070    0.256787
 H   -4.214556    1.740546    2.205822
 H   -2.534551    1.882309    2.679087
 H   -3.350299    0.314071    2.789422
 H   -1.860283   -0.987087    1.214600
 H   -1.450420    0.398987   -1.443972
 H   -1.647121   -1.311120   -1.088378
 H    0.729827   -1.450296   -1.242304
 H    0.856063    0.308703   -1.232596
 H    0.433022   -1.544804    1.150605
 H    1.067029    2.136297    1.300971
 H   -0.624500    2.575512    1.556887
 H   -0.070993    2.067534   -0.041952
 H   -0.889939    0.901010    3.444415
 H   -0.584818   -0.806293    3.139104
 H    1.208765    0.135395    4.540309
 H    1.514138    1.417376    3.383219
 H    3.229561   -0.326398    3.113740
 H    2.003292   -1.569410    2.961409
 H    2.975102    0.039272   -0.640702
 H    4.713135    0.292744    1.935636
 H    7.284849    1.682353    0.233601
 H    6.996183    0.663426    1.654928
 H    4.884493   -0.514814   -1.755441
 H    4.919800    1.254051   -1.844050
 H    6.662400   -0.036002   -3.208470
 H    8.218687    1.604877   -2.594895
 H    9.029767   -2.268818   -1.522662
 H    8.229307   -1.788391   -3.129997
 H    8.989278    0.061621    0.168711
 H    7.043381   -1.872973    0.728712
