25 
3wtj_ligand_ani.xyz
 C    1.160328    1.041156    0.240979
 C    2.386740    1.232694   -0.377756
 C    3.370963    0.272463   -0.159367
Cl    4.927883    0.482717   -0.919914
 N    3.220313   -0.798325    0.590353
 C    2.031602   -0.963203    1.176077
 C    0.962325   -0.084532    1.041535
 C   -0.372227   -0.373529    1.694251
 N   -1.389499   -0.806132    0.742299
 C   -1.089425   -1.960016   -0.090287
 C   -2.379348   -2.253767   -0.844436
 S   -3.079241   -0.622070   -1.217272
 C   -2.292326    0.059212    0.225004
 N   -2.521634    1.209530    0.773677
 C   -3.423969    2.013681    0.207380
 N   -4.190781    2.770103   -0.229924
 H    0.363624    1.768366    0.104902
 H    2.583205    2.092807   -1.008732
 H    1.934278   -1.852318    1.799069
 H   -0.762133    0.510338    2.202535
 H   -0.242629   -1.168305    2.438847
 H   -0.785922   -2.800794    0.540297
 H   -0.271611   -1.721756   -0.783018
 H   -3.079641   -2.815103   -0.221193
 H   -2.202094   -2.797493   -1.772922
