25 
3wtj_ligand_dft.xyz
 C    1.175842    0.995916    0.459472
 C    2.392904    1.249757   -0.150730
 C    3.334927    0.219775   -0.159368
Cl    4.880535    0.503863   -0.926823
 N    3.150040   -0.969943    0.372924
 C    1.970117   -1.194864    0.958488
 C    0.944861   -0.258717    1.033885
 C   -0.378683   -0.604161    1.675347
 N   -1.420865   -0.885752    0.693476
 C   -1.310398   -2.056383   -0.162651
 C   -2.654855   -2.180464   -0.873678
 S   -3.208940   -0.460825   -1.142713
 C   -2.209047    0.102547    0.205773
 N   -2.187572    1.300158    0.699443
 C   -3.033374    2.215629    0.227544
 N   -3.731265    3.073351   -0.139624
 H    0.403985    1.759231    0.494845
 H    2.614970    2.207974   -0.604582
 H    1.845343   -2.184577    1.396285
 H   -0.738944    0.216690    2.297976
 H   -0.273745   -1.492314    2.307411
 H   -1.101101   -2.939252    0.448786
 H   -0.489399   -1.929995   -0.882205
 H   -3.388700   -2.699865   -0.253346
 H   -2.564600   -2.689281   -1.833812
