28 
3wtm_ligand_dft.xyz
Cl   -4.915706    0.936679   -0.829698
 C   -3.397951    0.420547   -0.131182
 N   -3.403738   -0.725834    0.514945
 C   -2.246261   -1.126824    1.049453
 C   -1.056482   -0.411991    0.966301
 C    0.216787   -0.957056    1.578069
 N    1.226837   -1.316837    0.599809
 C   -1.086629    0.800528    0.268613
 C   -2.275475    1.234040   -0.293932
 C    2.117260   -0.427614    0.049280
 C    2.464828    0.785739    0.607063
 N    2.585937   -0.947330   -1.106401
 C    2.182670   -2.334331   -1.257284
 C    0.934037   -2.367979   -0.372175
 N    3.467388    1.597468    0.066627
 O    4.073183    1.237620   -0.962036
 O    3.712351    2.656314    0.641491
 H   -2.279487   -2.079019    1.577053
 H   -0.013058   -1.857091    2.159009
 H    0.654168   -0.242067    2.279241
 H   -0.185227    1.397907    0.162749
 H   -2.341173    2.167599   -0.839434
 H    2.037420    1.168290    1.518533
 H    3.419060   -0.523425   -1.497072
 H    2.955317   -3.019720   -0.884902
 H    1.966039   -2.573987   -2.300059
 H    0.027874   -2.128178   -0.946431
 H    0.790108   -3.327947    0.130443
