28 
3wtm_ligand_xtb.xyz
Cl   -4.593420    0.635055   -0.952755
 C   -3.158630    0.038182   -0.224861
 N   -2.249506   -0.448411   -1.041834
 C   -1.131371   -0.923778   -0.526299
 C   -0.862305   -0.946111    0.836511
 C    0.421788   -1.517120    1.391269
 N    1.552386   -1.354496    0.519499
 C   -1.833599   -0.419087    1.685025
 C   -3.006582    0.085137    1.157372
 C    2.027639   -0.160908    0.083401
 C    1.644609    1.073653    0.563549
 N    2.939614   -0.364352   -0.877785
 C    3.211638   -1.764889   -1.089199
 C    2.116412   -2.448727   -0.250487
 N    2.222767    2.242185    0.138128
 O    3.124328    2.203676   -0.713347
 O    1.826153    3.291768    0.628993
 H   -0.422742   -1.296663   -1.252560
 H    0.295059   -2.589533    1.570031
 H    0.638308   -1.043063    2.356080
 H   -1.668971   -0.402125    2.752915
 H   -3.776925    0.504690    1.782649
 H    0.875512    1.188126    1.304864
 H    3.473382    0.430658   -1.217824
 H    4.215707   -2.027040   -0.735677
 H    3.143137   -2.017592   -2.150450
 H    1.353151   -2.918862   -0.882193
 H    2.524243   -3.210677    0.420096
