23 
3wto_ligand_ani.xyz
 N    1.890235    0.906169   -1.804033
 N    2.273705    0.306501    0.476566
 C    2.554904    0.147834   -0.847819
 N    3.511456   -0.719394   -1.064018
 C    3.866401   -1.165937    0.195297
 C    3.120504   -0.553409    1.157260
 C   -2.704768   -0.148668    0.024173
Cl   -4.337333   -0.617525   -0.372797
 N   -2.458276    1.144262    0.079313
 C   -1.209820    1.508643    0.382664
 C   -0.176628    0.618338    0.644361
 C   -0.471340   -0.743284    0.568533
 C   -1.760644   -1.145421    0.256462
 C    1.202506    1.126675    1.007038
 H    0.882145    0.867736   -1.699498
 H    2.169872    0.617145   -2.732636
 H    4.647449   -1.903402    0.325539
 H    3.094163   -0.642555    2.234086
 H   -1.030848    2.583519    0.416906
 H    0.312605   -1.476354    0.740834
 H   -2.032486   -2.193308    0.191293
 H    1.313630    2.147090    0.625489
 H    1.331615    1.166669    2.092935
