58 
3wv1_ligand_ani.xyz
 C   -5.461388    1.858108   -1.716272
 C    4.807904    2.760595    0.403499
 C    6.967038    1.834307   -0.140103
 C   -5.094194    0.702993   -1.042132
 C    4.358202    1.500983    0.768686
 C    6.518960    0.575744    0.243208
 C   -0.326031   -3.892471   -1.471494
 C   -6.600864    2.573677   -1.357149
 C    0.915049   -4.373792   -1.835696
 C   -7.020302    0.944208    0.374948
 C    0.710374   -2.427952    0.174651
 C    6.107932    2.932887   -0.075973
 C    5.209599    0.393253    0.691038
 C   -5.873942    0.240993    0.021184
 C   -0.448575   -2.922081   -0.460311
 C   -7.386119    2.107919   -0.304048
 C    1.962794   -2.984912   -0.146722
 C    2.048081   -3.907596   -1.172876
 C    0.590481   -1.306867    1.129725
 C   -1.795270   -1.571628    0.769624
 C    6.528464    4.321976   -0.454942
 C   -3.126812   -1.003982    1.224074
 C   -8.898621    3.920513   -0.500510
 C    4.679851   -0.970107    1.046823
 C   -5.523105   -1.011089    0.810797
 C    3.783608   -1.536673   -0.047640
 N   -1.730671   -2.481755   -0.136346
 N   -0.732458   -0.993938    1.403288
 N   -4.191812   -1.521515    0.579457
 O    1.494751   -0.684087    1.653201
 O    5.988315    5.310186   -0.031291
 O   -3.181451   -0.139384    2.085224
 O    7.565332    4.435336   -1.315703
 O   -8.521792    2.717678    0.132458
 O    3.096079   -2.654076    0.518957
 F    3.266403   -4.352012   -1.523696
 H   -4.847528    2.215430   -2.539989
 H    4.165158    3.632569    0.477088
 H    8.005171    1.950547   -0.450569
 H   -4.197953    0.165417   -1.336463
 H    3.336413    1.358609    1.119095
 H    7.193053   -0.276919    0.186623
 H   -1.232930   -4.240434   -1.955411
 H   -6.861627    3.477989   -1.896136
 H    1.033146   -5.109279   -2.624801
 H   -7.656452    0.604189    1.188603
 H   -8.126668    4.693231   -0.387846
 H   -9.099559    3.767979   -1.569112
 H   -9.813272    4.248448   -0.004547
 H    4.075128   -0.915139    1.957129
 H    5.497726   -1.675284    1.238235
 H   -6.234211   -1.811986    0.580351
 H   -5.615311   -0.792796    1.879587
 H    4.352539   -1.864026   -0.929042
 H    3.052295   -0.785797   -0.369866
 H   -0.935562   -0.258433    2.077989
 H   -4.027396   -2.248047   -0.102872
 H    7.796251    3.573031   -1.686665
