38 
3wv2_ligand_dft.xyz
 C   -5.489233   -2.151159    0.412174
 C   -4.476695   -2.922287   -0.176970
 C    3.813263    0.913071    1.644978
 C   -5.276905   -0.807828    0.659560
 C    2.897993    1.317205    0.686641
 C   -3.262953   -2.353606   -0.515538
 C    4.766529   -0.068813    1.365870
 C    3.869069   -0.245729   -0.871031
 C   -4.052841   -0.220621    0.321373
 C    2.926513    0.730087   -0.584645
 C   -3.033543   -0.991319   -0.270742
 C    4.794082   -0.649618    0.099438
 C   -3.830144    1.209191    0.588029
 C   -1.638331    0.806198   -0.377463
 C   -0.334286    1.501101   -0.709723
 C    6.624041   -2.055742    0.644115
 C    1.912846    1.148081   -1.628607
 N   -1.802324   -0.447179   -0.622586
 N   -2.561459    1.627618    0.190624
 N    0.566526    0.705609   -1.306590
 O   -4.624595    1.977970    1.092703
 O   -0.188767    2.686597   -0.434982
 O    5.669185   -1.610446   -0.292421
 H   -6.437492   -2.610090    0.672987
 H   -4.647181   -3.977320   -0.369395
 H    3.798116    1.366668    2.631644
 H   -6.038985   -0.183425    1.114264
 H    2.162165    2.084776    0.908007
 H   -2.469376   -2.936110   -0.971544
 H    5.471209   -0.363035    2.135008
 H    3.913954   -0.715779   -1.849574
 H    7.283336   -1.239454    0.966317
 H    6.146023   -2.502870    1.525316
 H    7.216257   -2.815199    0.132371
 H    2.182716    0.745516   -2.609601
 H    1.872010    2.237223   -1.708792
 H   -2.291081    2.596974    0.330197
 H    0.316116   -0.272451   -1.384507
