38 
3wv2_ligand_ani.xyz
 C   -6.065602   -1.318737    0.480026
 C   -5.289902   -2.305606   -0.152158
 C    3.425611   -1.033448    1.565835
 C   -5.516107   -0.077759    0.730600
 C    2.469852   -0.743398    0.603126
 C   -3.987043   -2.048021   -0.524270
 C    4.776564   -0.776969    1.346119
 C    4.209969    0.067984   -0.843339
 C   -4.195821    0.196027    0.357439
 C    2.860882   -0.182334   -0.614984
 C   -3.415056   -0.785109   -0.273959
 C    5.168371   -0.221004    0.129346
 C   -3.625366    1.524953    0.631415
 C   -1.633720    0.613477   -0.411042
 C   -0.212348    0.994679   -0.779001
 C    7.446749   -0.163418    0.775916
 C    1.875276    0.170079   -1.717241
 N   -2.095527   -0.560946   -0.663433
 N   -2.311434    1.633600    0.194060
 N    0.485019    0.002530   -1.368301
 O   -4.191643    2.453971    1.172793
 O    0.225599    2.107980   -0.532152
 O    6.455674    0.073030   -0.199572
 H   -7.090318   -1.535844    0.767563
 H   -5.721561   -3.283839   -0.350258
 H    3.115861   -1.469018    2.513180
 H   -6.080638    0.713469    1.217011
 H    1.422556   -0.949706    0.801396
 H   -3.371709   -2.797556   -1.013990
 H    5.502337   -1.010794    2.117479
 H    4.546448    0.496251   -1.784406
 H    7.262180    0.420990    1.687012
 H    7.507425   -1.227645    1.039250
 H    8.390646    0.152314    0.329309
 H    2.079574   -0.437566   -2.606063
 H    2.018048    1.217862   -2.001247
 H   -1.810721    2.510940    0.332430
 H    0.012569   -0.874363   -1.536476
