35 
3wv3_ligand_ani.xyz
 C   -3.388472   -1.058632   -1.524690
 C   -2.441131   -0.719473   -0.570000
 C   -4.743683   -0.812278   -1.319930
 C    5.452182   -0.244948   -0.758488
 C   -4.197175    0.126876    0.836219
 C    5.625345   -1.528410   -0.361896
 C    4.156361    0.250569   -0.433154
 C   -2.844552   -0.117866    0.624582
 C   -5.147341   -0.213335   -0.127755
 C    3.366540   -0.682824    0.208887
 C    3.623238    1.577081   -0.702692
 C    1.627200    0.694920    0.379704
 C    0.218011    1.087152    0.764669
 C   -7.429013   -0.250779   -0.764236
 C   -1.868275    0.283655    1.717763
 N    2.087959   -0.495213    0.631337
 N    2.308548    1.691877   -0.236112
 N   -0.476263    0.108910    1.380966
 O    4.184997    2.501856   -1.251365
 O   -0.217844    2.199520    0.506367
 O   -6.439103    0.079114    0.184652
 S    4.214287   -2.179390    0.421767
 H   -3.068295   -1.526462   -2.453062
 H   -1.390528   -0.918949   -0.756322
 H   -5.463140   -1.086969   -2.083596
 H    6.196484    0.358416   -1.267356
 H   -4.543166    0.589526    1.757248
 H    6.504449   -2.148998   -0.479203
 H   -7.269850    0.278104   -1.713246
 H   -7.457508   -1.331381   -0.956611
 H   -8.379039    0.064273   -0.330294
 H   -2.073904   -0.288459    2.629457
 H   -2.014425    1.341611    1.958093
 H    1.820245    2.577438   -0.372948
 H   -0.011437   -0.771094    1.555112
