41 
3wyk_ligand_dft.xyz
 C   -1.473182    3.671252   -1.103451
 C   -1.831942    2.593335   -1.910977
 C   -1.775932    3.649148    0.256127
 C    2.146882    2.045558    0.013999
 C    3.452327    1.603701    0.204642
 C   -2.492186    1.498653   -1.363663
 C   -2.425942    2.551861    0.813117
 C    1.110790    1.139705   -0.163433
 C   -4.265719   -1.626925    1.034730
 C    2.681201   -0.685538    0.072367
 C   -5.127709   -0.602123    1.458680
 C    3.710841    0.237249    0.233100
 C   -2.775981    1.480303   -0.000451
 C    1.386289   -0.226317   -0.142392
 C   -3.190327   -0.968887    0.469833
 C   -0.556847   -3.212335   -1.106315
 C    0.476226   -2.349239   -0.965379
 C   -1.918666   -1.506745   -0.015754
 C   -1.867452   -2.881623   -0.585683
 C    5.123704   -0.256594    0.399590
 N   -4.649406    0.600712    1.168424
 N   -0.875777   -0.740492    0.123788
 N   -3.466922    0.372277    0.567894
 N    0.315964   -1.153377   -0.328457
 O   -2.836664   -3.629428   -0.616029
 F    5.856999    0.577240    1.152282
 F    5.164496   -1.468880    0.977377
 F    5.744754   -0.366359   -0.788344
 H   -0.966282    4.528841   -1.535232
 H   -1.608623    2.609014   -2.973188
 H   -1.505174    4.488826    0.888816
 H    1.927771    3.108131   -0.001735
 H    4.260752    2.312838    0.342973
 H   -2.792011    0.660705   -1.984816
 H   -2.670705    2.516684    1.868761
 H    0.093455    1.479097   -0.311514
 H   -4.380409   -2.694643    1.123546
 H    2.893604   -1.745769    0.151423
 H   -6.082985   -0.687982    1.957729
 H   -0.422378   -4.156243   -1.620162
 H    1.464778   -2.542562   -1.363894
