41 
3wyk_ligand_ani.xyz
 C   -1.280814    3.519295   -1.295772
 C   -1.587447    2.364468   -2.013134
 C   -1.738719    3.663428    0.013923
 C    2.107044    1.974227    0.335036
 C    3.431123    1.548767    0.365309
 C   -2.321727    1.344428   -1.420365
 C   -2.492155    2.659376    0.606759
 C    1.076222    1.052211    0.198297
 C   -4.381786   -1.509396    1.004063
 C    2.701574   -0.744959    0.126273
 C   -5.192561   -0.441259    1.418932
 C    3.717605    0.190740    0.265300
 C   -2.756614    1.489712   -0.102630
 C    1.383962   -0.303210    0.075903
 C   -3.258434   -0.906463    0.479256
 C   -0.645793   -3.167389   -1.076831
 C    0.405604   -2.364211   -0.830662
 C   -1.961802   -1.485837    0.073429
 C   -1.960422   -2.805966   -0.593872
 C    5.150801   -0.257816    0.290932
 N   -4.650098    0.738626    1.147685
 N   -0.893627   -0.785968    0.350712
 N   -3.483840    0.450194    0.540073
 N    0.304262   -1.214423   -0.110591
 O   -2.966715   -3.495787   -0.728056
 F    5.775191    0.147463    1.414029
 F    5.266788   -1.595472    0.225046
 F    5.846944    0.257856   -0.741352
 H   -0.686702    4.305184   -1.753800
 H   -1.236819    2.252452   -3.035706
 H   -1.506151    4.564635    0.575815
 H    1.876673    3.032575    0.424539
 H    4.241932    2.261928    0.471122
 H   -2.540944    0.432791   -1.970541
 H   -2.869009    2.765422    1.619235
 H    0.039437    1.359320    0.181796
 H   -4.550971   -2.574760    1.051041
 H    2.938716   -1.804265    0.099019
 H   -6.158900   -0.473521    1.902926
 H   -0.525635   -4.090269   -1.629276
 H    1.400929   -2.593692   -1.207250
