45 
3wyl_ligand_ani.xyz
 C   -1.597601   -3.852687    1.497487
 C   -2.093805   -2.747230    2.185672
 C   -1.750555   -3.935292    0.113610
 C    2.079135   -2.415937    0.312891
 C    3.399822   -2.055824    0.061442
 C   -2.727869   -1.718861    1.497389
 C   -2.394014   -2.916700   -0.579965
 C    1.068453   -1.462795    0.281621
 C   -4.288426    1.189858   -1.287069
 C    2.706844    0.241305   -0.245913
 C   -5.142653    0.132210   -1.627870
 C    3.700101   -0.730010   -0.226491
 C   -2.860407   -1.801121    0.110989
 C    1.392799   -0.130440    0.019322
 C   -3.212744    0.584354   -0.665881
 C    0.515701    2.131539    0.433423
 C   -1.908094    1.145141   -0.264660
 C   -0.506586    3.014290    0.485146
 C   -1.848256    2.576209    0.096112
 C    0.850037    4.796816    1.244935
 C    5.107293   -0.307375   -0.533944
 N   -4.672415   -1.043309   -1.234483
 N   -0.876375    0.343859   -0.278657
 N   -3.507221   -0.762047   -0.623358
 N    0.341626    0.830449    0.029897
 O   -2.800474    3.346960    0.086645
 O   -0.423700    4.304862    0.857379
 F    5.991433   -1.307463   -0.380816
 F    5.218382    0.138176   -1.801004
 F    5.498797    0.706272    0.263219
 H   -1.093768   -4.650188    2.037133
 H   -1.977560   -2.683937    3.264416
 H   -1.365708   -4.797067   -0.426447
 H    1.834671   -3.451851    0.530062
 H    4.191730   -2.797701    0.085768
 H   -3.111294   -0.854184    2.032830
 H   -2.530890   -2.975411   -1.655086
 H    0.036612   -1.732546    0.466298
 H   -4.401627    2.251984   -1.443226
 H    2.960488    1.265927   -0.499711
 H   -6.093059    0.167916   -2.142464
 H    1.532485    2.384700    0.723119
 H    1.225072    4.266964    2.127773
 H    1.574415    4.701516    0.427927
 H    0.699969    5.849065    1.483567
