45 
3wyl_ligand_dft.xyz
 C   -1.578697   -3.763831    1.614868
 C   -1.881607   -2.547831    2.224910
 C   -1.920457   -3.972962    0.280679
 C    2.070059   -2.460323    0.123754
 C    3.387507   -2.076587   -0.109403
 C   -2.523825   -1.545333    1.506557
 C   -2.552232   -2.969688   -0.448210
 C    1.053430   -1.517686    0.168493
 C   -4.262952    1.163335   -1.377424
 C    2.665665    0.225482   -0.291178
 C   -5.155602    0.104779   -1.615784
 C    3.675876   -0.732369   -0.317001
 C   -2.845427   -1.758338    0.168244
 C    1.358470   -0.171442   -0.031021
 C   -3.201650    0.583629   -0.710810
 C    0.519089    2.075698    0.466873
 C   -1.912192    1.158716   -0.319975
 C   -0.495171    2.982301    0.477413
 C   -1.833561    2.589998    0.030249
 C    0.863201    4.694533    1.353621
 C    5.098652   -0.287970   -0.529036
 N   -4.707892   -1.043139   -1.125438
 N   -0.886217    0.351047   -0.352144
 N   -3.515280   -0.745434   -0.574035
 N    0.307848    0.792616    0.021881
 O   -2.777548    3.364446   -0.026585
 O   -0.396609    4.251843    0.898979
 F    5.845198   -1.249597   -1.091542
 F    5.169741    0.797116   -1.319167
 F    5.685905    0.038670    0.636610
 H   -1.085240   -4.548126    2.180756
 H   -1.628543   -2.382427    3.267549
 H   -1.694342   -4.920814   -0.198115
 H    1.826832   -3.506250    0.279493
 H    4.180746   -2.814833   -0.141382
 H   -2.779966   -0.600575    1.975206
 H   -2.826670   -3.113957   -1.487148
 H    0.028067   -1.813377    0.350136
 H   -4.351333    2.202516   -1.648774
 H    2.903804    1.260303   -0.509499
 H   -6.112030    0.130349   -2.119543
 H    1.515585    2.288278    0.827168
 H    1.194933    4.122020    2.230291
 H    1.620529    4.621144    0.561521
 H    0.732630    5.739432    1.633298
