49 
3wym_ligand_ani.xyz
 C    0.565815   -3.490652    1.508393
 C   -0.449750   -2.859241    2.224726
 C    0.404731   -3.735320    0.144413
 C   -1.602988   -2.432641    1.576068
 C   -0.758061   -3.337423   -0.505058
 C    2.574532   -0.618796    0.129190
 C    1.235658   -0.270972    0.155780
 C    6.856731   -0.953544    0.028036
 C   -4.655289   -1.031311   -1.157469
 C    3.147988    1.676038   -0.362372
 C    6.935582    0.222635   -0.751713
 C   -4.768290   -2.397820   -1.447914
 C    5.530583   -1.046471    0.366793
 C   -1.737638   -2.644385    0.203654
 C    3.531648    0.355426   -0.139679
 C    0.821505    1.043116   -0.071923
 C    1.807761    2.001400   -0.315302
 C   -3.409915   -0.898541   -0.574079
 C   -1.148421    2.516044    0.237904
 C   -2.638057    0.320213   -0.248845
 C   -2.485013    2.683695    0.332888
 C   -3.378741    1.553949    0.077994
 C   -2.328031    4.976660    0.917058
 N    5.757725    0.811568   -0.879101
 N   -3.703777   -3.086059   -1.059365
 N   -1.335618    0.225664   -0.297637
 N    4.903205    0.021563   -0.200331
 N   -2.887968   -2.174558   -0.499509
 N   -0.564139    1.303565   -0.061688
 O   -4.596484    1.661703    0.133123
 O   -3.118778    3.831495    0.641048
 F    1.475550    3.294674   -0.545442
 H    1.483004   -3.787605    2.010496
 H   -0.334022   -2.682330    3.290975
 H    1.195247   -4.228958   -0.416491
 H   -2.388243   -1.924034    2.129421
 H   -0.904783   -3.537185   -1.561825
 H    2.863142   -1.654250    0.292085
 H    0.496845   -1.026071    0.371007
 H    7.656973   -1.625979    0.301364
 H   -5.354072   -0.225789   -1.326604
 H    3.883284    2.445996   -0.572430
 H    7.804275    0.663980   -1.223782
 H   -5.584021   -2.923575   -1.925035
 H    4.992961   -1.756280    0.980177
 H   -0.442856    3.327794    0.408405
 H   -1.677346    4.806447    1.782235
 H   -1.715025    5.248601    0.050487
 H   -3.033259    5.777014    1.137288
