58 
3wz8_ligand_ani.xyz
 O    1.028183   -2.642098   -0.481491
 C    1.043199   -1.463947   -0.177679
 C    2.325802   -0.675516   -0.008183
 C    3.159070   -0.645831   -1.300331
 N    4.429179    0.039339   -1.167782
 C    5.492286   -0.506576   -0.449143
 C    6.597107    0.307893   -0.160243
 C    7.704524   -0.204879    0.499086
 C    7.742414   -1.539364    0.891949
 C    6.649883   -2.351812    0.612082
 C    5.533460   -1.850438   -0.049918
 N   -0.111973   -0.739449    0.030522
 C   -1.402872   -1.249736   -0.015822
 S   -1.760582   -2.943477   -0.105811
 C   -2.544070   -0.472678    0.058661
 C   -3.740123   -1.268504    0.073882
 C   -5.123719   -0.726767    0.068638
 C   -6.082055   -1.242246    0.944572
 C   -7.385508   -0.759605    0.929093
 C   -7.752586    0.229869    0.021901
 C   -6.808089    0.737232   -0.865636
 C   -5.502029    0.264722   -0.840919
 C   -3.450676   -2.600546    0.012088
 C   -2.507872    1.013566    0.176959
 O   -3.123083    1.642345    1.024971
 N   -1.727856    1.636769   -0.763814
 C   -1.267175    3.004036   -0.594211
 C    0.164247    3.044876   -0.100519
 C    1.224948    3.270846   -0.979618
 C    2.541890    3.245576   -0.528917
 C    2.818318    2.996808    0.813172
 C    1.766626    2.764629    1.698811
 C    0.452124    2.779899    1.241646
 H    2.910088   -1.164408    0.780421
 H    2.122981    0.348720    0.323796
 H    2.600963   -0.132667   -2.095140
 H    3.328607   -1.667633   -1.654413
 H    4.330167    1.038893   -1.028765
 H    6.580516    1.351475   -0.468464
 H    8.546986    0.450050    0.708223
 H    8.610533   -1.939152    1.408216
 H    6.659186   -3.397572    0.911216
 H    4.690987   -2.510510   -0.241430
 H   -0.018171    0.233008    0.300938
 H   -5.803184   -2.014963    1.658642
 H   -8.118796   -1.161703    1.623404
 H   -8.773474    0.603408    0.005979
 H   -7.090949    1.506561   -1.579009
 H   -4.765504    0.656977   -1.539280
 H   -4.172636   -3.406074   -0.014098
 H   -1.252075    1.067757   -1.448597
 H   -1.944240    3.477050    0.121158
 H   -1.357688    3.528796   -1.550940
 H    1.019379    3.476089   -2.026681
 H    3.351820    3.446852   -1.227080
 H    3.844970    2.985318    1.171826
 H    1.970835    2.570498    2.748317
 H   -0.362974    2.581235    1.935998
