58 
3wz8_ligand_dft.xyz
 O    0.345367   -0.630703   -1.770374
 C    0.788488   -0.823526   -0.648208
 C    2.220917   -0.534228   -0.259214
 C    3.074826   -0.091376   -1.450846
 N    4.394432    0.368435   -1.066325
 C    5.306322   -0.477419   -0.439395
 C    6.312329    0.073217    0.370905
 C    7.263981   -0.736918    0.972865
 C    7.239958   -2.118555    0.791679
 C    6.245577   -2.670671   -0.008470
 C    5.286519   -1.868383   -0.618917
 N    0.003522   -1.275857    0.384667
 C   -1.366501   -1.571222    0.261693
 S   -1.911400   -3.219032    0.224627
 C   -2.409083   -0.690318    0.205759
 C   -3.685312   -1.345856    0.141397
 C   -4.990606   -0.656307    0.050543
 C   -6.088905   -1.124612    0.777476
 C   -7.327695   -0.502530    0.668106
 C   -7.483835    0.601448   -0.164940
 C   -6.393813    1.078513   -0.888006
 C   -5.156832    0.453908   -0.783372
 C   -3.549842   -2.706675    0.148404
 C   -2.211616    0.794931    0.326679
 O   -2.647211    1.427041    1.277281
 N   -1.516043    1.341893   -0.703734
 C   -1.032341    2.709554   -0.650156
 C    0.360818    2.818946   -0.060419
 C    1.444610    3.213789   -0.842177
 C    2.720047    3.325630   -0.287976
 C    2.923959    3.027296    1.055782
 C    1.845365    2.622127    1.843745
 C    0.573425    2.521189    1.291171
 H    2.664225   -1.410154    0.230245
 H    2.207006    0.270322    0.487850
 H    2.573146    0.731326   -1.964028
 H    3.159837   -0.898509   -2.184138
 H    4.364537    1.288906   -0.647821
 H    6.344065    1.150672    0.519436
 H    8.031137   -0.282553    1.593746
 H    7.983425   -2.751112    1.265664
 H    6.209359   -3.745196   -0.165449
 H    4.529166   -2.328252   -1.245872
 H    0.431931   -1.382222    1.293791
 H   -5.962481   -1.968664    1.449838
 H   -8.169980   -0.875024    1.243589
 H   -8.449598    1.091043   -0.246990
 H   -6.507271    1.939157   -1.540386
 H   -4.314852    0.823537   -1.361833
 H   -4.345211   -3.436366    0.076463
 H   -1.078043    0.706572   -1.365297
 H   -1.744184    3.274454   -0.042950
 H   -1.046985    3.122237   -1.663311
 H    1.292422    3.447090   -1.893260
 H    3.549648    3.654285   -0.908685
 H    3.914237    3.118832    1.493261
 H    1.996448    2.397754    2.895642
 H   -0.272763    2.222660    1.904290
