72 
3wzj_ligand_ani.xyz
 O   -6.192444    0.256416    1.466777
 C   -5.940461   -0.545047    0.582378
 N   -6.925923   -1.108787   -0.184878
 C   -8.276484   -0.631881   -0.103954
 C   -9.021589   -0.827281    1.184686
 C   -9.373061   -1.654185   -0.014374
 C   -4.536582   -0.963937    0.283560
 C   -4.202349   -2.091897   -0.468385
 C   -2.875974   -2.417054   -0.695679
 C   -1.836582   -1.622571   -0.189633
 C   -2.181601   -0.507079    0.589041
 C   -3.508454   -0.188780    0.819424
 C   -0.446156   -2.007106   -0.438844
 C    0.177088   -3.231386   -0.562609
 N    1.513397   -3.115277   -0.756854
 C    1.732357   -1.805638   -0.764763
 N    0.581566   -1.092607   -0.568718
 N    0.463324    0.242249   -0.565038
 C    1.591184    0.916054   -0.716490
 N    1.583049    2.293778   -0.743019
 C    0.703473    3.290999   -0.135406
 C   -0.634016    2.757590    0.384272
 C   -1.506353    3.879354    0.955914
 C   -1.735267    4.986665   -0.076873
 C   -0.399904    5.537503   -0.586696
 C    0.476383    4.418424   -1.153313
 C    2.867043    0.294255   -0.923621
 C    2.952079   -1.071077   -0.949455
 N    4.078458   -1.794746   -1.160145
 C    5.396864   -1.217382   -1.297972
 C    6.019943   -0.690240    0.001871
 C    6.187668   -1.788649    1.053615
 C    6.935555   -1.242609    2.264220
 O    8.190614   -0.704386    1.905391
 C    8.056472    0.379537    1.009866
 C    7.379333   -0.049273   -0.285483
 H   -6.664632   -1.582757   -1.036261
 H   -8.488559    0.284371   -0.652728
 H   -9.698121   -0.042258    1.510393
 H   -8.462955   -1.312055    1.978342
 H   -9.079079   -2.699669    0.003925
 H  -10.302621   -1.452643   -0.539159
 H   -4.972048   -2.751516   -0.863636
 H   -2.645464   -3.294141   -1.296456
 H   -1.409233    0.112767    1.026887
 H   -3.767882    0.682001    1.415676
 H   -0.296916   -4.202142   -0.494311
 H    2.479201    2.686691   -0.991746
 H    1.235981    3.729377    0.725406
 H   -0.439750    2.005213    1.154501
 H   -1.165757    2.258088   -0.434959
 H   -1.012125    4.306121    1.841331
 H   -2.462519    3.463382    1.300386
 H   -2.350034    5.790659    0.345959
 H   -2.298234    4.572687   -0.926303
 H    0.130614    6.026891    0.243751
 H   -0.566034    6.309283   -1.347823
 H   -0.000387    3.986736   -2.044675
 H    1.448184    4.818508   -1.472337
 H    3.751939    0.915899   -1.048336
 H    3.970531   -2.796808   -1.099278
 H    5.354701   -0.406322   -2.036913
 H    6.046706   -1.993832   -1.717931
 H    5.353277    0.077840    0.424926
 H    6.765945   -2.620538    0.627878
 H    5.214913   -2.183402    1.368411
 H    7.135085   -2.030022    2.996987
 H    6.324843   -0.465786    2.757510
 H    9.066748    0.757046    0.827017
 H    7.472341    1.186373    1.486390
 H    7.265715    0.813374   -0.954853
 H    8.019504   -0.781779   -0.796541
