52 
3wzq_ligand_dft.xyz
 O   -0.709850    2.646612    1.475476
 C    0.501644    2.288018    1.082069
 O    1.105236    1.344410    1.566288
 C    1.049415    3.191107   -0.006725
 C    2.362830    2.686827   -0.596495
 C    2.178481    1.414271   -1.431791
 C    3.465872    0.631222   -1.704239
 C    4.204782    0.194328   -0.429412
 N    3.329319   -0.400129    0.562336
 C    3.026264   -1.722321    0.534449
 O    3.545394   -2.518909   -0.238451
 C    1.975589   -2.170365    1.543898
 C    0.792544   -2.822999    0.824261
 C    0.016448   -1.816696   -0.024463
 C   -1.136514   -2.463790   -0.802917
 C   -2.225993   -1.508019   -1.310249
 S   -1.555882    0.077366   -1.954883
 C   -3.204245    0.822287   -1.818611
 C   -3.790387    0.323785   -0.495319
 C   -3.334580   -1.149318   -0.272728
 N   -2.924882   -1.135462    1.123286
 C   -2.619343    0.147033    1.527635
 N   -1.908867    0.547840    2.523663
 N   -3.256053    1.005465    0.670593
 H   -1.077092    1.921995    2.090688
 H    1.165519    4.189426    0.433246
 H    0.275939    3.287140   -0.778207
 H    2.813599    3.474801   -1.211544
 H    3.056286    2.507143    0.232026
 H    1.701942    1.674046   -2.385514
 H    1.475487    0.752230   -0.915147
 H    4.154834    1.225435   -2.319336
 H    3.215247   -0.267307   -2.279719
 H    4.966578   -0.546161   -0.681805
 H    4.711197    1.045543    0.037363
 H    2.706698    0.221801    1.070597
 H    2.453573   -2.899777    2.206547
 H    1.630995   -1.330162    2.157569
 H    1.172271   -3.636068    0.194969
 H    0.120067   -3.276319    1.566643
 H   -0.334756   -0.996950    0.613057
 H    0.702153   -1.350350   -0.742343
 H   -0.718214   -3.006470   -1.657416
 H   -1.628066   -3.233013   -0.187602
 H   -2.741396   -1.991111   -2.148420
 H   -3.841388    0.506581   -2.651745
 H   -3.124030    1.912339   -1.847887
 H   -4.882923    0.411208   -0.516306
 H   -4.164529   -1.850909   -0.400169
 H   -2.341067   -1.883043    1.467614
 H   -1.469762   -0.215730    3.027286
 H   -2.884749    1.942727    0.601855
