44 
3zc5_ligand_ani.xyz
 C   -3.269118   -1.936466    0.067951
 N   -3.942484   -3.029547   -0.398083
 C   -2.152283   -2.145161    0.923795
 N    0.661545    1.816645   -0.026719
 C   -1.455341   -1.075336    1.420054
 N    1.449112    0.787680    0.304452
 C   -1.826620    0.252562    1.102418
 N    4.292763   -2.176957    1.097300
 C   -1.063415    1.421156    1.712162
 N    5.035857   -1.942934    0.006926
 C   -0.465474    2.236436    0.616280
 N   -0.108549    3.632134   -1.006982
 C    2.505790    0.631847   -0.464493
 C    3.418119   -0.467308   -0.107167
 C    3.312318   -1.287484    1.037608
 C    4.555589   -0.930147   -0.746416
 N   -0.927653    3.312407    0.034690
 C    6.207126   -2.750693   -0.244249
 C    2.799247    1.487549   -1.590234
 C    1.986300    2.533254   -1.887078
 C    0.852375    2.728063   -1.044997
 C   -1.941862    2.294599    2.612934
 C   -2.883934    0.471578    0.255915
 C   -3.633722   -0.610442   -0.270321
 C   -4.744853   -0.434714   -1.135041
 C   -5.412492   -1.535156   -1.596168
 C   -4.964151   -2.819012   -1.191055
 H   -1.887873   -3.169997    1.162601
 H   -0.600598   -1.234074    2.074187
 H   -0.232743    1.000952    2.290008
 H    2.562679   -1.244415    1.817530
 H    5.060830   -0.636721   -1.659108
 H    6.885623   -2.693469    0.609928
 H    5.918528   -3.792005   -0.407184
 H    6.710546   -2.368642   -1.134136
 H    3.681932    1.294219   -2.192286
 H    2.165315    3.208622   -2.712406
 H   -2.423181    1.686903    3.385034
 H   -1.338523    3.065616    3.102184
 H   -2.717982    2.792998    2.023849
 H   -3.144401    1.484389   -0.045166
 H   -5.050380    0.571256   -1.417986
 H   -6.268798   -1.446643   -2.258969
 H   -5.486701   -3.705724   -1.550556
