40 
3zcz_ligand_ani.xyz
 N   -1.086206    1.871878   -0.265630
 O    3.541265   -2.643954   -0.890698
 C    0.161546    1.936662   -0.805598
 O    0.542078    1.147650   -1.666543
 C   -2.048833    0.840038   -0.618354
 C   -3.350260    1.457756   -1.116231
 C   -2.246502   -0.108436    0.572199
 C   -3.239321   -1.235984    0.301451
 F   -3.149268   -2.179055    1.267015
 F   -3.018182   -1.843612   -0.875113
 F   -4.509727   -0.794695    0.303971
 C    1.066912    3.022962   -0.245656
 C    1.532185    2.759154    1.202525
 O   -1.000268   -0.703499    0.888160
 C    2.906777    0.658137    0.566868
 C    2.702205   -0.848999    0.398228
 C    1.870548    1.292267    1.506140
 O    5.061670   -1.193780   -0.096277
 C    3.913460   -1.533615   -0.215088
 N    1.494951   -1.167256   -0.415770
 H   -1.300536    2.480116    0.511943
 H    4.359330   -3.050457   -1.220470
 H   -1.575984    0.266082   -1.419240
 H   -3.124755    2.233219   -1.852445
 H   -3.988379    0.708126   -1.590580
 H   -3.913352    1.910828   -0.291365
 H   -2.640638    0.462086    1.424856
 H    1.926599    3.081303   -0.920023
 H    0.556825    3.993290   -0.298881
 H    2.398514    3.402549    1.403003
 H    0.746670    3.082378    1.897341
 H   -1.145700   -1.292778    1.643814
 H    2.851739    1.103287   -0.432628
 H    3.924471    0.833786    0.924196
 H    2.585525   -1.314053    1.386258
 H    0.941248    0.713481    1.480541
 H    2.231087    1.219885    2.540283
 H    0.645100   -1.149503    0.171362
 H    1.609055   -2.096477   -0.847250
 H    1.376285   -0.454217   -1.159821
