34 
3zdh_ligand_ani.xyz
 C   -1.482268   -0.189280   -0.338239
 N   -0.899632    0.918832   -0.746294
 C   -1.777769    1.921930   -0.369473
 C   -2.864352    1.395298    0.258807
 N   -2.665720    0.023199    0.281872
 O   -1.060372   -1.439510   -0.481924
 C    0.184869   -1.621482   -1.182893
 C    1.350178   -1.746446   -0.216215
 C    1.633076   -0.521824    0.659207
 N    1.807275    0.735482   -0.151369
 C    2.807903   -0.808667    1.594538
 C    2.016949    1.919825    0.701883
 C    2.856687    0.669561   -1.187438
 C   -3.537370   -0.997293    0.835198
 H   -1.561693    2.961434   -0.566418
 H   -3.743174    1.855607    0.682374
 H    0.317542   -0.804421   -1.897049
 H    0.057919   -2.556835   -1.734036
 H    2.252524   -2.026058   -0.776136
 H    1.133415   -2.586326    0.454996
 H    0.744400   -0.322957    1.265956
 H    0.890992    0.917294   -0.613383
 H    2.944127   -0.026374    2.346877
 H    3.747371   -0.928557    1.042224
 H    2.625701   -1.745603    2.130929
 H    1.255162    1.950133    1.485294
 H    1.933174    2.819202    0.086522
 H    3.006369    1.906802    1.169445
 H    3.842765    0.468517   -0.752582
 H    2.895676    1.627885   -1.712824
 H    2.620678   -0.108776   -1.912489
 H   -3.053106   -1.506982    1.673472
 H   -3.796762   -1.735513    0.071102
 H   -4.450982   -0.514711    1.189397
