50 
3zdv_ligand_ani.xyz
 C    3.920137    1.270713    0.233015
 C    4.431573   -0.143519    0.492133
 C    3.798522   -1.122428   -0.487659
 C    2.284728   -0.967440   -0.453456
 C    1.921732    0.470485   -0.812065
 C    0.426429    0.764799   -0.809529
 C    4.211804    3.054519   -1.272480
 O    4.521900    1.709079   -0.948817
 O    4.076403   -0.498045    1.809849
 O    4.138228   -2.429473   -0.067351
 O    1.756592   -1.916670   -1.353946
 O    2.511444    1.335218    0.167454
 N   -0.186380    0.597500    0.499790
 S   -1.152080   -0.710974    0.830640
 O   -0.688941   -1.801203   -0.030226
 O   -1.132755   -0.891151    2.272794
 C   -2.787834   -0.201943    0.319648
 C   -3.589966   -1.042943   -0.477195
 C   -4.804956   -0.537889   -0.934242
 C   -5.274479    0.726298   -0.588447
 C   -4.501446    1.480869    0.285266
 C   -3.273992    1.037964    0.777316
 C   -3.240609   -2.460167   -0.852987
 C   -2.557888    1.921076    1.764606
 C   -6.590167    1.236784   -1.113851
 H    4.208083    1.928192    1.065315
 H    5.524126   -0.141523    0.357506
 H    4.166212   -0.932687   -1.507836
 H    1.955267   -1.168790    0.577932
 H    2.322113    0.694498   -1.812539
 H   -0.092083    0.127895   -1.528624
 H    0.284717    1.806595   -1.110707
 H    3.138229    3.181523   -1.460594
 H    4.508064    3.735387   -0.460983
 H    4.777464    3.301857   -2.172661
 H    4.200481   -1.458601    1.849752
 H    3.494986   -3.013529   -0.500328
 H    0.842974   -2.089164   -1.073019
 H    0.387134    0.864432    1.295702
 H   -5.413192   -1.171444   -1.576917
 H   -4.864780    2.452017    0.614861
 H   -2.441915   -2.489846   -1.598477
 H   -4.119003   -2.960736   -1.271189
 H   -2.893016   -3.027383    0.013226
 H   -3.260746    2.639697    2.196884
 H   -2.118920    1.333932    2.574992
 H   -1.758521    2.489797    1.279619
 H   -6.852865    2.197620   -0.661910
 H   -6.560041    1.375891   -2.201005
 H   -7.401332    0.532355   -0.896267
