44 
3zj6_ligand_xtb.xyz
 C   -2.542176   -0.567344   -0.067130
 C   -2.880467    0.897763   -0.355519
 C   -4.286332    1.016615   -0.943068
 C   -5.319452    0.419986    0.005870
 C   -4.987525   -1.039137    0.297207
 C   -3.585179   -1.159901    0.887083
 C    2.298851   -0.654347   -1.068861
 C    3.666849   -0.356067   -0.405311
 C    3.336000    0.127800    1.041677
 C    1.862212    0.569519    0.974765
 C    1.739988    1.975098    0.376461
 O    2.149268   -1.920920   -1.641017
 O    4.296581    0.632501   -1.175446
 O    3.402342   -0.914652    1.973752
 O    0.379967    2.239925    0.051480
 C    1.294855   -0.538159    0.084978
 N   -0.085267   -0.319851   -0.398258
 C   -1.150675   -0.724270    0.549538
 H   -2.580163   -1.132631   -1.005830
 H   -2.830513    1.468032    0.573937
 H   -2.166920    1.334665   -1.059109
 H   -4.514736    2.066121   -1.131331
 H   -4.325358    0.490113   -1.899078
 H   -5.327250    0.985748    0.939358
 H   -6.312464    0.492946   -0.437122
 H   -5.045808   -1.618411   -0.626410
 H   -5.712498   -1.454324    0.997112
 H   -3.546952   -0.625612    1.838102
 H   -3.356022   -2.209172    1.080815
 H    2.130153    0.131463   -1.821605
 H    4.264635   -1.276114   -0.354868
 H    3.991770    0.963115    1.320087
 H    1.421976    0.545433    1.972234
 H    2.099340    2.697936    1.115378
 H    2.364408    2.059221   -0.520453
 H    2.824037   -2.066822   -2.313341
 H    5.217321    0.737934   -0.911250
 H    4.317440   -1.138813    2.175032
 H    0.276733    3.176419   -0.147638
 H    1.332326   -1.485644    0.632853
 H   -0.180376    0.706405   -0.564336
 H   -0.202316   -0.842760   -1.272835
 H   -1.063847   -0.100222    1.440030
 H   -0.985003   -1.766237    0.831793
