71 
3zk6_ligand_ani.xyz
 C  -11.165912   -0.419479   -2.115746
 C  -10.531607    0.810120   -2.337220
 C   -9.241772    1.037982   -1.879493
 C   -8.595778    0.012106   -1.194774
 C   -9.223754   -1.229193   -0.965488
 C  -10.522520   -1.440079   -1.433883
 N   -8.461033   -2.160115   -0.270348
 C   -7.314650   -1.647987    0.011033
 S   -6.982179   -0.013269   -0.504884
 N   -6.334784   -2.313830    0.696562
 N   -5.136856   -1.722512    0.864182
 C   -4.216123   -2.405864    1.440455
 C   -4.415593   -3.800292    1.977621
 C   -2.912888   -1.759178    1.546915
 C   -1.679286   -2.181820    1.951935
 C   -0.800416   -1.073890    1.772107
 C   -1.569259   -0.056303    1.278927
 O   -2.846179   -0.469509    1.133104
 C   -1.243907    1.298073    0.859851
 C   -2.157941    2.126737    0.196381
 C   -1.753289    3.374738   -0.265835
 C   -0.437810    3.806123   -0.091137
 C    0.450472    2.974465    0.577724
 C    0.052025    1.752322    1.092518
 S    2.160821    3.417216    0.770517
 O    2.391927    4.660837    0.057670
 O    2.527201    3.247942    2.163065
 N    2.951556    2.252295   -0.142898
 C    3.139056    0.916490    0.186077
 O    2.725730    0.386891    1.196886
 C    3.986491    0.170652   -0.815684
 C    5.439458    0.109098   -0.329267
 C    6.314245   -0.807270   -1.182859
 C    7.773765   -0.829141   -0.732114
 C    8.643545   -1.791294   -1.551951
 C   10.095675   -1.780756   -1.131706
 C   10.938355   -0.745145   -1.541662
 C   12.269414   -0.704840   -1.140533
 C   12.777815   -1.700169   -0.310333
 C   11.946309   -2.732485    0.112213
 C   10.616021   -2.771078   -0.297521
 H  -12.176649   -0.576759   -2.483376
 H  -11.055909    1.595531   -2.874594
 H   -8.753440    1.993126   -2.053921
 H  -11.002426   -2.398503   -1.255426
 H   -6.522010   -3.282175    0.923840
 H   -5.252533   -3.826083    2.684541
 H   -4.621154   -4.504531    1.163251
 H   -3.527449   -4.150020    2.504345
 H   -1.429418   -3.168635    2.319202
 H    0.270479   -1.023165    1.945421
 H   -3.178878    1.787403    0.037918
 H   -2.464515    4.013708   -0.781229
 H   -0.092555    4.765730   -0.464162
 H    0.777959    1.158788    1.637144
 H    3.309315    2.603575   -1.022294
 H    3.921667    0.623574   -1.811996
 H    3.579359   -0.842361   -0.877818
 H    5.434810   -0.238861    0.711968
 H    5.863311    1.122694   -0.315658
 H    6.260697   -0.487890   -2.234655
 H    5.905350   -1.828694   -1.152292
 H    7.826743   -1.111916    0.327579
 H    8.191922    0.184892   -0.800785
 H    8.572963   -1.517166   -2.613632
 H    8.240408   -2.808646   -1.462707
 H   10.543214    0.040423   -2.184659
 H   12.911189    0.106615   -1.475598
 H   13.817567   -1.669922    0.006013
 H   12.334371   -3.513979    0.761632
 H    9.974877   -3.585931    0.034241
