42 
3zlk_ligand_dft.xyz
 C    4.648781   -0.221644    0.596579
 C    5.720347    0.392779    1.233188
 C    6.258365    1.572895    0.721953
 C    5.720858    2.134227   -0.430788
 C    4.643879    1.519595   -1.066084
 C    4.097946    0.341786   -0.557028
 C    2.937623   -0.331651   -1.259084
 N    1.776415   -0.573077   -0.399745
 C    0.913467    0.484898   -0.089365
 N    1.136270    1.725044   -0.239836
 C    1.613305   -1.857364    0.109370
 O    2.387426   -2.761919   -0.119099
 N    0.539219   -2.036117    0.971948
 C   -0.429712   -1.112532    1.296421
 O   -1.145634   -1.230480    2.261967
 C   -0.484564    0.064165    0.327502
 N   -1.142734   -0.313040   -0.928844
 S   -2.721204   -0.899103   -0.969018
 O   -2.736135   -2.103203   -0.163268
 O   -3.052560   -0.900027   -2.381930
 C   -3.721210    0.335994   -0.162383
 C   -4.354775    1.299980   -0.943634
 C   -5.104412    2.287445   -0.314688
 C   -5.210392    2.304781    1.074541
 C   -4.573045    1.333022    1.841756
 C   -3.823692    0.334392    1.227303
 H    4.242853   -1.151292    0.985476
 H    6.142254   -0.053393    2.128658
 H    7.096457    2.050012    1.220686
 H    6.136128    3.051210   -0.837590
 H    4.227901    1.960872   -1.969867
 H    3.238954   -1.308949   -1.638962
 H    2.600123    0.271580   -2.108547
 H    2.090494    1.919213   -0.544652
 H    0.528949   -2.920380    1.464072
 H   -0.965461    0.905726    0.835178
 H   -1.042199    0.415871   -1.631056
 H   -4.272157    1.258183   -2.024517
 H   -5.611052    3.040229   -0.910199
 H   -5.796305    3.078491    1.561380
 H   -4.662858    1.345904    2.923237
 H   -3.320402   -0.428889    1.811632
