28 
3zll_ligand_dft.xyz
 C   -0.986519    0.847131   -0.410327
 N   -2.763529    2.324103    0.339346
 O   -0.194373    1.894376   -0.740881
 C   -2.211014    1.061854    0.119438
 C   -3.031159   -0.085579    0.471984
 O   -0.782366   -2.704554   -0.523418
 C    4.129385    0.320508    1.160299
 C    3.219707   -0.673673    1.521903
 C    3.960474    1.011885   -0.033317
 C    2.143647   -0.971302    0.696040
 C    2.879644    0.713373   -0.863279
 C   -1.206970   -1.573208   -0.355584
 C    0.777277   -0.597501   -1.389372
 N   -0.501086   -0.433655   -0.697897
 O   -4.123806   -0.010123    1.009016
 N   -2.445282   -1.320347    0.196562
 C    1.964244   -0.277500   -0.504745
 H   -2.075285    3.040979    0.526255
 H   -3.486807    2.283997    1.047539
 H    0.717408    1.723000   -0.453330
 H    4.968516    0.551693    1.809169
 H    3.353374   -1.219726    2.450764
 H    4.666713    1.783753   -0.323452
 H    1.438876   -1.752591    0.968225
 H    2.753579    1.248966   -1.802392
 H    0.775067    0.035944   -2.280983
 H    0.807384   -1.641229   -1.705035
 H   -2.977493   -2.139008    0.461181
