28 
3zll_ligand_ani.xyz
 C   -0.968974    0.749320   -0.428763
 N   -2.675815    2.378897    0.062184
 O   -0.137341    1.744192   -0.824746
 C   -2.226284    1.074704   -0.043644
 C   -3.140506    0.023120    0.359909
 O   -0.949156   -2.774910   -0.087283
 C    4.304259    0.540812    0.959856
 C    3.170633    0.196688    1.690157
 C    4.290821    0.421314   -0.426624
 C    2.025850   -0.262616    1.044692
 C    3.145730   -0.034955   -1.072907
 C   -1.324374   -1.621337   -0.075933
 C    0.785055   -0.892832   -1.096929
 N   -0.506790   -0.553412   -0.480048
 O   -4.299285    0.208015    0.699571
 N   -2.587952   -1.259405    0.330486
 C    1.999955   -0.373890   -0.348322
 H   -2.221048    3.054362   -0.534888
 H   -3.682426    2.445785    0.117380
 H    0.791080    1.487727   -0.691359
 H    5.195125    0.898930    1.469167
 H    3.173105    0.289978    2.773094
 H    5.169905    0.688695   -1.007755
 H    1.147697   -0.526210    1.627933
 H    3.133486   -0.121463   -2.157827
 H    0.805120   -0.517217   -2.127262
 H    0.785220   -1.980814   -1.136857
 H   -3.190098   -2.022665    0.610730
