48 
3zln_ligand_ani.xyz
 O   -6.984901   -0.853613   -0.802979
 C   -6.496547   -2.057268   -0.496182
 O   -7.149280   -3.067709   -0.542693
 C   -5.037587   -2.039094   -0.087068
 N   -4.473145   -0.834105   -0.026939
 C   -4.371900   -3.220754    0.195482
 C   -3.028296   -3.131236    0.548958
 C   -2.422692   -1.881851    0.591749
 C   -3.179177   -0.745705    0.286217
 C   -2.599448    0.624880    0.315079
 C   -3.421585    1.716741    0.615182
 C   -2.892222    2.995651    0.672250
 C   -1.542158    3.231423    0.422906
 C   -0.954042    4.620258    0.498782
 C    0.135711    4.808218   -0.556850
 C    1.240173    3.762905   -0.384739
 C   -1.254577    0.845613    0.059106
 C   -0.720677    2.139557    0.104135
 C    0.715789    2.356230   -0.167577
 N    1.479363    1.321576   -0.183631
 N    2.809461    1.521977   -0.337269
 C    3.666300    0.463239   -0.228551
 S    2.994363   -1.136997   -0.018067
 C    4.642604   -1.739570    0.019878
 C    5.095817   -3.046176    0.179874
 C    6.465288   -3.269648    0.178597
 N    4.947173    0.585959   -0.273005
 C    5.538872   -0.663319   -0.135192
 C    6.914047   -0.907847   -0.137078
 C    7.366369   -2.208299    0.019943
 H   -6.248960   -0.221631   -0.688607
 H   -4.908318   -4.161962    0.134565
 H   -2.457624   -4.025895    0.782592
 H   -1.380292   -1.779756    0.880417
 H   -4.475093    1.542529    0.812199
 H   -3.545214    3.832558    0.911490
 H   -0.520406    4.773551    1.497350
 H   -1.746984    5.367776    0.381942
 H    0.564756    5.814286   -0.498502
 H   -0.307835    4.705277   -1.555133
 H    1.864166    4.015918    0.484206
 H    1.894247    3.774245   -1.266264
 H   -0.588563    0.029609   -0.202335
 H    3.238755    2.438687   -0.329615
 H    4.400652   -3.872319    0.303986
 H    6.843365   -4.280708    0.302503
 H    7.601401   -0.075314   -0.260555
 H    8.435241   -2.405860    0.020702
