63 
3zlo_ligand_xtb.xyz
 O   -4.172422   -4.097699    0.195194
 C   -3.005806   -4.425307   -0.400946
 O   -2.879816   -5.467957   -0.971820
 C   -1.922457   -3.409845   -0.299260
 N   -0.650150   -3.854526   -0.187594
 C   -2.056356   -2.040075   -0.369765
 C   -3.282879   -1.205561   -0.505116
 C   -3.703749   -0.617807    0.853418
 C   -5.114386   -0.033086    0.831889
 C   -5.256125    1.170751   -0.106690
 C   -6.634196    1.756891    0.018702
 C   -6.899046    2.748324    0.954359
 C   -8.177278    3.256637    1.101371
 C   -9.210008    2.776003    0.314807
 C   -8.956704    1.786913   -0.619956
 C   -7.677293    1.281069   -0.765046
 S   -0.497460   -1.297643   -0.273700
 C    0.218583   -2.907532   -0.145712
 C    1.640442   -3.099606   -0.006592
 C    2.142176   -4.420045    0.076853
 C    3.481282   -4.638588    0.204514
 C    4.394238   -3.559651    0.256752
 C    5.781911   -3.758410    0.385965
 C    6.649681   -2.691754    0.431910
 C    6.172486   -1.388110    0.355013
 C    2.510138   -2.029817    0.043549
 C    3.888795   -2.235786    0.173699
 C    4.808492   -1.140604    0.228035
 N    4.258767    0.100749    0.114655
 N    5.027043    1.115638    0.237889
 C    4.458736    2.303330    0.084128
 S    2.676294    2.462668   -0.302078
 C    2.919497    4.170182   -0.309380
 C    1.989818    5.171632   -0.546383
 C    2.412651    6.483592   -0.502137
 N    5.079573    3.424578    0.179606
 C    4.276889    4.487398   -0.028211
 C    4.677816    5.825887    0.011803
 C    3.744118    6.806648   -0.224799
 H   -4.127356   -3.264090    0.681614
 H   -4.095711   -1.802640   -0.926200
 H   -3.076950   -0.387604   -1.197637
 H   -2.987370    0.155314    1.139454
 H   -3.659480   -1.395804    1.622942
 H   -5.376627    0.282470    1.844382
 H   -5.829047   -0.804105    0.533496
 H   -5.085314    0.856903   -1.137536
 H   -4.506723    1.920370    0.155995
 H   -6.095600    3.127690    1.570269
 H   -8.368025    4.029774    1.831431
 H  -10.208227    3.171955    0.428759
 H   -9.757891    1.408634   -1.237959
 H   -7.484687    0.510061   -1.497945
 H    1.436030   -5.233720    0.032063
 H    3.867183   -5.645498    0.267507
 H    6.157744   -4.769648    0.446705
 H    7.711790   -2.863239    0.528153
 H    6.845987   -0.544586    0.384717
 H    2.148784   -1.013865   -0.019967
 H    0.962428    4.921431   -0.760862
 H    1.702802    7.276255   -0.685247
 H    5.708541    6.056842    0.226530
 H    4.038873    7.844829   -0.197741
