48 
3zlq_ligand_dft.xyz
 C   -4.986222   -1.905449    0.794231
 C   -4.773009   -0.435576    0.482124
 O   -3.751249   -2.498776    1.130654
 C   -2.790390   -2.430886    0.175082
 N   -3.125673   -1.576645   -0.876949
 C   -3.723337   -0.252779   -0.662016
 C   -2.671596    0.803056   -0.298545
 C   -1.322761    0.471947   -0.239076
 C   -0.344986    1.437677    0.009167
 C   -0.726155    2.761521    0.227976
 C   -2.071176    3.106643    0.194279
 C   -3.016826    2.133015   -0.071415
 F   -4.314396    2.495007   -0.103559
 N   -1.766855   -3.165132    0.308703
 C   -4.414414    0.128450   -1.979497
 N    1.018972    1.111136    0.057035
 C    1.624369   -0.033378   -0.367564
 C    3.117911   -0.004585   -0.193398
 O    1.060325   -1.007451   -0.849510
 N    3.667573    1.105408    0.320776
 C    4.979492    1.144506    0.477376
 C    5.825452    0.077961    0.127731
 C    5.250641   -1.073830   -0.406682
 C    3.869262   -1.109176   -0.566338
 O    7.139191    0.274937    0.346674
 F   -4.359476    0.186186    1.616612
 F   -5.973269    0.111730    0.149077
 C    8.048235   -0.756875   -0.017897
 C    9.444184   -0.273872    0.314783
 H   -5.454145   -2.400297   -0.063780
 H   -5.627191   -1.998068    1.671567
 H   -2.443824   -1.585157   -1.623878
 H   -0.998354   -0.547288   -0.371353
 H    0.022936    3.523376    0.424477
 H   -2.396139    4.126283    0.368154
 H   -1.062572   -2.954616   -0.395965
 H   -5.165463   -0.619969   -2.243134
 H   -3.663363    0.165707   -2.775032
 H   -4.890379    1.105188   -1.904676
 H    1.666859    1.812752    0.398973
 H    5.416137    2.047539    0.895891
 H    5.851648   -1.928948   -0.693501
 H    3.366302   -1.978097   -0.974458
 H    7.950563   -0.968600   -1.091307
 H    7.808056   -1.674250    0.536405
 H    9.671233    0.646119   -0.230654
 H    9.537513   -0.075799    1.385921
 H   10.178148   -1.035473    0.035734
