48 
3zlq_ligand_ani.xyz
 C   -5.210259   -1.513176    1.019592
 C   -4.317023   -0.293022    0.984699
 O   -4.513830   -2.679783    0.627891
 C   -3.718655   -2.625844   -0.469904
 N   -3.030996   -1.423584   -0.649478
 C   -3.658092   -0.125000   -0.389212
 C   -2.579054    0.949147   -0.320204
 C   -1.240109    0.594764   -0.152661
 C   -0.234130    1.554002   -0.121090
 C   -0.563381    2.907254   -0.202810
 C   -1.892667    3.286883   -0.326288
 C   -2.873273    2.305828   -0.378387
 F   -4.154139    2.716413   -0.496376
 N   -3.608395   -3.677047   -1.168147
 C   -4.715328    0.158055   -1.468846
 N    1.120297    1.192806   -0.004065
 C    1.662567   -0.046345   -0.162517
 C    3.164776   -0.053786   -0.077968
 O    1.043427   -1.082245   -0.358950
 N    3.776796    1.119744    0.124216
 C    5.098680    1.135785    0.200529
 C    5.879755   -0.023099    0.081071
 C    5.239039   -1.239234   -0.131782
 C    3.851721   -1.250938   -0.212978
 O    7.216442    0.147495    0.184676
 F   -3.351967   -0.421088    1.940936
 F   -5.054916    0.802466    1.313049
 C    8.048582   -1.002009    0.098296
 C    9.476979   -0.535431    0.272917
 H   -6.082959   -1.341277    0.377410
 H   -5.548066   -1.687730    2.042289
 H   -2.483179   -1.424850   -1.500088
 H   -0.964529   -0.442531   -0.040033
 H    0.214677    3.665048   -0.169878
 H   -2.179114    4.330969   -0.389090
 H   -2.970316   -3.528613   -1.948114
 H   -5.238374   -0.769177   -1.723394
 H   -4.220050    0.519518   -2.375130
 H   -5.439031    0.899723   -1.135852
 H    1.794341    1.935391    0.134955
 H    5.593382    2.090765    0.363441
 H    5.800923   -2.163747   -0.233769
 H    3.292989   -2.166753   -0.377341
 H    7.908914   -1.489352   -0.876476
 H    7.770839   -1.721803    0.880513
 H    9.742920    0.177962   -0.512035
 H    9.601103   -0.046835    1.243384
 H   10.161757   -1.387005    0.219380
