21 
3zls_ligand_ani.xyz
 C  -20.821943   26.513772   -2.992190
 C  -22.111716   27.065278   -2.969938
 N  -22.379758   28.369860   -2.898428
 C  -19.712504   27.347015   -2.937855
 N  -21.298352   30.518086   -2.770535
 C  -20.013223   30.971205   -2.736297
 C  -19.150115   29.905378   -2.790147
 C  -19.955289   28.715680   -2.862690
 C  -21.299600   29.142174   -2.847749
 C  -17.682074   29.950428   -2.777372
 O  -16.945089   28.987782   -2.826539
 O  -17.223127   31.216210   -2.702526
 C  -15.800044   31.333341   -2.685713
 H  -20.701671   25.436311   -3.051849
 H  -22.978251   26.407202   -3.012734
 H  -18.697973   26.960120   -2.952770
 H  -22.131092   31.083271   -2.742323
 H  -19.788912   32.029182   -2.675538
 H  -15.595313   32.401698   -2.622794
 H  -15.381714   30.808921   -1.823263
 H  -15.369240   30.911089   -3.596748
