37 
3zlv_ligand_ani.xyz
 O   37.889506   18.236796   10.006744
 C   38.080110   19.435352   10.104188
 N   39.285634   19.958430   10.498716
 C   36.998027   20.429750    9.823606
 C   36.983595   21.726425   10.367220
 C   35.969782   22.582032   10.069931
 N   34.949823   22.201941    9.233699
 C   34.925090   20.923072    8.733199
 C   35.920274   20.040560    9.013285
 C   33.841060   23.074875    8.950361
 O   32.734448   22.688268    9.727624
 C   31.474452   23.122373    9.256992
 N   30.452121   22.313226    9.902152
 C   30.399501   20.931835    9.710994
 C   31.192219   20.237535    8.696054
 N   31.662411   20.740364    7.615657
 O   32.387873   19.784884    6.919282
 C   29.544482   20.186582   10.497762
 C   28.693303   20.779819   11.419254
 C   28.728806   22.177397   11.556592
 C   29.605424   22.899928   10.805994
 H   40.037485   19.286319   10.556007
 H   39.544768   20.893105   10.221774
 H   37.759982   22.057129   11.053856
 H   35.906031   23.592029   10.464443
 H   34.056347   20.689562    8.124019
 H   35.892253   19.028740    8.619415
 H   33.610544   22.983817    7.878641
 H   34.136267   24.109176    9.175654
 H   31.399915   23.001819    8.173889
 H   31.302534   24.173334    9.528178
 H   31.330189   19.172612    8.882829
 H   32.545036   20.202844    6.061928
 H   29.538260   19.107323   10.366445
 H   28.015714   20.179278   12.018003
 H   28.079523   22.692947   12.260072
 H   29.690212   23.980521   10.893542
