18 
3zly_ligand_ani.xyz
 C  -18.603908   26.511074   -3.156409
 N  -18.489632   25.371206   -3.328296
 C  -18.779252   27.924577   -2.960467
 C  -17.681530   28.769486   -2.842938
 C  -17.863276   30.153055   -2.667715
 C  -19.120340   30.727084   -2.607887
 C  -20.220409   29.868613   -2.728033
 N  -21.561002   30.092999   -2.722721
 N  -22.293289   28.953827   -2.869930
 C  -21.410875   27.975578   -2.977849
 C  -20.067197   28.479457   -2.897534
 N  -21.786832   26.662610   -3.094666
 H  -16.678780   28.356140   -2.889000
 H  -16.988245   30.790259   -2.579193
 H  -19.248843   31.797556   -2.474494
 H  -22.033804   30.974461   -2.613441
 H  -22.745239   26.505783   -3.369620
 H  -21.112547   26.012234   -3.468805
