18 
3zly_ligand_xtb.xyz
 C  -18.607678   26.533468   -3.169230
 N  -18.492486   25.406996   -3.357840
 C  -18.777736   27.917534   -2.963122
 C  -17.689535   28.768785   -2.836182
 C  -17.868394   30.142620   -2.656529
 C  -19.120725   30.714468   -2.604117
 C  -20.221418   29.868676   -2.731990
 N  -21.552020   30.102634   -2.736795
 N  -22.267539   28.960597   -2.897199
 C  -21.405152   27.970079   -2.993476
 C  -20.066253   28.470748   -2.903909
 N  -21.784166   26.662743   -3.074623
 H  -16.690930   28.360894   -2.879891
 H  -16.994440   30.769194   -2.560815
 H  -19.249168   31.777597   -2.471381
 H  -22.038905   30.974624   -2.625281
 H  -22.745206   26.508332   -3.330227
 H  -21.113249   26.016012   -3.456393
