42 
3zmg_ligand_dft.xyz
 C   -6.311442   -0.346217    0.191895
 C   -5.212973   -1.190169    0.152426
 C   -3.949273   -0.622970    0.016601
 N   -3.736210    0.693364   -0.077961
 C   -4.786629    1.503660   -0.041959
 N   -1.571517   -0.865857   -0.141925
 C    2.362125   -2.232028   -0.322393
 C   -6.098042    1.031405    0.092019
 C   -2.744242   -1.538586   -0.027896
 O   -2.883734   -2.750321    0.035237
 C   -7.194013    1.956604    0.125515
 N   -8.077353    2.705904    0.152086
 C   -0.267069   -1.386316   -0.206696
 C    0.015292   -2.753925   -0.196540
 C    1.340392   -3.163267   -0.250884
 C    2.111963   -0.860253   -0.360898
 C    0.778193   -0.465053   -0.281724
 F    3.622414   -2.703243   -0.355608
 C    4.374016   -0.198323   -1.365420
 O    3.987995    2.826075    0.496518
 C    3.251692    2.691224   -0.642274
 N    2.638555    1.466026   -0.851064
 C    3.743383    0.462880    1.002929
 C    4.626495    1.694417    1.058633
 F    2.697471    0.634317    1.851177
 F    4.461264   -0.599975    1.452587
 C    3.220203    0.195143   -0.422356
 N    3.033848    3.660678   -1.430332
 H   -7.317528   -0.737621    0.298389
 H   -5.305155   -2.267095    0.224491
 H   -4.591997    2.569386   -0.122545
 H   -1.671998    0.142836   -0.174527
 H   -0.787103   -3.475744   -0.139693
 H    1.597097   -4.216617   -0.233082
 H    0.562835    0.598591   -0.263152
 H    5.020294    0.666258   -1.543566
 H    4.971592   -1.017864   -0.971367
 H    3.959547   -0.506120   -2.329817
 H    2.222978    1.441593   -1.774346
 H    4.834453    1.936485    2.101904
 H    5.571769    1.491222    0.543847
 H    3.497098    4.498595   -1.085464
