38 
3zmh_ligand_dft.xyz
 O   -1.343035    1.876787    0.009628
 C   -1.221625    0.704387   -0.293613
 O   -2.243557   -0.134397   -0.553562
 C   -3.569109    0.420804   -0.425604
 C   -3.987325    0.477481    1.042068
 C   -4.296608   -0.987628    1.408596
 C   -4.654977   -1.692256    0.070369
 C   -4.520358   -0.609504   -1.021372
 N   -0.032225    0.057534   -0.444570
 C    1.213913    0.654179    0.033094
 C    1.606888    1.849272   -0.844872
 C    2.705475    2.690707   -0.252960
 O    3.133527    2.576920    0.871547
 C    2.292085   -0.411700    0.054286
 C    2.543602   -1.187832   -1.080883
 C    3.535827   -2.162863   -1.066928
 C    4.293424   -2.369511    0.082770
 C    4.054233   -1.594745    1.213896
 C    3.059070   -0.622095    1.199250
 H   -3.587079    1.393533   -0.921115
 H   -4.891443    1.094127    1.110844
 H   -3.225378    0.944561    1.669654
 H   -3.416952   -1.456730    1.859037
 H   -5.104179   -1.055547    2.142827
 H   -3.957669   -2.511842   -0.125345
 H   -5.659824   -2.123577    0.085100
 H   -5.483455   -0.118041   -1.200468
 H   -4.159560   -0.997133   -1.977860
 H   -0.074461   -0.948737   -0.506748
 H    1.065434    1.031663    1.050871
 H    0.733992    2.504315   -0.968215
 H    1.902403    1.524859   -1.851017
 H    3.104255    3.477418   -0.928483
 H    1.959638   -1.027522   -1.984690
 H    3.719508   -2.758498   -1.956311
 H    5.068664   -3.129656    0.095325
 H    4.643328   -1.746827    2.113288
 H    2.885784   -0.005736    2.075798
