35 
3zmi_ligand_xtb.xyz
 O    3.292995    2.714910    0.039015
 C    2.636026    2.542814   -0.947421
 C    1.544272    1.532156   -1.117914
 C    1.428248    0.570063    0.076994
 C    2.638692   -0.321648    0.176896
 C    2.870430   -1.295178   -0.788499
 C    3.983185   -2.112819   -0.707619
 C    4.879737   -1.962106    0.336639
 C    4.658115   -0.990963    1.297627
 C    3.541737   -0.176479    1.220273
 N    0.230607   -0.245139   -0.048968
 C   -1.012477    0.274591    0.013351
 O   -1.270776    1.448702    0.091485
 O   -1.919048   -0.736232   -0.069565
 C   -3.279157   -0.479695    0.036424
 C   -3.807892    0.446273    0.922826
 C   -5.181728    0.599607    0.999668
 C   -6.022279   -0.167334    0.212405
 C   -5.486514   -1.098023   -0.662388
 C   -4.116761   -1.255357   -0.755658
 H    2.789722    3.165511   -1.851994
 H    0.602813    2.083339   -1.210182
 H    1.702787    0.987435   -2.050885
 H    1.341311    1.184046    0.982588
 H    2.178301   -1.415885   -1.610697
 H    4.152102   -2.866351   -1.462896
 H    5.749200   -2.599388    0.398683
 H    5.356275   -0.867228    2.111820
 H    3.375399    0.585808    1.965571
 H    0.329927   -1.246595   -0.091073
 H   -3.154957    1.046249    1.535383
 H   -5.594358    1.323283    1.686491
 H   -7.092361   -0.042040    0.280459
 H   -6.136373   -1.701984   -1.277827
 H   -3.681208   -1.974685   -1.431774
