106 
3zmu_ligand_dft.xyz
 N    9.058965   -2.101006   -0.245136
 C    7.921536   -1.573110    0.595333
 C    6.940810   -0.951215   -0.417844
 O    7.230635   -0.987046   -1.613223
 C    8.569993   -0.567380    1.569421
 C   10.050271   -0.967468    1.593891
 C   10.320440   -1.367698    0.149562
 N    5.847608   -0.391305    0.092886
 C    4.902848    0.375451   -0.704220
 C    4.158682    1.265631    0.301967
 O    4.261621    1.062700    1.505992
 C    3.905017   -0.508294   -1.476391
 C    2.951524   -1.281397   -0.567110
 C    1.861353   -2.019483   -1.348423
 C    0.757278   -2.548381   -0.440034
 N   -0.160469   -1.455906   -0.012199
 N    3.380609    2.221876   -0.239583
 C    2.388390    2.937345    0.524156
 C    1.009403    2.258226    0.336251
 O    0.879386    1.275438   -0.386722
 C    2.357679    4.390185    0.050867
 O    1.971708    4.345510   -1.304909
 N   -0.004941    2.860863    0.992130
 C   -1.415321    2.560631    0.816394
 C   -1.761539    1.187923    1.415053
 O   -0.898873    0.399063    1.782431
 C   -1.836216    2.698322   -0.668951
 C   -3.331258    2.717471   -0.893822
 C   -4.153450    3.633660   -0.228708
 C   -3.921283    1.813538   -1.781065
 C   -5.532938    3.628919   -0.422519
 C   -5.297499    1.827292   -1.999645
 C   -6.109405    2.722981   -1.308465
 N   -3.079490    0.898084    1.502084
 C   -3.522318   -0.398037    1.991559
 C   -3.246466   -1.493468    0.951154
 O   -2.526662   -2.458599    1.204947
 C   -5.001936   -0.342607    2.381119
 C   -5.559324   -1.664801    2.930719
 C   -7.066560   -1.528639    3.155662
 C   -4.843188   -2.102121    4.211504
 N   -3.832419   -1.330596   -0.259167
 C   -3.792167   -2.352138   -1.282643
 C   -2.846435   -1.933856   -2.406104
 O   -3.136609   -2.488704   -3.573896
 C   -5.193298   -2.807931   -1.744151
 C   -5.964139   -3.424892   -0.575481
 C   -6.002766   -1.685027   -2.394923
 O   -1.876386   -1.208287   -2.258836
 H    9.169179   -3.110272   -0.139201
 H    8.760670   -1.897900   -1.226560
 H    7.459279   -2.413421    1.117839
 H    8.455275    0.452021    1.187493
 H    8.102164   -0.611319    2.554355
 H   10.701047   -0.151237    1.912294
 H   10.219483   -1.813962    2.267398
 H   11.179941   -2.019577   -0.005837
 H   10.398681   -0.499214   -0.507761
 H    5.689696   -0.310704    1.096220
 H    5.465272    0.988592   -1.416811
 H    4.475769   -1.182910   -2.123187
 H    3.320295    0.141219   -2.138421
 H    2.482879   -0.574777    0.126058
 H    3.510964   -1.999438    0.045576
 H    2.294075   -2.864497   -1.894488
 H    1.415623   -1.354565   -2.099381
 H    0.135948   -3.292474   -0.942266
 H    1.168364   -3.005108    0.463600
 H   -0.783723   -1.755090    0.754172
 H    0.302527   -0.584909    0.287548
 H   -0.787118   -1.189699   -0.792524
 H    3.269624    2.273770   -1.243384
 H    2.679667    2.888939    1.578101
 H    1.655941    4.981748    0.655680
 H    3.358829    4.820345    0.182006
 H    2.065988    5.222823   -1.694192
 H    0.223228    3.608932    1.628794
 H   -1.953054    3.316719    1.397325
 H   -1.378773    1.887730   -1.241211
 H   -1.389699    3.630953   -1.032465
 H   -3.718162    4.371616    0.441741
 H   -3.290549    1.108442   -2.317147
 H   -6.154296    4.345170    0.105545
 H   -5.736496    1.147474   -2.722194
 H   -7.181570    2.729875   -1.475477
 H   -3.767952    1.573179    1.194709
 H   -2.906602   -0.660448    2.853665
 H   -5.596004   -0.030021    1.508717
 H   -5.120514    0.442281    3.139318
 H   -5.400915   -2.447131    2.175624
 H   -7.493080   -2.469856    3.514687
 H   -7.587912   -1.254201    2.231327
 H   -7.282043   -0.758314    3.905506
 H   -4.897171   -1.318967    4.977400
 H   -5.312903   -3.000621    4.622576
 H   -3.789627   -2.339871    4.032792
 H   -4.356768   -0.484419   -0.443993
 H   -3.295065   -3.211622   -0.812591
 H   -2.462953   -2.214424   -4.219320
 H   -5.023341   -3.587338   -2.493955
 H   -5.381855   -4.197851   -0.062730
 H   -6.888406   -3.883911   -0.937218
 H   -6.241047   -2.662301    0.160240
 H   -5.469508   -1.220723   -3.231481
 H   -6.264045   -0.908705   -1.665755
 H   -6.943180   -2.082491   -2.786793
