103 
3zmv_ligand_xtb.xyz
 N   -0.475694    0.014880   -1.741283
 C   -0.655421    1.444483   -1.357730
 C   -1.991635    1.615557   -0.599742
 O   -3.041727    1.642392   -1.209863
 C   -0.675868    2.211853   -2.689892
 C   -0.197310    1.203576   -3.734092
 C   -0.761848   -0.095657   -3.183759
 N   -1.845270    1.747709    0.727006
 C   -2.932013    1.722951    1.710443
 C   -3.349805    0.254906    1.859348
 O   -3.130194   -0.383738    2.872354
 C   -4.089677    2.662712    1.376289
 C   -3.668277    4.137073    1.304125
 C   -4.822087    4.959913    0.735338
 C   -3.263512    4.684096    2.670783
 N   -3.893610   -0.283430    0.752704
 C   -3.878444   -1.721273    0.551328
 C   -2.388072   -2.090369    0.462711
 O   -1.760301   -1.964489   -0.577341
 C   -4.631033   -2.058297   -0.737565
 O   -4.167642   -1.216190   -1.765995
 N   -1.854417   -2.486433    1.625265
 C   -0.436388   -2.722117    1.839310
 C    0.400686   -1.492996    1.452510
 O   -0.092571   -0.424293    1.129926
 C    0.013294   -4.062813    1.213269
 C   -0.127585   -4.143874   -0.283496
 C    0.771114   -3.504630   -1.127467
 C   -1.164470   -4.879779   -0.842137
 C    0.621128   -3.584068   -2.500181
 C   -1.313284   -4.961169   -2.214570
 C   -0.421597   -4.310136   -3.048550
 N    1.723514   -1.651899    1.601788
 C    2.662261   -0.556517    1.474030
 C    2.513344    0.163334    0.137820
 O    2.064302   -0.359651   -0.870087
 C    4.100688   -1.079183    1.583272
 C    4.527472   -1.383443    3.026173
 C    4.767177   -0.096608    3.812388
 C    5.799351   -2.227907    3.011135
 N    2.926705    1.443993    0.176657
 C    3.239210    2.185651   -1.032154
 C    4.563477    1.638497   -1.568991
 O    4.654130    1.718682   -2.887318
 C    3.338244    3.689301   -0.711076
 C    2.006336    4.193311   -0.157415
 C    3.737900    4.493961   -1.944129
 O    5.407644    1.167485   -0.855863
 H   -1.067181   -0.669072   -1.205329
 H    0.508195   -0.257772   -1.537995
 H    0.172809    1.739705   -0.712232
 H   -1.705525    2.501667   -2.905953
 H   -0.063486    3.109679   -2.657399
 H    0.892343    1.158490   -3.769258
 H   -0.567004    1.434888   -4.728899
 H   -0.309725   -0.997565   -3.590612
 H   -1.844468   -0.136179   -3.315848
 H   -0.952207    1.470642    1.110163
 H   -2.489813    2.018386    2.665756
 H   -4.529804    2.380046    0.421274
 H   -4.848905    2.541166    2.151068
 H   -2.814527    4.219508    0.622013
 H   -5.097829    4.602983   -0.253837
 H   -4.539971    6.006502    0.655346
 H   -5.692327    4.889252    1.383403
 H   -4.075172    4.558854    3.383533
 H   -3.038748    5.744999    2.595782
 H   -2.380880    4.183221    3.060511
 H   -3.961899    0.261061   -0.102851
 H   -4.350616   -2.220376    1.403174
 H   -5.704765   -1.906528   -0.564917
 H   -4.454008   -3.113959   -0.983303
 H   -4.679617   -1.383957   -2.563065
 H   -2.411185   -2.308725    2.453494
 H   -0.310171   -2.816204    2.925514
 H    1.050344   -4.258619    1.494941
 H   -0.600444   -4.842645    1.669339
 H    1.587971   -2.928937   -0.719868
 H   -1.865194   -5.390227   -0.196206
 H    1.332626   -3.084676   -3.142307
 H   -2.124795   -5.537106   -2.633507
 H   -0.535487   -4.375003   -4.120265
 H    2.104720   -2.549321    1.855862
 H    2.458672    0.172014    2.270635
 H    4.179200   -1.981798    0.972427
 H    4.790563   -0.347275    1.156838
 H    3.734040   -1.954000    3.523576
 H    5.094307   -0.331131    4.821540
 H    3.863305    0.504292    3.890012
 H    5.542456    0.498046    3.334392
 H    6.599311   -1.694371    2.504006
 H    6.121830   -2.444140    4.025892
 H    5.636461   -3.172324    2.497028
 H    3.436679    1.747456    0.994838
 H    2.461448    2.003740   -1.778551
 H    5.504441    1.374390   -3.208500
 H    4.111126    3.812160    0.056066
 H    1.672359    3.592814    0.685256
 H    1.239637    4.171214   -0.928285
 H    2.114540    5.220136    0.179830
 H    4.741937    4.243662   -2.273673
 H    3.050597    4.308819   -2.765993
 H    3.715968    5.554751   -1.710294
