98 
3zmz_ligand_ani.xyz
 N   -0.296837   -1.552476    2.199996
 C   -1.450065   -2.495963    2.086027
 C   -1.605087   -2.935031    0.635134
 O   -1.238632   -4.058175    0.281801
 C   -2.584321   -1.757021    2.799181
 C   -1.853613   -1.149948    4.008153
 C   -0.446788   -0.790516    3.470887
 N   -2.050512   -2.017810   -0.253906
 C   -1.828574   -2.200664   -1.684359
 C   -0.352740   -1.888575   -2.016779
 O   -0.050817   -0.842548   -2.594303
 C   -2.784468   -1.315635   -2.479857
 C   -4.239149   -1.825568   -2.398131
 C   -5.313405   -0.731509   -2.191118
 N   -5.963215   -0.765247   -0.878217
 C   -5.215371   -0.503886    0.264998
 N   -5.750269   -1.061892    1.414035
 N   -4.107788    0.146334    0.324225
 N    0.523396   -2.845555   -1.627014
 C    1.980120   -2.755499   -1.508346
 C    2.364006   -2.396349   -0.054413
 O    1.707295   -2.819942    0.893542
 C    2.644578   -1.876675   -2.572697
 O    2.551327   -0.490419   -2.289225
 N    3.475270   -1.635203    0.128584
 C    3.680178   -0.994241    1.417208
 C    2.798404    0.240471    1.641784
 O    2.614519    0.660240    2.779091
 C    5.159566   -0.632842    1.644783
 C    5.746254    0.255492    0.572494
 C    6.465137   -0.301948   -0.488281
 C    5.561139    1.641367    0.596854
 C    6.983360    0.498545   -1.503450
 C    6.073898    2.442512   -0.418132
 C    6.787802    1.875112   -1.470288
 N    2.312679    0.861548    0.532479
 C    1.553070    2.083717    0.606670
 C    0.036589    1.805917    0.578133
 O   -0.447994    0.679494    0.500621
 C    1.995194    3.012266   -0.532339
 N   -0.753531    2.914857    0.659221
 C   -2.149699    2.837113    0.268853
 C   -2.293529    2.749444   -1.248105
 O   -3.228944    2.232135   -1.824701
 C   -2.999051    3.981658    0.861398
 C   -2.681141    5.351240    0.254758
 C   -4.490141    3.663473    0.736051
 O   -1.279524    3.326139   -1.911612
 H    0.593699   -2.059019    2.101233
 H   -0.319506   -0.879101    1.410007
 H   -1.205099   -3.413398    2.628967
 H   -2.988801   -0.957109    2.169724
 H   -3.399495   -2.435892    3.074812
 H   -1.768863   -1.892601    4.810342
 H   -2.368651   -0.278967    4.423326
 H    0.352593   -1.063328    4.163148
 H   -0.345290    0.275038    3.251100
 H   -2.507392   -1.156518    0.049823
 H   -2.008120   -3.261892   -1.903492
 H   -2.442267   -1.281968   -3.518517
 H   -2.682387   -0.285652   -2.110795
 H   -4.463869   -2.401158   -3.304343
 H   -4.322173   -2.540259   -1.567377
 H   -6.114551   -0.836641   -2.928581
 H   -4.893046    0.267747   -2.341370
 H   -6.538656   -1.592535   -0.767908
 H   -6.760631   -1.066456    1.453677
 H   -5.350638   -0.662373    2.254236
 H   -3.898872    0.605834   -0.559413
 H    0.118653   -3.603427   -1.080943
 H    2.342916   -3.780615   -1.652271
 H    3.709031   -2.132463   -2.642379
 H    2.190007   -2.099862   -3.544101
 H    1.606035   -0.287638   -2.462467
 H    3.845329   -1.142784   -0.675193
 H    3.379450   -1.707168    2.188633
 H    5.233817   -0.151428    2.626713
 H    5.727656   -1.568193    1.697982
 H    6.607441   -1.381436   -0.523548
 H    5.009212    2.093870    1.419339
 H    7.537758    0.044188   -2.320197
 H    5.911111    3.518242   -0.390248
 H    7.187497    2.504158   -2.260887
 H    2.391563    0.410726   -0.376118
 H    1.781568    2.544380    1.575591
 H    1.539799    4.006293   -0.473519
 H    1.742135    2.576213   -1.507171
 H    3.081552    3.137615   -0.486278
 H   -0.302655    3.807707    0.522013
 H   -2.550178    1.897383    0.658641
 H   -2.737457    4.005423    1.928467
 H   -3.246963    6.131459    0.774750
 H   -2.959959    5.386389   -0.804451
 H   -1.618700    5.611791    0.329060
 H   -5.089912    4.406218    1.271367
 H   -4.715294    2.673649    1.150398
 H   -4.801568    3.660465   -0.314047
 H   -1.482963    3.229055   -2.857696
