98 
3zmz_ligand_dft.xyz
 N   -0.162992   -2.067707    1.957807
 C   -1.518855   -2.665213    1.719119
 C   -1.729561   -2.813612    0.209348
 O   -1.369549   -3.853877   -0.330652
 C   -2.406036   -1.774072    2.585204
 C   -1.521765   -1.428873    3.812033
 C   -0.087370   -1.846214    3.431092
 N   -2.201672   -1.749092   -0.470218
 C   -2.192232   -1.754577   -1.931978
 C   -0.802875   -1.247368   -2.368136
 O   -0.629880   -0.080900   -2.729144
 C   -3.319319   -0.906422   -2.507467
 C   -4.715148   -1.419955   -2.101101
 C   -5.718189   -0.314139   -1.681747
 N   -6.130416   -0.384065   -0.284165
 C   -5.230875   -0.181602    0.734915
 N   -5.596211   -0.755598    1.943684
 N   -4.106220    0.449936    0.656962
 N    0.168114   -2.183998   -2.277922
 C    1.615434   -1.996240   -2.301927
 C    2.134304   -2.225523   -0.867580
 O    1.452023   -2.852040   -0.061420
 C    2.097284   -0.662483   -2.889886
 O    1.900465    0.430683   -2.021662
 N    3.345118   -1.732177   -0.542058
 C    3.743635   -1.662326    0.850970
 C    2.944289   -0.603860    1.632584
 O    2.911294   -0.650307    2.857667
 C    5.260808   -1.413193    0.977211
 C    5.716671   -0.173830    0.245309
 C    6.114894   -0.241632   -1.093820
 C    5.702174    1.072068    0.877246
 C    6.464441    0.911507   -1.793477
 C    6.060114    2.223493    0.183877
 C    6.432539    2.147530   -1.156408
 N    2.322211    0.349839    0.901326
 C    1.664939    1.478319    1.520449
 C    0.190917    1.492145    1.096342
 O   -0.438026    0.440859    0.921711
 C    2.426994    2.775977    1.240321
 N   -0.404451    2.684996    0.957371
 C   -1.773186    2.794761    0.486995
 C   -1.888063    2.441959   -0.990197
 O   -2.945989    2.190435   -1.527120
 C   -2.356845    4.191109    0.803856
 C   -1.692188    5.309657   -0.005633
 C   -3.877511    4.208547    0.627163
 O   -0.728716    2.435806   -1.649136
 H    0.597906   -2.629039    1.548582
 H   -0.117669   -1.137485    1.479227
 H   -1.476742   -3.684747    2.110264
 H   -2.682727   -0.859466    2.052369
 H   -3.330478   -2.289773    2.849970
 H   -1.840439   -1.962691    4.709555
 H   -1.571832   -0.359808    4.029049
 H    0.202325   -2.793742    3.889459
 H    0.690646   -1.109058    3.632734
 H   -2.535270   -0.913854    0.011949
 H   -2.307024   -2.797897   -2.241330
 H   -3.210201   -0.901783   -3.596560
 H   -3.171404    0.130276   -2.199125
 H   -5.139106   -2.003926   -2.923925
 H   -4.619087   -2.115543   -1.259297
 H   -6.636016   -0.377275   -2.270611
 H   -5.306603    0.681683   -1.874985
 H   -6.836235   -1.082926   -0.098380
 H   -6.588460   -0.873687    2.099397
 H   -5.143184   -0.304075    2.726287
 H   -3.985990    0.881200   -0.256973
 H   -0.121914   -3.055126   -1.836080
 H    2.033028   -2.796511   -2.927730
 H    3.172979   -0.735108   -3.080394
 H    1.612525   -0.496634   -3.856118
 H    0.943110    0.614095   -2.071828
 H    3.833536   -1.120771   -1.183598
 H    3.510803   -2.618197    1.323572
 H    5.486496   -1.341837    2.044895
 H    5.775910   -2.297567    0.588993
 H    6.181801   -1.210835   -1.585395
 H    5.419944    1.132848    1.926114
 H    6.777720    0.839987   -2.830509
 H    6.057643    3.183066    0.692512
 H    6.713387    3.046558   -1.695685
 H    2.367572    0.340174   -0.117497
 H    1.676377    1.278715    2.598626
 H    2.032995    3.615777    1.822377
 H    2.406062    3.025512    0.174080
 H    3.469936    2.642202    1.530667
 H    0.166071    3.516362    0.947186
 H   -2.372320    2.039480    1.007222
 H   -2.139248    4.350786    1.868020
 H   -2.097977    6.279908    0.294624
 H   -1.883908    5.188164   -1.077715
 H   -0.605493    5.359896    0.134628
 H   -4.285333    5.144401    1.020953
 H   -4.346547    3.372981    1.156237
 H   -4.155848    4.132166   -0.427466
 H   -0.905582    2.007283   -2.507882
