116 
3zn1_ligand_xtb.xyz
 N    3.684723    0.683216   -1.320458
 C    3.006398   -0.064549   -2.418842
 C    2.945855   -1.565174   -2.054582
 O    3.774918   -2.352161   -2.461713
 C    3.871022    0.161396   -3.665370
 C    5.214525    0.614316   -3.098921
 C    4.778522    1.471914   -1.922487
 N    1.932094   -1.874225   -1.236849
 C    1.591366   -3.242496   -0.865065
 C    0.068519   -3.300912   -0.712365
 O   -0.634526   -4.019933   -1.383793
 C    2.288790   -3.696084    0.427473
 C    3.747669   -4.109328    0.172447
 C    4.710734   -3.756719    1.323441
 N    5.816111   -2.913084    0.903102
 C    5.676286   -1.631742    0.507202
 N    6.796391   -1.012693    0.051906
 N    4.561180   -0.961942    0.532416
 N   -0.399153   -2.482057    0.256446
 C   -1.779122   -2.054227    0.255884
 C   -1.807387   -0.656044   -0.370815
 O   -0.790165   -0.116709   -0.783512
 C   -2.400027   -2.110171    1.659663
 C   -3.238825   -3.371864    1.898525
 C   -3.927593   -3.279181    3.258327
 C   -2.375049   -4.627718    1.824376
 N   -3.023824   -0.105229   -0.442748
 C   -3.269755    1.228649   -0.956792
 C   -2.206262    2.147789   -0.344875
 O   -2.221543    2.393973    0.851232
 C   -4.668245    1.694721   -0.516920
 C   -5.707300    0.661309   -0.848783
 C   -6.108352   -0.270305    0.105594
 C   -6.246149    0.576527   -2.125518
 C   -7.019529   -1.259931   -0.203119
 C   -7.163014   -0.406724   -2.444803
 C   -7.554749   -1.337052   -1.486658
 O   -8.442758   -2.322057   -1.748518
 N   -1.311226    2.638105   -1.212115
 C   -0.167190    3.477388   -0.878536
 C    0.845608    2.763401    0.025621
 O    1.982607    2.518345   -0.382490
 C   -0.628560    4.805118   -0.256463
 C    0.518076    5.708046    0.214909
 C   -0.069240    6.965988    0.851274
 C    1.455279    6.082013   -0.931110
 N    0.443229    2.505111    1.258836
 C    1.343631    2.011174    2.277200
 C    2.177282    0.857206    1.733082
 O    3.465088    1.045243    1.937389
 C    0.576343    1.612660    3.554141
 C   -0.049231    2.850011    4.194902
 C   -0.484388    0.552344    3.275348
 O    1.731906   -0.130946    1.192575
 H    3.015774    1.316505   -0.837077
 H    4.094407   -0.015172   -0.567812
 H    1.989333    0.312639   -2.545666
 H    3.964290   -0.757082   -4.240345
 H    3.439535    0.935070   -4.298607
 H    5.810618    1.161654   -3.823265
 H    5.779546   -0.250451   -2.751451
 H    5.560519    1.659316   -1.188559
 H    4.383982    2.429594   -2.267734
 H    1.279121   -1.152171   -0.949998
 H    1.883659   -3.902512   -1.688546
 H    1.732313   -4.537016    0.843511
 H    2.229042   -2.881334    1.153090
 H    4.101898   -3.615981   -0.733408
 H    3.782973   -5.180119   -0.021726
 H    4.175515   -3.242696    2.129324
 H    5.150992   -4.655478    1.753262
 H    6.681584   -3.376404    0.678748
 H    7.693465   -1.431506    0.225918
 H    6.780973   -0.009783   -0.011475
 H    3.764648   -1.539815    0.767738
 H    0.238144   -1.823421    0.686636
 H   -2.316343   -2.729226   -0.422127
 H   -3.021902   -1.229355    1.827273
 H   -1.594559   -2.080070    2.395175
 H   -4.010290   -3.430896    1.122068
 H   -4.567431   -2.401128    3.312525
 H   -3.189787   -3.216403    4.055112
 H   -4.541629   -4.158570    3.431491
 H   -2.981443   -5.510480    2.008758
 H   -1.589097   -4.590494    2.575993
 H   -1.915336   -4.733428    0.845797
 H   -3.841148   -0.632978   -0.164273
 H   -3.196583    1.221726   -2.052818
 H   -4.639661    1.874211    0.559542
 H   -4.889549    2.638157   -1.017774
 H   -5.726152   -0.203293    1.115158
 H   -5.954430    1.293328   -2.879187
 H   -7.337690   -1.978485    0.534699
 H   -7.581074   -0.453779   -3.440965
 H   -8.761158   -2.261588   -2.657589
 H   -1.318802    2.249733   -2.141683
 H    0.351527    3.679716   -1.819600
 H   -1.283616    4.592017    0.588478
 H   -1.218910    5.338318   -1.005153
 H    1.098766    5.174772    0.975626
 H   -0.732655    6.710006    1.673867
 H   -0.635742    7.533187    0.116666
 H    0.722775    7.602409    1.236672
 H    0.896029    6.516782   -1.756404
 H    1.999177    5.212359   -1.291088
 H    2.183338    6.814300   -0.591774
 H   -0.550113    2.604075    1.473179
 H    2.060749    2.805709    2.529470
 H    4.010004    0.302441    1.537362
 H    1.318163    1.199492    4.247031
 H    0.701486    3.613716    4.382751
 H   -0.505107    2.579851    5.143516
 H   -0.823847    3.270282    3.558499
 H   -0.933035    0.227077    4.210330
 H   -1.273422    0.944802    2.638680
 H   -0.040366   -0.309083    2.784723
