51 
3zov_ligand_xtb.xyz
 F   -8.917428    0.127442    1.226420
 C   -8.694288   -0.358203    0.005367
 F   -8.965937    0.611687   -0.867789
 F   -9.593562   -1.333155   -0.199343
 C   -7.276655   -0.903924   -0.153905
 O   -6.400652    0.166500    0.073748
 C   -5.060188   -0.059491   -0.013672
 C   -4.232010    1.046815    0.222225
 N   -2.923527    0.985997    0.173421
 C   -4.459379   -1.277328   -0.312749
 C   -3.076130   -1.332461   -0.362227
 C   -2.342393   -0.179897   -0.113618
 C   -0.845871   -0.218224   -0.162688
 O   -0.237594   -1.238816   -0.420439
 N   -0.306713    0.995441    0.109648
 C    1.030294    1.380111    0.167352
 C    2.068105    0.483921   -0.073087
 C    1.319100    2.706941    0.478032
 C    2.634377    3.121172    0.549847
 C    3.664727    2.228232    0.313844
 C    3.387768    0.902994   -0.006958
 C    4.538224   -0.066783   -0.216821
 C    5.021918   -0.546066    1.156301
 C    6.321420   -1.313138    1.066816
 O    6.585540   -2.232310    1.810754
 C    4.158789   -1.259450   -1.105599
 N    5.656512    0.657172   -0.792397
 C    6.922694    0.157328   -0.809251
 N    7.752362    0.664994   -1.620020
 N    7.199610   -0.875203    0.111720
 C    8.496536   -1.522047    0.034896
 H   -7.183874   -1.305014   -1.172827
 H   -7.142992   -1.711189    0.579675
 H   -4.673029    2.004775    0.457115
 H   -5.039880   -2.166719   -0.504071
 H   -2.553868   -2.248247   -0.588892
 H   -0.999052    1.714591    0.298941
 H    1.816342   -0.534353   -0.308863
 H    0.513610    3.402432    0.664028
 H    2.860295    4.148097    0.794614
 H    4.689384    2.560452    0.377614
 H    4.278231   -1.178741    1.640146
 H    5.198885    0.321445    1.798998
 H    3.725474   -0.909899   -2.040001
 H    5.048093   -1.844112   -1.333405
 H    3.447161   -1.911134   -0.608130
 H    5.464384    1.255688   -1.581879
 H    8.702022    0.325462   -1.560318
 H    9.292640   -0.829211    0.315790
 H    8.484460   -2.353457    0.737434
 H    8.675772   -1.899457   -0.973304
