51 
3zov_ligand_ani.xyz
 F   -8.914031    0.075311    1.225605
 C   -8.687574   -0.437124    0.010188
 F   -8.953218    0.511305   -0.895789
 F   -9.548247   -1.453817   -0.182559
 C   -7.269081   -0.955795   -0.123658
 O   -6.415819    0.142114    0.074780
 C   -5.072026   -0.048008   -0.013923
 C   -4.286383    1.094748    0.173296
 N   -2.963534    1.068165    0.119640
 C   -4.447249   -1.260687   -0.266892
 C   -3.057171   -1.284998   -0.321623
 C   -2.360207   -0.102688   -0.122759
 C   -0.855715   -0.103887   -0.170674
 O   -0.237962   -1.137762   -0.379361
 N   -0.316550    1.129386    0.038825
 C    1.042215    1.484556    0.128025
 C    2.058550    0.563509   -0.117548
 C    1.354053    2.802930    0.468611
 C    2.684743    3.186366    0.574485
 C    3.699379    2.264351    0.344645
 C    3.395778    0.944473   -0.003712
 C    4.537389   -0.060357   -0.180522
 C    5.022378   -0.528989    1.193918
 C    6.326242   -1.289196    1.134770
 O    6.618666   -2.129048    1.963451
 C    4.118132   -1.252174   -1.051914
 N    5.676385    0.627334   -0.783297
 C    6.910823    0.018660   -0.890993
 N    7.691525    0.361468   -1.841449
 N    7.197442   -0.940341    0.102304
 C    8.490159   -1.603361    0.049171
 H   -7.153495   -1.387968   -1.125493
 H   -7.114196   -1.736385    0.631595
 H   -4.778642    2.044300    0.371729
 H   -5.016037   -2.173808   -0.418869
 H   -2.506884   -2.200044   -0.514228
 H   -0.999045    1.860613    0.196618
 H    1.765591   -0.438049   -0.404231
 H    0.560216    3.522513    0.652496
 H    2.930324    4.211594    0.839964
 H    4.739924    2.563647    0.428389
 H    4.280546   -1.154215    1.691169
 H    5.181035    0.351262    1.829961
 H    3.682572   -0.892662   -1.989865
 H    4.975903   -1.888022   -1.282573
 H    3.372664   -1.862160   -0.531748
 H    5.463393    1.143042   -1.627194
 H    8.572261   -0.141413   -1.815429
 H    9.306576   -0.878415    0.146690
 H    8.527339   -2.299747    0.884405
 H    8.606862   -2.157773   -0.889177
