30 
3zpq_ligand_dft.xyz
 C    1.564303    0.051879    1.205823
 C    3.081306    0.083594    1.249471
 N    3.597889   -0.590646    0.000226
 C    3.082392    0.085266   -1.248546
 C    1.565295    0.053719   -1.206185
 N    1.082433    0.702249    0.000105
 C   -0.370435    0.789141   -0.000230
 C   -1.157396   -0.380079   -0.000852
 C   -0.940252   -1.784824   -0.000501
 C   -2.227510   -2.339315   -0.000325
 N   -3.227196   -1.441482    0.000052
 C   -2.592875   -0.234338   -0.000269
 C   -3.170731    1.043508    0.000285
 C   -2.360362    2.168758    0.000502
 C   -0.958646    2.042514    0.000351
 H    1.182271    0.603120    2.068645
 H    1.208327   -0.988915    1.311205
 H    3.492838   -0.454543    2.106335
 H    3.462796    1.106606    1.224229
 H    3.262348   -1.560544   -0.000535
 H    4.619259   -0.624242    0.000649
 H    3.494489   -0.451761   -2.105812
 H    3.464028    1.108194   -1.221726
 H    1.209381   -0.986911   -1.313568
 H    1.184159    0.606301   -2.068534
 H   -0.007056   -2.340399   -0.003088
 H   -2.456582   -3.403493   -0.000197
 H   -4.253985    1.133957    0.000754
 H   -2.805038    3.160540    0.000968
 H   -0.319643    2.922304    0.000852
