46 
3zq9_ligand_dft.xyz
 O   -0.386899   -1.185086   -0.193230
 C   -1.523896   -0.793102    0.568538
 C   -1.646612    0.744866    0.712636
 O   -2.652524    1.003525    1.681727
 C   -2.016499    1.453918   -0.604851
 N   -3.193831    0.726785   -1.241823
 C   -2.908589   -0.720739   -1.514096
 C   -2.711372   -1.430166   -0.174724
 C   -4.031765   -1.536909    0.610039
 O   -1.042929    1.491953   -1.565335
 O   -4.754095   -0.313910    0.701353
 C    1.951078   -1.702014   -0.244938
 C    3.305686   -1.140284    0.190761
 C    3.466529    0.332016   -0.189936
 C    2.272913    1.122510    0.339060
 C    2.244383    2.577242   -0.067941
 C    0.853378   -0.788201    0.289304
 O    1.855877   -3.001023    0.286810
 O    4.373417   -1.828134   -0.409739
 O    4.629082    0.877754    0.370905
 O    1.084008    0.525472   -0.181078
 O    1.049971    3.127780    0.463950
 H   -1.449229   -1.205021    1.584148
 H   -0.693947    1.170908    1.034181
 H   -2.367912    1.716076    2.265611
 H   -2.403142    2.454299   -0.372344
 H   -4.017555    0.731924   -0.604708
 H   -3.421091    1.214729   -2.111468
 H   -3.762919   -1.122278   -2.063283
 H   -2.014715   -0.763543   -2.136555
 H   -2.399253   -2.456471   -0.397122
 H   -3.846516   -1.952762    1.607077
 H   -4.688836   -2.230491    0.079254
 H   -0.181693    1.221965   -1.182182
 H   -4.353645    0.200058    1.422030
 H    1.895338   -1.699402   -1.342692
 H    3.364596   -1.213604    1.289673
 H    3.477236    0.403511   -1.289941
 H    2.251235    1.065165    1.437643
 H    3.141663    3.062182    0.332330
 H    2.264843    2.652975   -1.165144
 H    0.861735   -0.793810    1.393378
 H    1.146770   -3.469867   -0.168402
 H    4.338027   -2.747325   -0.113904
 H    5.360168    0.289259    0.135410
 H    1.077009    4.082541    0.333759
