68 
3zqe_ligand_ani.xyz
 C    5.463902   -0.889352   -0.917560
 C    4.745606    0.443336   -1.045115
 C    4.293074    1.008638    0.311879
 C    3.407182    0.012898    1.124223
 C    4.156499   -1.340759    1.180834
 C    4.585641   -1.895327   -0.177421
 C    3.597334    2.367860    0.138609
 C    2.214435    2.232633   -0.506416
 C    1.308342    1.255445    0.252736
 C    2.003690   -0.116229    0.455799
 C   -0.011122    1.012107   -0.480739
 C   -1.004083    0.089878    0.274241
 C   -0.304761   -1.264740    0.489440
 C    1.057227   -1.087750    1.188588
 C   -0.865427    2.208483   -0.902049
 C   -2.249157    1.582075   -1.209953
 C   -2.196026    0.107837   -0.723638
 C    3.283507    0.516909    2.572638
 C   -3.560875   -0.404652   -0.241546
 O   -0.141508   -1.896558   -0.775362
 O    5.784355   -1.325321   -2.229271
 C   -1.437422    0.681234    1.623290
 C   -4.582472   -0.288688   -1.392756
 C   -5.999307   -0.785052   -1.060838
 C   -6.538106   -0.197755    0.221954
 O   -6.869920   -0.820726    1.202223
 O   -6.601037    1.151873    0.177397
 C   -3.479759   -1.835958    0.297984
 H    6.389287   -0.735488   -0.334993
 H    3.886802    0.307698   -1.712548
 H    5.412143    1.157155   -1.545018
 H    5.208133    1.157515    0.908125
 H    5.060369   -1.182775    1.786909
 H    3.558048   -2.078332    1.726240
 H    3.710463   -2.122063   -0.801088
 H    5.129043   -2.840397   -0.043644
 H    3.500151    2.860424    1.115076
 H    4.231126    3.025293   -0.470138
 H    2.328263    1.889139   -1.544936
 H    1.740439    3.220605   -0.563622
 H    1.095937    1.699920    1.237094
 H    2.156727   -0.533872   -0.551761
 H    0.248199    0.471729   -1.404646
 H   -0.930044   -1.904103    1.130793
 H    0.878916   -0.750753    2.215650
 H    1.522046   -2.079202    1.267850
 H   -0.943984    2.941891   -0.089400
 H   -0.444654    2.732816   -1.767194
 H   -3.047445    2.132341   -0.694886
 H   -2.481766    1.619868   -2.280122
 H   -1.890794   -0.525096   -1.568290
 H    2.798277   -0.228483    3.212167
 H    4.278708    0.703287    2.993057
 H    2.712663    1.446415    2.653763
 H   -3.911146    0.255536    0.567931
 H    0.451062   -2.647147   -0.639883
 H    6.259796   -2.162104   -2.150820
 H   -2.109741   -0.003656    2.151733
 H   -1.973647    1.629701    1.506914
 H   -0.588233    0.871826    2.285025
 H   -4.218613   -0.854615   -2.261045
 H   -4.665769    0.757405   -1.706951
 H   -6.038751   -1.873324   -0.965722
 H   -6.678143   -0.507281   -1.875901
 H   -6.954948    1.429895    1.038741
 H   -4.471352   -2.264221    0.472330
 H   -2.964926   -1.880300    1.261408
 H   -2.945300   -2.489826   -0.403192
