44 
3zqt_ligand_ani.xyz
 O    3.735056   -1.993591   -1.851678
 C    3.439694   -1.283150   -0.731953
 C    3.097112    0.058079   -0.830088
 C    3.472703   -1.899297    0.525821
 O    3.815318   -3.228782    0.516970
 C    3.174386   -1.166410    1.661334
 C    2.836550    0.183293    1.550767
 C    2.788708    0.811994    0.308557
 C    2.393059    2.266973    0.169387
 C    1.052136    2.511752   -0.557331
 C    0.767489    4.015852   -0.629611
 C   -0.115466    1.696244    0.044350
 C   -0.453709    2.071400    1.488396
 C   -1.370563    1.778656   -0.849792
 C   -2.442218    0.775343   -0.483986
 C   -3.649606    1.161264    0.094143
 C   -2.223633   -0.590478   -0.703243
 C   -3.186637   -1.527746   -0.368663
 O   -3.050364   -2.880924   -0.563456
 C   -4.395052   -1.127650    0.216071
 C   -4.617874    0.222330    0.445563
 O   -5.336225   -2.046424    0.552914
 H    3.941259   -2.899673   -1.577062
 H    3.068613    0.510933   -1.819145
 H    3.809594   -3.569906    1.419750
 H    3.205638   -1.644226    2.638906
 H    2.611688    0.744858    2.454972
 H    3.173948    2.800434   -0.390533
 H    2.357446    2.733745    1.162018
 H    1.177266    2.153518   -1.591262
 H   -0.127792    4.239203   -1.219623
 H    1.607036    4.544521   -1.096981
 H    0.629993    4.447288    0.369548
 H    0.204857    0.642731    0.042940
 H   -0.800512    3.109820    1.563334
 H   -1.251934    1.427045    1.873706
 H    0.408122    1.955888    2.154027
 H   -1.063250    1.616286   -1.892741
 H   -1.793075    2.790796   -0.800711
 H   -3.843220    2.215276    0.284170
 H   -1.283911   -0.921862   -1.145386
 H   -2.196256   -3.056418   -0.978278
 H   -5.556129    0.526782    0.899735
 H   -4.992137   -2.919976    0.312284
