24 
3zrk_ligand_dft.xyz
 C   -3.729628   -1.345064    0.000065
 C   -2.466664   -1.845029    0.000111
 C   -1.443958   -0.864075    0.000089
 C   -1.669541    0.496605    0.000057
 C   -3.013134    1.032133   -0.000091
 O   -3.350954    2.203803   -0.000159
 O   -0.123988   -1.118066    0.000054
 C    0.521691    0.099137    0.000012
 C    1.978198    0.063772    0.000009
 C    2.680932   -1.144002   -0.000173
 C    4.070315   -1.109736   -0.000174
 C   -0.384243    1.114747   -0.000022
 N    4.793522    0.011665   -0.000024
 C    4.112349    1.160949    0.000135
 N   -3.973721    0.003634   -0.000031
 C    2.727035    1.245071    0.000166
 H   -4.607979   -1.978970    0.000082
 H   -2.264617   -2.906855    0.000218
 H    2.154995   -2.091687   -0.000321
 H    4.634200   -2.040110   -0.000292
 H   -0.181383    2.175109   -0.000084
 H    4.710392    2.069587    0.000243
 H   -4.928683    0.336257   -0.000068
 H    2.243898    2.216638    0.000332
