35 
3zrm_ligand_dft.xyz
 C   -3.731076    0.104675   -0.939371
 C   -2.682501   -1.005234    0.911443
 C   -4.702998   -0.882691   -0.995371
 C   -3.644631   -2.006590    0.859320
 C    3.348509   -2.023969    0.411591
 C    4.500445   -0.181656   -0.571021
 C    2.000984    1.469548    0.081190
 C    4.540846   -2.734385    0.338008
 C    5.638977   -0.976759   -0.588105
 C    3.311823   -0.705549   -0.051806
 C   -2.706741    0.066325    0.014400
 C    0.655561    1.930230    0.122140
 C   -4.660751   -1.947347   -0.094699
 C    2.093446    0.111798    0.001059
 C   -0.278793    0.906377    0.077946
 C   -2.058168    2.456277    0.124632
 C   -1.693603    1.146107    0.077777
 C    0.247618    3.324980    0.179324
 N    5.679664   -2.236800   -0.147387
 N   -1.140727    3.472840    0.168057
 O    0.986025    4.296422    0.226448
 O   -5.631102   -2.891596   -0.196730
 S    0.507440   -0.633429   -0.032118
 H   -3.754277    0.916470   -1.661165
 H   -1.911613   -1.052170    1.675422
 H   -5.492952   -0.853539   -1.738168
 H   -3.608412   -2.829326    1.569998
 H    2.468244   -2.491956    0.841936
 H    4.534534    0.825279   -0.973628
 H    2.849306    2.140933    0.134441
 H    4.582716   -3.760894    0.695898
 H    6.570334   -0.580976   -0.987283
 H   -3.098865    2.759290    0.144160
 H   -1.458422    4.431868    0.209591
 H   -5.485266   -3.573822    0.469522
