79 
3zso_ligand_xtb.xyz
 C   -0.502811   -4.780523   -2.451245
 C    0.828328   -4.870272   -2.821340
 C   -0.900751   -3.813458   -1.545968
 C    1.756336   -4.000122   -2.275610
 C    1.927012    0.535764    1.923147
 C   -0.717033    1.377797   -1.018114
 C   -2.090286    2.307143    0.697733
 C   -4.362500   -0.779653    1.405403
 C   -4.247988    0.119307   -0.808058
 C    1.388051    1.821566    1.906482
 C   -0.334641    2.647703   -1.397653
 C   -1.711663    3.584096    0.330111
 C   -5.737911   -0.895701    1.298080
 C   -5.613671    0.005557   -0.927720
 C    0.026912   -2.935856   -0.990663
 C    3.529784    1.074783    0.176414
 C   -1.608679    1.190132    0.029530
 C   -3.604077   -0.272685    0.363260
 C    1.377195   -3.032350   -1.353356
 C    2.965027    0.151308    1.092912
 C    1.952317    2.721273    1.039463
 C    3.006218    2.358681    0.186542
 C   -0.834262    3.769081   -0.734499
 C   -6.379521   -0.505848    0.125568
 C    3.873846   -4.344898    3.246189
 C    2.907832   -3.881949    2.475735
 C   -0.446459   -1.927134    0.002803
 C    4.629906    0.731240   -0.754867
 C    2.531697    4.495274   -0.157879
 C   -0.860697    6.142240   -0.549204
 C   -8.548142   -1.080423    0.920697
 C    2.412482   -2.087056   -0.801216
 C    3.508909   -1.246800    1.235326
 C    3.054928   -3.629448    1.005555
 C   -2.099578   -0.177814    0.460928
 N   -1.521539   -1.237083   -0.352771
 N    2.600392   -2.266988    0.657871
 O    5.285203    1.795689   -1.189745
 O    0.117379   -1.755760    1.093412
 O    4.913291   -0.395628   -1.102626
 O    1.651595    4.028523    0.847892
 O    3.354742    3.419332   -0.568018
 O   -0.407504    4.971923   -1.195062
 O   -7.710211   -0.579002   -0.096383
 H   -1.230599   -5.458639   -2.867592
 H    1.145182   -5.617092   -3.531716
 H   -1.936543   -3.752504   -1.245980
 H    2.792061   -4.067874   -2.572475
 H    1.516464   -0.180405    2.616971
 H   -0.314310    0.531415   -1.557220
 H   -2.784595    2.175319    1.514309
 H   -3.878781   -1.088559    2.320870
 H   -3.671469    0.530391   -1.624677
 H    0.576547    2.103754    2.553869
 H    0.345706    2.794961   -2.222215
 H   -2.110022    4.425032    0.873212
 H   -6.296186   -1.289843    2.131782
 H   -6.122839    0.308773   -1.828205
 H    3.718919   -4.541133    4.292030
 H    4.856415   -4.561152    2.860663
 H    1.922548   -3.681495    2.875515
 H    3.159798    5.303357    0.246769
 H    1.949797    4.866242   -1.013685
 H   -0.542047    6.162990    0.497004
 H   -0.401379    6.970906   -1.085146
 H   -1.948515    6.234738   -0.607983
 H   -9.557155   -1.040094    0.514970
 H   -8.299753   -2.116650    1.169558
 H   -8.496348   -0.463891    1.822957
 H    3.372701   -2.227395   -1.302063
 H    2.097589   -1.051164   -0.957057
 H    4.477209   -1.337310    0.741666
 H    3.620000   -1.484437    2.296388
 H    2.432203   -4.340826    0.453823
 H    4.093574   -3.753231    0.688467
 H   -1.775230   -0.366669    1.491162
 H   -1.952178   -1.394534   -1.252535
 H    1.608671   -2.115776    1.059451
 H    5.987976    1.544951   -1.811256
