79 
3zso_ligand_dft.xyz
 C   -0.764414   -4.822286   -2.402355
 C    0.564996   -4.882453   -2.801435
 C   -1.162446   -3.868071   -1.471292
 C    1.492702   -3.998897   -2.256512
 C    1.987407    0.582214    1.889168
 C   -0.705634    1.242164   -0.993169
 C   -1.924308    2.353176    0.738187
 C   -4.600728   -0.676714    1.345022
 C   -4.415420    0.533015   -0.717534
 C    1.582383    1.924796    1.853835
 C   -0.169290    2.455853   -1.401454
 C   -1.392385    3.577214    0.348463
 C   -5.988752   -0.691979    1.227416
 C   -5.791470    0.519651   -0.854913
 C   -0.237233   -2.978546   -0.923786
 C    3.673312    0.944575    0.160906
 C   -1.603412    1.171483    0.072022
 C   -3.797899   -0.069473    0.385370
 C    1.115470   -3.046605   -1.310181
 C    2.999371    0.084948    1.080367
 C    2.259592    2.746692    0.992233
 C    3.275626    2.273829    0.157039
 C   -0.524665    3.635555   -0.745207
 C   -6.591600   -0.093114    0.118829
 C    3.942693   -4.446815    3.121905
 C    2.873524   -4.061842    2.431892
 C   -0.696594   -1.952344    0.070069
 C    4.736336    0.453313   -0.753652
 C    2.971421    4.444468   -0.261817
 C   -0.287347    5.993312   -0.580920
 C   -8.785125   -0.618514    0.859134
 C    2.165249   -2.105215   -0.770054
 C    3.413095   -1.351078    1.285711
 C    2.900447   -3.755381    0.965569
 C   -2.286330   -0.122601    0.504800
 N   -1.796526   -1.267014   -0.264962
 N    2.453565   -2.349835    0.686859
 O    5.543963    1.421875   -1.183788
 O   -0.089599   -1.735172    1.131064
 O    4.884933   -0.706638   -1.094893
 O    2.095966    4.076823    0.801434
 O    3.740658    3.288976   -0.599195
 O    0.013860    4.777098   -1.239097
 O   -7.921735   -0.046054   -0.102734
 H   -1.492434   -5.514868   -2.811368
 H    0.884384   -5.616269   -3.533846
 H   -2.199715   -3.827725   -1.150499
 H    2.530294   -4.047598   -2.575501
 H    1.486574   -0.088448    2.579957
 H   -0.428580    0.342674   -1.535665
 H   -2.630751    2.326446    1.564096
 H   -4.142035   -1.149902    2.210116
 H   -3.810766    1.036602   -1.467743
 H    0.779659    2.297707    2.477656
 H    0.512270    2.511688   -2.244354
 H   -1.675817    4.473232    0.887603
 H   -6.581024   -1.165955    2.001291
 H   -6.277589    0.988419   -1.703776
 H    3.873552   -4.701986    4.174293
 H    4.922081   -4.537387    2.658204
 H    1.900113   -3.991599    2.915983
 H    3.645171    5.233799    0.078880
 H    2.376008    4.750633   -1.125548
 H    0.064938    5.976909    0.457295
 H    0.239859    6.771423   -1.133734
 H   -1.362957    6.203014   -0.605563
 H   -9.795951   -0.458325    0.484823
 H   -8.605501   -1.695113    0.968574
 H   -8.676122   -0.128539    1.834351
 H    3.108193   -2.194257   -1.309411
 H    1.842829   -1.062812   -0.831755
 H    4.390878   -1.565249    0.860081
 H    3.434915   -1.582648    2.352046
 H    2.214045   -4.412236    0.425552
 H    3.900755   -3.871319    0.537533
 H   -2.017904   -0.331256    1.544375
 H   -2.223460   -1.434945   -1.165595
 H    1.514943   -2.206192    1.130718
 H    6.184055    1.008786   -1.786597
