74 
3zsq_ligand_ani.xyz
 C   -0.625663    5.276178   -0.814570
 C    0.120981    5.029884   -1.961587
 C   -1.124695    4.208941   -0.078223
 C    0.371346    3.717287   -2.350550
 C    2.667231    0.602295    1.453645
 C   -3.133517   -1.723686    1.016654
 C   -4.123958   -0.420793   -0.728046
 C    3.323331    0.148579    2.604784
 C   -3.324088   -2.891696    0.279040
 C   -4.312907   -1.568002   -1.479758
 C   -0.873648    2.888266   -0.463006
 C    4.365542   -0.348381   -0.004986
 C   -3.534773   -0.477284    0.536803
 C   -0.107329    2.631944   -1.614353
 C    3.172297    0.392074    0.168930
 C    4.496838   -0.535964    2.414887
 C    5.010697   -0.778847    1.150789
 C   -3.923317   -2.814197   -0.978552
 C   -0.723492   -2.424656   -2.475750
 C   -0.235252   -1.672339   -1.493409
 C   -1.424104    1.766916    0.378145
 C    4.886968   -0.732686   -1.356331
 C    6.403486   -1.658836    2.650355
 C   -6.855034    0.728833    3.258714
 C   -3.862822   -5.163035   -1.286601
 C    0.207194    1.224646   -2.094054
 C    2.404069    1.025215   -0.977683
 C    1.108567   -1.004927   -1.554418
 C   -5.528435    0.206139    2.716901
 C   -4.760928    1.262836    1.923687
 C   -3.406094    0.771737    1.401411
 N   -2.730878    1.861695    0.708863
 N    1.042046    0.427500   -1.141411
 O    6.204927   -0.980770   -1.355332
 O   -0.749373    0.799398    0.741908
 O    4.221627   -0.830788   -2.366478
 O    5.313718   -1.086655    3.364343
 O    6.159868   -1.503720    1.257911
 O   -4.142063   -3.878171   -1.798990
 H   -0.832327    6.295500   -0.500198
 H    0.511547    5.854996   -2.551053
 H   -1.703340    4.395029    0.824003
 H    0.965856    3.521489   -3.240385
 H    1.734841    1.149594    1.567256
 H   -2.660581   -1.792795    1.995919
 H   -4.439247    0.537173   -1.140111
 H    2.929571    0.325832    3.600274
 H   -3.006403   -3.840795    0.696546
 H   -4.767319   -1.531747   -2.465885
 H   -1.687910   -2.920950   -2.414715
 H   -0.156454   -2.567125   -3.393693
 H   -0.801905   -1.504171   -0.574801
 H    6.472053   -2.724297    2.891020
 H    7.328167   -1.134955    2.917928
 H   -7.385249   -0.043936    3.824844
 H   -7.511844    1.055379    2.444084
 H   -6.699226    1.585799    3.924929
 H   -4.141220   -5.868494   -2.070472
 H   -2.796204   -5.281564   -1.051662
 H   -4.451558   -5.370384   -0.383482
 H    0.725885    1.272587   -3.062094
 H   -0.715346    0.658862   -2.242389
 H    2.252578    2.087003   -0.759890
 H    2.944568    0.935915   -1.919143
 H    1.811506   -1.502512   -0.880583
 H    1.525456   -1.078364   -2.569234
 H   -5.703841   -0.666105    2.072377
 H   -4.902856   -0.144151    3.549492
 H   -4.581982    2.147025    2.550300
 H   -5.371580    1.593253    1.070072
 H   -2.771532    0.498440    2.252061
 H   -3.272128    2.634793    0.352277
 H    0.531359    0.474237   -0.219746
 H    6.427919   -1.227910   -2.270115
