63 
3zsy_ligand_ani.xyz
 C    1.896982    4.795225   -1.259675
 C    0.605040    5.293256   -1.137852
 C    2.146421    3.460529   -0.965416
 C   -0.417204    4.452198   -0.709277
 C   -1.254071   -1.298278    1.381906
 C   -1.163325   -2.560186    0.785254
 C    1.125639    2.610797   -0.528243
 C   -3.363267   -0.822497    0.266458
 C   -0.180980    3.113095   -0.389554
 C   -2.326001   -0.435688    1.147077
 C   -2.185430   -2.924959   -0.054769
 C   -3.260020   -2.086891   -0.306126
 C    1.465287    1.176807   -0.209904
 C   -4.489192    0.093178   -0.104858
 C    6.235763   -2.573202    0.457021
 C    4.917162   -3.202820    0.913652
 C    6.110808   -1.050613    0.364579
 C    3.762719   -2.787568   -0.001016
 C    4.958028   -0.638668   -0.553501
 C   -3.498307   -3.917236   -1.548713
 C    3.632485   -1.262240   -0.106078
 C   -1.026648    2.871605    2.457957
 C   -1.340868    2.261034    0.090602
 C   -2.313912    0.879730    1.908149
 C    2.474097   -0.893759   -1.043448
 N    2.209080    0.532582   -1.139752
 N   -1.182620    1.762468    1.498305
 O   -5.589703   -0.566636   -0.494403
 O    1.086197    0.600956    0.812533
 O   -4.449403    1.306024   -0.080511
 O   -2.342364   -4.099826   -0.739990
 O   -4.122772   -2.697807   -1.167102
 H    2.706180    5.436673   -1.598006
 H    0.391022    6.332418   -1.373395
 H    3.156949    3.068684   -1.055551
 H   -1.428027    4.841647   -0.608320
 H   -0.463657   -0.980539    2.054345
 H   -0.314898   -3.214207    0.966183
 H    7.050974   -2.851870    1.136079
 H    6.502208   -2.973043   -0.532459
 H    4.699087   -2.874152    1.940500
 H    5.003862   -4.295581    0.947541
 H    7.051390   -0.608168    0.014752
 H    5.928955   -0.643166    1.370030
 H    2.814661   -3.213165    0.358863
 H    3.930017   -3.197872   -1.009539
 H    5.177195   -0.967280   -1.581559
 H    4.865818    0.453110   -0.582484
 H   -4.189101   -4.747631   -1.380332
 H   -3.200155   -3.858967   -2.603186
 H    3.394137   -0.873891    0.894212
 H   -0.886728    2.476059    3.468894
 H   -1.919096    3.512547    2.452673
 H   -0.155507    3.468991    2.189872
 H   -2.273049    2.833993    0.023746
 H   -1.450460    1.376670   -0.542317
 H   -3.248866    1.421112    1.777388
 H   -2.180527    0.663635    2.975663
 H    2.689364   -1.265932   -2.051842
 H    1.561613   -1.385287   -0.692473
 H    2.412749    1.013651   -2.001513
 H   -0.291124    1.208748    1.483320
 H   -6.243091    0.118679   -0.720540
