35 
3zt2_ligand_dft.xyz
 C    2.857747   -2.679428    0.878092
 C    4.233652   -2.450922    0.869205
 C    1.970577   -1.686208    0.478130
 C   -0.676419   -0.960510   -1.264515
 C    4.736770   -1.213285    0.476808
 C   -1.781162   -1.819549   -1.324141
 C    2.468699   -0.449639    0.061746
 C   -0.705950    0.254840   -0.577065
 C   -1.905431    0.668585    0.063863
 C    3.855796   -0.216038    0.082025
 C   -2.915531   -1.415198   -0.660126
 C   -2.970186   -0.204659    0.022962
 C    1.768490    0.778158   -0.352338
 C    2.823150    1.836610   -0.539347
 C    0.484707    1.119679   -0.554853
 C   -2.029191    1.950385    0.844975
 C    4.190279    1.194488   -0.320742
 C   -4.886745   -1.270440    0.349481
 O   -2.217894    1.993138    2.028005
 O    2.621867    2.992178   -0.835134
 O   -1.924443    3.082751    0.116768
 O   -4.122861   -2.037916   -0.577321
 O   -4.215562   -0.030435    0.540645
 H    2.472607   -3.640985    1.203709
 H    4.914610   -3.237514    1.180175
 H    0.903359   -1.873615    0.504521
 H    0.238874   -1.245096   -1.772544
 H    5.807066   -1.026480    0.488554
 H   -1.747684   -2.753660   -1.872357
 H    0.337685    2.184702   -0.735923
 H    4.772477    1.255404   -1.248008
 H    4.747898    1.744227    0.445591
 H   -4.945705   -1.804812    1.305832
 H   -5.879146   -1.084717   -0.064628
 H   -1.866412    2.863593   -0.823585
