56 
3ztc_ligand_xtb.xyz
 C    1.988501    1.936711   -1.799999
 C    0.988634    2.236304   -0.748189
 C    0.317845    1.318498    0.106039
 N    0.597171    3.455949   -0.491611
 O   -0.316871    3.394541    0.508405
 C   -0.486569    2.110291    0.872473
 C   -1.452273    1.808991    1.964524
 C   -2.156155    0.481372    1.731596
 O   -1.951566   -0.485733    2.453693
 N   -3.007409    0.431070    0.698138
 C   -3.339704    1.514099   -0.202537
 C   -4.292050    0.891074   -1.231010
 O   -5.198799    1.871363   -1.664308
 C   -4.939187   -0.264020   -0.451589
 C   -3.800695   -0.766819    0.423451
 C   -2.936639   -1.811676   -0.321855
 O   -3.056243   -2.027828   -1.510780
 N   -2.088495   -2.449227    0.495834
 C   -1.072992   -3.364414    0.008917
 C    5.336425    1.227009    0.844551
 C    0.276315   -2.694182   -0.005837
 C    0.894625   -2.353410   -1.201040
 C    6.187242   -0.180701   -0.897320
 C    2.108088   -1.690799   -1.200697
 C    0.895065   -2.354913    1.192711
 C    5.011409   -0.908017   -0.886385
 C    2.099459   -1.678685    1.194818
 C    2.722446   -1.333519   -0.002932
 C    3.984668   -0.579510   -0.004735
 C    4.162916    0.496382    0.863060
 C    6.352213    0.890070   -0.034500
 H    2.893541    1.532240   -1.349096
 H    2.231867    2.847035   -2.339651
 H    1.590724    1.194782   -2.489537
 H    0.419282    0.255243    0.136547
 H   -0.918970    1.727645    2.915908
 H   -2.172895    2.625732    2.036925
 H   -3.874394    2.316371    0.318841
 H   -2.451897    1.933033   -0.677355
 H   -3.720221    0.483545   -2.075256
 H   -5.765426    1.493973   -2.345246
 H   -5.759052    0.123498    0.154276
 H   -5.303399   -1.049616   -1.110649
 H   -4.137764   -1.199859    1.371014
 H   -1.970934   -2.078691    1.436586
 H   -1.056740   -4.241214    0.664407
 H   -1.366693   -3.667381   -0.998224
 H    5.457372    2.065026    1.515200
 H    0.416594   -2.602123   -2.137307
 H    6.978365   -0.449726   -1.581934
 H    2.571992   -1.421083   -2.138266
 H    0.423934   -2.612704    2.130077
 H    4.891551   -1.750109   -1.552468
 H    2.570698   -1.425059    2.132843
 H    3.364857    0.774946    1.536229
 H    7.269037    1.460402   -0.047550
