52 
3ztd_ligand_ani.xyz
 C    2.765234    3.082289   -0.794920
 C    1.347685    2.734786   -0.460258
 C    0.734712    2.731348    0.826044
 N    0.487336    2.394703   -1.390927
 O   -0.718366    2.179105   -0.736223
 C   -0.553580    2.383581    0.576746
 C   -1.759337    2.200390    1.452970
 C   -2.161267    0.730668    1.544694
 O   -1.524908   -0.043797    2.257816
 N   -3.200584    0.314406    0.788743
 C   -4.086904    1.140732   -0.029025
 C   -4.966733    0.124442   -0.755372
 O   -6.229799    0.709995   -0.984050
 C   -4.981797   -1.079387    0.192391
 C   -3.564551   -1.108653    0.747041
 C   -2.612821   -1.902598   -0.181581
 O   -2.993505   -2.357298   -1.253123
 N   -1.344005   -2.036905    0.268856
 C   -0.359536   -2.780161   -0.496450
 C    1.005778   -2.145304   -0.413955
 C    1.960798   -2.622844    0.487176
 C    3.211387   -2.029523    0.583680
 C    1.327112   -1.052997   -1.222844
 C    2.576025   -0.454991   -1.132538
 C    3.523649   -0.942121   -0.229649
 C    4.853052   -0.281263   -0.185683
 C    7.006427   -0.273081    0.714506
 O    5.157891    0.691354   -0.845286
 O    5.709494   -0.870228    0.665315
 H    2.923332    3.061970   -1.876233
 H    3.018191    4.083323   -0.431074
 H    3.457255    2.378068   -0.325478
 H    1.189428    2.957752    1.780532
 H   -1.502235    2.517701    2.464948
 H   -2.579849    2.825612    1.088315
 H   -4.715855    1.795176    0.586726
 H   -3.514035    1.759201   -0.727291
 H   -4.482659   -0.165276   -1.698115
 H   -6.753495    0.090780   -1.507023
 H   -5.240594   -2.011199   -0.313796
 H   -5.699811   -0.890605    0.998352
 H   -3.494729   -1.513851    1.763891
 H   -1.085395   -1.588920    1.143467
 H   -0.320493   -3.823458   -0.151010
 H   -0.714675   -2.804467   -1.532956
 H    1.725881   -3.478540    1.118155
 H    3.951483   -2.407708    1.281388
 H    0.597822   -0.681131   -1.940194
 H    2.848515    0.383587   -1.766326
 H    7.573057   -0.862123    1.435507
 H    7.482521   -0.305097   -0.268479
 H    6.938660    0.768841    1.036548
