58 
3ztx_ligand_xtb.xyz
 N   -2.032723   -2.886540   -0.710672
 C   -1.086984   -1.993827   -0.396664
 N   -1.329970   -0.770875    0.072461
 C   -2.587870   -0.411533    0.283254
 C   -3.647879   -1.323454    0.104715
 C   -3.278682   -2.552301   -0.434167
 O   -6.782961    0.106491    1.011244
 C   -5.656820    0.042930    0.546821
 C   -5.061213    1.233375   -0.118524
 C   -3.736487    1.659464    0.016331
 N   -2.786742    0.889424    0.713600
 C   -1.613496    1.562985    1.232028
 C   -4.281887    3.651498   -1.243792
 C   -5.589574    3.222887   -1.389877
 C   -5.969654    2.027654   -0.814467
 C   -3.369278    2.881357   -0.548573
 N    0.175707   -2.428514   -0.616728
 C    1.411802   -1.820369   -0.428027
 C    1.572998   -0.571624    0.166095
 C    2.830184   -0.028878    0.321090
 C    3.980980   -0.707108   -0.094721
 N    5.225556   -0.097939    0.031309
 C    6.357704   -0.603581   -0.710079
 C    7.346767    0.532735   -0.967858
 C    7.796692    1.174807    0.341517
 O    8.660631    2.245149    0.024166
 C    6.558277    1.633829    1.115321
 C    5.613897    0.450787    1.312186
 C    3.808645   -1.963095   -0.682155
 C    2.550187   -2.504320   -0.847996
 N   -4.953286   -1.121337    0.578132
 C   -5.618984   -2.272947    1.161391
 H   -4.016346   -3.313179   -0.647233
 H   -0.875210    1.791788    0.458361
 H   -1.930861    2.479332    1.726866
 H   -1.148803    0.902741    1.962741
 H   -3.964295    4.590335   -1.672963
 H   -6.306675    3.819652   -1.931668
 H   -6.991630    1.685528   -0.876335
 H   -2.355239    3.234355   -0.457406
 H    0.197786   -3.359201   -1.012689
 H    0.700661   -0.032663    0.489210
 H    2.920295    0.953419    0.759688
 H    6.009750   -0.986403   -1.670113
 H    6.868858   -1.417262   -0.167169
 H    6.871612    1.302487   -1.576615
 H    8.216414    0.158990   -1.508073
 H    8.339960    0.426621    0.945931
 H    8.893742    2.710954    0.834406
 H    6.055785    2.414266    0.541553
 H    6.844748    2.043901    2.087124
 H    6.130268   -0.319372    1.913238
 H    4.727605    0.763539    1.862594
 H    4.662699   -2.538506   -1.002969
 H    2.448474   -3.479854   -1.303289
 H   -6.382330   -1.901252    1.844083
 H   -6.108187   -2.878317    0.395200
 H   -4.896180   -2.882216    1.702450
