58 
3ztx_ligand_ani.xyz
 N   -2.027020   -3.008560   -0.564340
 C   -1.095426   -2.072136   -0.310654
 N   -1.326650   -0.844599    0.129912
 C   -2.595739   -0.454244    0.287602
 C   -3.656141   -1.390036    0.177025
 C   -3.272247   -2.653120   -0.278307
 O   -6.937838   -0.051282    0.487276
 C   -5.726143   -0.003575    0.335536
 C   -5.092928    1.273922   -0.132989
 C   -3.755016    1.682861    0.038822
 N   -2.757657    0.875601    0.622506
 C   -1.587601    1.517186    1.215910
 C   -4.304724    3.821747   -0.998470
 C   -5.625902    3.422915   -1.161615
 C   -6.001407    2.170665   -0.712114
 C   -3.394547    2.970798   -0.393812
 N    0.190167   -2.470544   -0.558424
 C    1.405976   -1.785494   -0.417427
 C    1.601855   -0.710058    0.452849
 C    2.855266   -0.125186    0.560910
 C    3.946612   -0.563668   -0.198616
 N    5.182679    0.103049   -0.077635
 C    6.182533   -0.150486   -1.106026
 C    7.280613    0.904183   -1.059470
 C    7.930460    0.959070    0.312732
 O    8.882833    2.008465    0.287742
 C    6.850765    1.186036    1.369384
 C    5.764882    0.123428    1.263987
 C    3.739646   -1.642084   -1.067306
 C    2.496517   -2.246111   -1.162214
 N   -4.981122   -1.147376    0.586632
 C   -5.751599   -2.269034    1.135255
 H   -4.024308   -3.426551   -0.430257
 H   -0.820784    1.730385    0.456859
 H   -1.885782    2.437998    1.721285
 H   -1.147692    0.837436    1.949985
 H   -3.980402    4.805093   -1.330226
 H   -6.355282    4.083997   -1.621472
 H   -7.032276    1.841213   -0.796797
 H   -2.370037    3.308618   -0.272651
 H    0.234676   -3.387973   -0.976810
 H    0.783526   -0.344379    1.061968
 H    2.993156    0.716108    1.235273
 H    5.694330   -0.123092   -2.085763
 H    6.640965   -1.153885   -0.988058
 H    6.857753    1.890534   -1.284453
 H    8.038282    0.690635   -1.821655
 H    8.428618   -0.007334    0.511465
 H    9.313522    2.037452    1.151437
 H    6.415890    2.181319    1.216913
 H    7.288155    1.168216    2.376570
 H    6.188410   -0.867195    1.518840
 H    4.976654    0.322178    1.994847
 H    4.560129   -2.029850   -1.663391
 H    2.364066   -3.085164   -1.842301
 H   -6.491850   -1.880684    1.832254
 H   -6.285466   -2.812133    0.345190
 H   -5.081232   -2.948873    1.664306
