31 
3zw3_ligand_ani.xyz
 C    6.832319   -1.553827   -0.004775
 C    5.326630   -1.388346   -0.022620
 O    4.541169   -2.314311   -0.073791
 N    4.908119   -0.080600    0.034796
 C    3.575220    0.340535    0.021542
 C    2.422562   -0.413503   -0.009161
 N    1.404980    0.517453   -0.005846
 C    0.053481    0.328499   -0.026194
 C   -0.777254    1.419667   -0.016173
 C   -2.229221    1.339451   -0.028769
 C   -3.071488    0.285788   -0.018791
 S   -2.763415   -1.441279    0.016812
 C   -4.513769   -1.838003    0.029449
 O   -4.979140   -2.943336    0.060155
 N   -5.227835   -0.653653   -0.002300
 C   -4.541457    0.552573   -0.029192
 O   -5.065814    1.643188   -0.055738
 C   -0.185023    2.730704    0.010224
 C    1.160383    2.915318    0.031914
 C    2.008886    1.774100    0.025374
 N    3.332123    1.673688    0.043242
 H    7.231831   -1.285909    0.978854
 H    7.071234   -2.595892   -0.214364
 H    7.310741   -0.910369   -0.750126
 H    5.583387    0.668505    0.067238
 H    2.237955   -1.473431   -0.032972
 H   -0.278030   -0.700266   -0.050747
 H   -2.738872    2.299697   -0.043676
 H   -6.238428   -0.678034   -0.002744
 H   -0.842632    3.598808    0.014027
 H    1.618416    3.897065    0.054287
