31 
3zw3_ligand_dft.xyz
 C    6.789236   -1.577000    0.048076
 C    5.290424   -1.366699    0.107137
 O    4.510721   -2.282382    0.300929
 N    4.873214   -0.072297   -0.070440
 C    3.550078    0.347736   -0.049789
 C    2.406982   -0.395829    0.135903
 N    1.387014    0.531503    0.056796
 C    0.040367    0.366515    0.166723
 C   -0.795207    1.452143    0.056009
 C   -2.245276    1.360868    0.161681
 C   -3.067107    0.301566    0.084948
 S   -2.694032   -1.399731   -0.210982
 C   -4.438440   -1.850777   -0.163993
 O   -4.858864   -2.963866   -0.314012
 N   -5.186567   -0.714393    0.071616
 C   -4.538236    0.505190    0.220879
 O   -5.105299    1.554079    0.423854
 C   -0.212426    2.743812   -0.157655
 C    1.136399    2.904952   -0.273560
 C    1.981098    1.776199   -0.168867
 N    3.297522    1.671940   -0.235809
 H    7.120746   -1.993462    1.003072
 H    7.006501   -2.317136   -0.726322
 H    7.356722   -0.665862   -0.159274
 H    5.544433    0.665021   -0.227085
 H    2.245837   -1.445551    0.304297
 H   -0.288325   -0.643881    0.373538
 H   -2.767051    2.305437    0.309096
 H   -6.194550   -0.777643    0.125156
 H   -0.870719    3.603600   -0.233784
 H    1.592826    3.873208   -0.439240
