55 
3zxh_ligand_ani.xyz
 O    4.404344   -2.840391   -0.803959
 N    3.104606   -2.481610   -0.492008
 N    1.181803   -0.090462   -0.335113
 C    1.483456   -1.110929    0.675602
 C    2.931360   -1.579787    0.490514
 O    3.891798   -1.178131    1.150315
 C    1.213597   -0.611253    2.104926
 C    1.523715   -1.708125    3.127883
 C   -0.235193   -0.136234    2.240335
 S    0.268315   -0.534686   -1.660590
 O    0.295166    0.579051   -2.593709
 O    0.690175   -1.870244   -2.081831
 C   -1.384482   -0.677188   -1.015726
 C   -1.843658   -1.937536   -0.566943
 C   -3.081519   -2.040904    0.008365
 C   -2.172211    0.439014   -0.929974
 C   -3.463818    0.354277   -0.333931
 C   -3.921278   -0.898492    0.151194
 C   -5.205853   -0.974505    0.755031
 C   -5.995464    0.139246    0.865589
 C   -5.541829    1.387453    0.376057
 C   -4.306459    1.489370   -0.209321
 C    1.385759    2.354126    0.046089
 C    2.187101    3.637014   -0.212042
 C    2.062235    1.079212   -0.454619
 C    1.361339    4.863010    0.177999
 C    3.527646    3.646850    0.527453
 H    4.915800   -2.304959   -0.162849
 H    2.481875   -2.555960   -1.291418
 H    0.818189   -1.958775    0.472740
 H    1.895772    0.229271    2.293633
 H    0.903472   -2.594722    2.943614
 H    1.304822   -1.354304    4.141468
 H    2.574917   -2.005812    3.087160
 H   -0.426800    0.222322    3.256873
 H   -0.467713    0.674506    1.543972
 H   -0.932029   -0.960662    2.038860
 H   -1.212480   -2.812356   -0.695650
 H   -3.439351   -3.001267    0.368037
 H   -1.830520    1.391979   -1.319222
 H   -5.549938   -1.937382    1.126861
 H   -6.976840    0.071626    1.328611
 H   -6.179934    2.262502    0.468148
 H   -3.949531    2.444210   -0.590376
 H    1.192715    2.257206    1.124316
 H    0.405805    2.433122   -0.444878
 H    2.390411    3.693895   -1.293286
 H    2.963499    0.865345    0.127930
 H    2.353232    1.184341   -1.505621
 H    1.908003    5.789644   -0.029674
 H    0.411958    4.902036   -0.367986
 H    1.130926    4.845686    1.250854
 H    4.188241    2.833895    0.206185
 H    3.369574    3.544051    1.609183
 H    4.059488    4.590070    0.358402
