45 
3zxr_ligand_ani.xyz
 C   16.957974   91.433813   20.587679
 C   17.574522   92.500127   21.509589
 C   18.857533   91.951942   22.140195
 C   16.575310   92.874386   22.604891
 C   17.935734   93.699762   20.675581
 N   18.982324   93.766801   19.892117
 N   17.182916   94.828224   20.570934
 C   17.809143   95.676876   19.682669
 C   17.300446   97.024927   19.405125
 C   15.932917   97.283736   19.266244
 C   15.514315   98.582110   19.006173
 N   16.336223   99.627227   18.886840
 C   17.638457   99.375377   19.023392
 C   18.165469   98.112602   19.274944
 C   18.917852   94.970201   19.245349
 C   19.931397   95.326487   18.241571
 C   21.254421   94.800432   18.360766
 N   22.238600   95.070829   17.546893
 C   21.983299   95.903053   16.490371
 C   23.047488   96.209695   15.601784
 C   19.672613   96.138434   17.163881
 C   20.704869   96.458677   16.252374
 C   20.510103   97.304053   15.127786
 C   21.551714   97.582631   14.283809
 C   22.834890   97.030075   14.525655
 H   16.043214   91.812201   20.119137
 H   17.663537   91.160979   19.796087
 H   16.709911   90.534149   21.161586
 H   19.306541   92.692510   22.810642
 H   18.638087   91.047916   22.718478
 H   19.585926   91.709437   21.361977
 H   16.973107   93.668398   23.246247
 H   15.617949   93.201297   22.185006
 H   16.376298   91.999844   23.233420
 H   16.406922   95.072805   21.167108
 H   15.199387   96.485044   19.340084
 H   19.238907   97.976618   19.359797
 H   14.452348   98.793278   18.891404
 H   18.305790  100.228499   18.923179
 H   21.479804   94.129561   19.189739
 H   18.683877   96.559739   17.007980
 H   24.018192   95.770865   15.811334
 H   23.652214   97.262529   13.847369
 H   19.520988   97.722851   14.951157
 H   21.403463   98.229006   13.422661
