52 
3zxv_ligand_dft.xyz
 N   18.142173  100.395992   19.070847
 C   17.330480   99.317180   19.340339
 N   16.014607   99.563860   19.367808
 C   15.205921   98.522374   19.569157
 C   15.635287   97.217674   19.751721
 C   17.874824   98.038590   19.539135
 C   17.017050   96.963956   19.738403
 C   17.531889   95.611115   19.965976
 N   16.905575   94.760331   20.857169
 C   17.625899   93.610764   20.930520
 C   17.272747   92.430126   21.805059
 C   16.056392   92.738959   22.687552
 C   18.486414   92.100553   22.690034
 C   16.959785   91.230425   20.893084
 C   18.618175   94.889093   19.505881
 N   18.659473   93.659778   20.120504
 C   19.633662   95.241254   18.499345
 C   19.359609   96.060540   17.425947
 C   20.356888   96.393957   16.480376
 C   21.663484   95.856434   16.621429
 C   21.918399   94.991290   17.716833
 C   20.937538   94.692645   18.624509
 C   20.093950   97.256900   15.380142
 C   21.071305   97.567493   14.479798
 C   22.377981   97.027459   14.624804
 C   22.669423   96.188739   15.674142
 O   23.254943   97.413274   13.663601
 C   24.569384   96.912142   13.738313
 H   17.699912  101.294752   19.194978
 H   19.104721  100.344465   19.365872
 H   18.949494   97.890065   19.526882
 H   14.141804   98.750975   19.578262
 H   14.914052   96.414942   19.866971
 H   16.114791   95.008744   21.430718
 H   15.825004   91.872396   23.314858
 H   16.245729   93.586767   23.357410
 H   15.163362   92.953464   22.087553
 H   18.282153   91.210860   23.296693
 H   19.366953   91.910631   22.070664
 H   18.717677   92.931871   23.365105
 H   16.742732   90.341512   21.496698
 H   16.090661   91.435923   20.258478
 H   17.812180   91.015931   20.242869
 H   18.360482   96.464952   17.289065
 H   21.136311   94.024073   19.455662
 H   19.096652   97.673831   15.266888
 H   22.912233   94.564830   17.828945
 H   23.658977   95.763917   15.804379
 H   20.882602   98.226244   13.638599
 H   25.103196   97.333397   12.885572
 H   25.065058   97.223119   14.667276
 H   24.585004   95.816441   13.672178
