44 
3zya_ligand_xtb.xyz
 N   -5.443552   -1.417863    0.502970
 O    3.167224   -2.114631    1.184238
 C    5.183000    2.068751   -0.629959
 C    4.376771    1.949041    0.488231
 C    5.208188    1.054725   -1.570670
 C   -5.407491    2.200291   -0.225023
 C   -4.103959    2.366715   -0.656051
 C   -5.848793    0.950782    0.173454
 C    3.594773    0.820397    0.685644
 C    4.437463   -0.078431   -1.378438
 C   -0.755893   -0.194909    0.438570
 C   -0.771531   -2.180067   -0.885506
 C   -3.246436    1.281030   -0.701577
 C    0.629125   -0.236044    0.556940
 C    0.598581   -2.227677   -0.772907
 C    2.661641    0.713457    1.851062
 N   -2.855018   -1.109439   -0.355100
 C    2.829699   -1.468653   -0.043398
 C    1.221917    0.889669    1.369453
 C   -4.996312   -0.145115    0.153139
 C   -1.477774   -1.135424   -0.288242
 C    3.628244   -0.204309   -0.258167
 C    1.328504   -1.265957   -0.075493
 C   -3.674005    0.023300   -0.299005
 H   -4.745376   -1.990284    0.956686
 H   -6.323139   -1.418335    0.998215
 H    4.122946   -2.232005    1.209897
 H    5.787693    2.953116   -0.768283
 H    4.352037    2.743877    1.220629
 H    5.830206    1.141890   -2.449267
 H   -6.083275    3.041622   -0.194321
 H   -3.754139    3.337757   -0.972062
 H   -6.865781    0.817074    0.515503
 H    4.462303   -0.874440   -2.110188
 H   -1.294975    0.591262    0.947059
 H   -1.301553   -2.945948   -1.434319
 H   -2.239440    1.400474   -1.071662
 H    1.128890   -3.042089   -1.245751
 H    2.759938   -0.257905    2.335622
 H    2.888069    1.493887    2.580795
 H   -3.288968   -1.926500   -0.760988
 H    3.078235   -2.159185   -0.867747
 H    1.164383    1.804294    0.767220
 H    0.579865    1.040155    2.241639
