60 
3zyb_ligand_ani.xyz
 N    4.240217   -0.460597   -2.203315
 C    3.743082   -0.592927   -0.787137
 C    2.343304   -1.225823   -0.947956
 O    1.755109   -1.051363   -2.013172
 C    3.664486    0.777910   -0.081773
 C    3.025990    1.919023   -0.886133
 C    2.801772    3.190786   -0.053848
 C    1.672094    3.119911    0.979145
 N    0.350399    2.887476    0.333245
 N    1.796537   -1.931599    0.070510
 C    0.357222   -2.167476    0.082306
 C   -0.386302   -0.839158    0.310339
 O    0.197165    0.171031    0.690274
 C    0.190981   -3.118797    1.274906
 C    1.240737   -2.607887    2.264333
 C    2.419083   -2.189264    1.375034
 N   -1.738991   -0.852933    0.144963
 C   -2.492714    0.399338    0.152270
 C   -2.321889    1.148203    1.484485
 O   -2.078214    2.344630    1.518428
 C   -3.983938    0.159599   -0.102825
 C   -4.350105   -0.466241   -1.456281
 C   -5.865926   -0.651809   -1.534677
 C   -3.850569    0.370524   -2.636009
 N   -2.542457    0.413614    2.606133
 H    4.755039    0.419291   -2.338659
 H    4.839386   -1.261779   -2.471417
 H    3.348506   -0.479693   -2.756424
 H    4.407988   -1.256246   -0.234290
 H    4.677728    1.075540    0.218905
 H    3.101728    0.648853    0.849125
 H    3.673124    2.194187   -1.728981
 H    2.079365    1.585811   -1.332283
 H    2.593797    4.030746   -0.730285
 H    3.731355    3.451400    0.468326
 H    1.841551    2.302433    1.687503
 H    1.636947    4.048215    1.555089
 H    0.270677    1.873472    0.147080
 H    0.248219    3.425155   -0.542005
 H   -0.436381    3.109343    0.962236
 H    0.029068   -2.608590   -0.864576
 H    0.422572   -4.139089    0.953193
 H   -0.824475   -3.117830    1.683033
 H    0.857125   -1.730438    2.793739
 H    1.523770   -3.357936    3.007361
 H    2.908384   -1.288528    1.763044
 H    3.178991   -2.978187    1.291682
 H   -2.162582   -1.634942   -0.333071
 H   -2.096944    1.087621   -0.603515
 H   -4.381927   -0.467073    0.706886
 H   -4.492687    1.129283   -0.018808
 H   -3.893732   -1.465595   -1.523352
 H   -6.159965   -1.119227   -2.480907
 H   -6.375074    0.317602   -1.467262
 H   -6.235149   -1.281666   -0.717552
 H   -4.249307    1.391756   -2.581691
 H   -2.757085    0.436490   -2.661892
 H   -4.177333   -0.064728   -3.586745
 H   -2.353086    0.854895    3.493862
 H   -2.505859   -0.592129    2.550592
