24 
3zzf_ligand_xtb.xyz
 C   -1.060214   -0.266726   -0.335623
 C   -2.546124   -0.270163   -0.011669
 O   -3.304633   -1.143748   -0.333350
 O   -2.928802    0.801531    0.685936
 C   -0.449028   -1.618862    0.075112
 C    0.972465   -1.786135   -0.452532
 C    1.995688   -1.022272    0.350448
 O    1.819696   -0.510382    1.425454
 O    3.176321   -0.998624   -0.270117
 C    0.502029    1.606869   -0.442062
 C    1.176343    2.667872    0.395675
 O    0.712287    1.436315   -1.624723
 N   -0.386118    0.857383    0.254702
 H   -0.959076   -0.146740   -1.423872
 H   -3.883898    0.768761    0.857006
 H   -0.437271   -1.689672    1.165077
 H   -1.089256   -2.407359   -0.320518
 H    1.266618   -2.837786   -0.416427
 H    1.052606   -1.457461   -1.489796
 H    3.830965   -0.502238    0.245893
 H    0.433238    3.362349    0.780369
 H    1.685445    2.199132    1.235058
 H    1.894040    3.209362   -0.213441
 H   -0.436494    0.955740    1.256036
