48 
456c_ligand_ani.xyz
 C   -3.952563    0.909576   -0.340977
 C   -5.152222    0.941620   -1.044074
 C   -6.154200    0.028183   -0.744177
 C   -5.949115   -0.901842    0.269591
 C   -4.756235   -0.931062    0.980844
 C   -3.748537   -0.022912    0.673308
 O   -3.025041    1.879377   -0.648525
 C   -1.698331    1.527898   -0.753578
 C   -0.768869    2.417412   -0.225101
 C    0.587067    2.147789   -0.343341
 C    1.001703    0.981309   -0.976114
 C    0.075704    0.129464   -1.565720
 C   -1.282775    0.385915   -1.436104
 S    2.739272    0.652571   -1.199279
 O    3.472982    1.846635   -0.761151
 O    2.876360    0.163006   -2.571744
 C    3.277715   -0.723137   -0.082567
 C    4.549305   -1.273934   -0.746828
 C    4.996650   -2.574332   -0.088661
 O    3.967139   -3.539408   -0.113294
 C    2.817378   -3.111691    0.583323
 C    2.227817   -1.836249   -0.015025
 C    3.635294   -0.126312    1.295621
 C    2.535610    0.681282    1.939510
 N    2.858800    1.997445    2.139670
 O    1.460374    0.225738    2.304897
 O    1.790941    2.799395    2.536777
Cl   -7.205673   -2.044888    0.654143
 H   -5.284364    1.687944   -1.821213
 H   -7.092795    0.039037   -1.289681
 H   -4.615207   -1.664888    1.768206
 H   -2.805115   -0.043998    1.211248
 H   -1.124290    3.317217    0.266990
 H    1.313589    2.848834    0.052062
 H    0.417374   -0.722962   -2.145953
 H   -2.016264   -0.290587   -1.862301
 H    5.339540   -0.516037   -0.702115
 H    4.333538   -1.466066   -1.802990
 H    5.332695   -2.396167    0.945915
 H    5.834952   -3.008994   -0.639954
 H    3.049334   -2.971678    1.652331
 H    2.095224   -3.929865    0.509245
 H    1.896022   -2.068365   -1.034127
 H    1.368297   -1.514218    0.583419
 H    4.527121    0.497437    1.194748
 H    3.874870   -0.938698    1.988649
 H    3.363434    2.438087    1.372482
 H    1.058105    2.152006    2.588129
