33 
4a23_ligand_dft.xyz
 O   -2.743476   -2.168431   -0.076350
 C   -2.609365   -0.950431   -0.051710
 C   -1.231538   -0.337986   -0.033688
 C   -0.886759    1.030347    0.017175
 O   -1.903297    1.930763    0.037593
 C   -1.613151    3.310717    0.140755
 C    0.442532    1.435826    0.011132
 C    1.509970    0.515682   -0.014401
 N    2.801631    0.962576   -0.104542
 C    3.121418    2.339210    0.205131
 C    3.820858    0.245660   -0.852674
 C    1.146687   -0.851252    0.012049
 N    2.114170   -1.917006    0.243317
 O    3.056148   -1.682889    0.991089
 O    1.905093   -3.002302   -0.280390
 C   -0.182609   -1.243723   -0.035744
 N   -3.680042   -0.121519   -0.043055
 C   -5.019452   -0.667087   -0.058619
 H   -1.031077    3.526100    1.043860
 H   -1.074115    3.670529   -0.743229
 H   -2.578768    3.812819    0.202366
 H    0.674439    2.489501   -0.042892
 H    2.901418    3.028626   -0.625714
 H    2.578374    2.668401    1.094918
 H    4.189542    2.404940    0.427734
 H    4.568645   -0.209782   -0.196522
 H    3.369421   -0.538802   -1.463864
 H    4.314669    0.946567   -1.535997
 H   -0.429560   -2.299505   -0.034531
 H   -3.529530    0.873597   -0.019246
 H   -5.180634   -1.281002   -0.950300
 H   -5.196300   -1.297785    0.818462
 H   -5.734127    0.158534   -0.057055
