103 
4a4q_ligand_xtb.xyz
 C    0.406284    1.124905    0.246659
 O    0.013218    0.113405    0.834267
 C   -0.451865    2.085934   -0.566565
 C    0.610180    2.741188   -1.472018
 C    1.852664    2.748236   -0.568384
 N    1.655994    1.572733    0.256936
 C    2.709945    0.953247    1.018542
 C    3.989023    0.725334    0.260869
 C    5.081750    0.920046    1.102197
 C    4.624535    1.308763    2.479700
 C    3.177789    1.784825    2.257870
 O    3.112444    3.167822    2.022181
 C    6.366216    0.737504    0.629883
 C    6.542444    0.357470   -0.693182
 C    5.453314    0.168455   -1.527580
 C    4.160696    0.351894   -1.056708
 O    0.803444    1.915180   -2.600331
 C   -1.596907    1.442373   -1.363011
 C   -1.329977    0.015422   -1.834309
 C   -1.011821    3.094930    0.473689
 C   -1.683785    4.289240   -0.147458
 C   -3.031544    4.264226   -0.483812
 C   -3.636272    5.365836   -1.063165
 C   -2.902252    6.512809   -1.310741
 C   -1.563812    6.557216   -0.960619
 C   -0.961558    5.454150   -0.381755
 C    4.435615   -2.774666   -0.000360
 C    2.997340   -2.688054   -0.287750
 C    2.056261   -2.802119    0.734838
 C    0.706348   -2.693999    0.469144
 C    0.260131   -2.474619   -0.829327
 C    1.189733   -2.369402   -1.855958
 C    2.541027   -2.476759   -1.587933
 C   -1.213657   -2.336143   -1.085116
 N   -1.672783   -0.954316   -0.770684
 N   -3.054290   -0.894020   -0.500214
 C   -3.486753   -1.083535    0.786318
 C   -5.023320   -1.159453    0.817485
 N   -5.399879   -2.512057    0.445906
 C   -5.389553   -2.961146   -0.823499
 O   -5.953718   -4.164834   -0.921275
 C   -5.985871   -4.750666   -2.219548
 O   -4.898012   -2.350035   -1.760550
 C   -5.662608   -0.724660    2.156072
 C   -7.183161   -0.684542    1.974641
 C   -5.159028    0.684008    2.485679
 C   -5.299088   -1.675468    3.298114
 O   -2.723679   -1.166222    1.714375
 C    4.957560   -2.312703    1.207186
 C    6.323611   -2.384601    1.418937
 N    7.173758   -2.872489    0.534143
 C    6.684379   -3.329023   -0.604809
 C    5.336430   -3.307216   -0.921932
 H    0.314616    3.749729   -1.780485
 H    1.898371    3.650756    0.046663
 H    2.779739    2.652509   -1.138385
 H    2.301658   -0.004860    1.366283
 H    4.647680    0.443267    3.144565
 H    5.234742    2.091837    2.931336
 H    2.526827    1.606815    3.116867
 H    3.888693    3.431309    1.513134
 H    7.218166    0.884244    1.275069
 H    7.540071    0.204912   -1.073762
 H    5.611752   -0.125067   -2.554175
 H    3.307541    0.200750   -1.702203
 H    1.387940    2.360257   -3.223207
 H   -2.503390    1.436657   -0.757242
 H   -1.787836    2.070230   -2.232802
 H   -0.279229   -0.107985   -2.095761
 H   -1.945822   -0.214600   -2.707581
 H   -0.194830    3.436919    1.111525
 H   -1.719147    2.555399    1.107465
 H   -3.623503    3.385409   -0.272804
 H   -4.685455    5.331149   -1.314671
 H   -3.373985    7.372604   -1.760319
 H   -0.988891    7.454835   -1.130414
 H    0.077268    5.508531   -0.087083
 H    2.381653   -3.001244    1.744075
 H   -0.006925   -2.777112    1.274918
 H    0.858257   -2.215780   -2.873290
 H    3.250479   -2.381322   -2.395234
 H   -1.762516   -3.013291   -0.426107
 H   -1.472554   -2.560300   -2.123343
 H   -1.122698   -0.602089    0.127719
 H   -3.690410   -1.222347   -1.248849
 H   -5.389320   -0.486166    0.029421
 H   -5.796848   -3.109093    1.154437
 H   -4.982134   -5.052467   -2.524576
 H   -6.385026   -4.042796   -2.947285
 H   -6.632261   -5.619743   -2.136924
 H   -7.463222    0.035966    1.209380
 H   -7.656187   -0.389604    2.907099
 H   -7.578226   -1.656645    1.689590
 H   -5.346963    1.367276    1.659607
 H   -5.677390    1.063236    3.361660
 H   -4.094524    0.673161    2.701692
 H   -5.676424   -1.272842    4.234154
 H   -4.221954   -1.780434    3.381990
 H   -5.741205   -2.660616    3.164730
 H    4.313967   -1.885437    1.959868
 H    6.761801   -2.032558    2.343384
 H    7.411374   -3.732601   -1.296725
 H    4.994431   -3.717645   -1.859029
