48 
4a4v_ligand_ani.xyz
 C    7.056256    0.693090    0.122566
 C    5.532622    0.675658    0.036345
 C    4.988707   -0.653658   -0.491357
 C    3.470153   -0.671945   -0.683932
 C    2.664633   -0.607928    0.622321
 C    1.175609   -0.549692    0.366708
 C    0.473748    0.648933    0.130050
 C    1.199380    1.979818    0.134770
 O    0.468255    3.090487    0.272064
 O    2.402984    2.074428    0.039092
 C   -0.910866    0.551122   -0.132470
 O   -1.630190    1.713751   -0.299572
 C    0.492360   -1.765049    0.320100
 C   -0.866865   -1.824731    0.014879
 O   -1.564502   -2.990435   -0.046306
 C   -0.875532   -4.184013    0.245000
 C   -1.592498   -0.659914   -0.255395
 C   -3.046866   -0.707730   -0.697296
 C   -3.997454   -0.109099    0.316807
 C   -5.032329    0.704793    0.095462
 C   -5.880044    1.216224    1.233896
 C   -5.447459    1.189429   -1.269182
 H    7.421838   -0.095445    0.790869
 H    7.508137    0.528316   -0.862591
 H    7.423388    1.651611    0.503188
 H    5.189091    1.488867   -0.617526
 H    5.108921    0.884639    1.028057
 H    5.289835   -1.467243    0.187301
 H    5.464965   -0.868473   -1.458135
 H    3.187553   -1.586805   -1.222078
 H    3.172549    0.169766   -1.318994
 H    2.966842    0.248981    1.225517
 H    2.877335   -1.508896    1.211231
 H   -0.482391    2.879700    0.221527
 H   -2.557567    1.531753   -0.072115
 H    1.040587   -2.678233    0.521369
 H   -0.062963   -4.359046   -0.471226
 H   -0.464838   -4.169702    1.262416
 H   -1.609221   -4.986997    0.161569
 H   -3.320414   -1.754186   -0.852036
 H   -3.153842   -0.202870   -1.667229
 H   -3.794220   -0.411579    1.346125
 H   -6.929628    0.931419    1.091462
 H   -5.547872    0.826960    2.202639
 H   -5.853234    2.312232    1.275794
 H   -5.381009    2.283195   -1.323983
 H   -4.834815    0.768231   -2.069093
 H   -6.492736    0.926103   -1.471925
