66 
4a4x_ligand_ani.xyz
 C   -3.060055   -3.448947   -0.326286
 C   -2.400226   -2.124583    0.017289
 O   -3.479855   -1.224570    0.307088
 C   -3.333462    0.058586   -0.122069
 C   -2.206401    0.779186    0.245848
 C   -2.043727    2.109017   -0.135077
 C   -0.759623    2.781116    0.175233
 C    0.444690    2.118256   -0.010413
 C    1.661272    2.767753    0.199440
 C    2.929907    2.089671   -0.092921
 C    3.106737    0.938005   -0.810204
 C    4.476340    0.560462   -0.956627
 C    4.904017   -0.656712   -1.729458
 N    4.272814   -1.903534   -1.168750
 C    4.368473   -3.042330   -2.108854
 C    4.902015   -2.250518    0.142384
 C    5.310965    1.434546   -0.329011
 S    4.455144    2.720174    0.430317
 C    1.596868    4.083349    0.666780
 N    0.457383    4.732309    0.889572
 C   -0.696604    4.109668    0.656076
 N   -1.846981    4.844334    0.878569
 C   -3.061209    2.722068   -0.875012
 C   -4.181020    1.997051   -1.248551
 C   -4.334516    0.651519   -0.904007
 C   -5.485795   -0.162834   -1.424104
 N   -6.682674    0.501572   -1.457994
 O   -5.373285   -1.308558   -1.819666
 C   -1.484967   -2.237053    1.231593
 C   -2.061180   -2.163625    2.500513
 C   -1.286302   -2.248170    3.652850
 C    0.089502   -2.410922    3.547741
 C    0.673494   -2.499987    2.288295
 C   -0.102169   -2.436866    1.136066
 C    0.595057   -2.537275   -0.198930
 F    0.663007   -1.342024   -0.827508
 F    0.003539   -3.391755   -1.053933
 F    1.871862   -2.961653   -0.060894
 H   -2.311928   -4.178700   -0.649649
 H   -3.584196   -3.837736    0.554517
 H   -3.792061   -3.279882   -1.121827
 H   -1.842828   -1.726917   -0.838305
 H   -1.453975    0.294171    0.864076
 H    0.428023    1.077812   -0.332459
 H    2.290334    0.384011   -1.262300
 H    5.993247   -0.777844   -1.703333
 H    4.604587   -0.586139   -2.779844
 H    3.282031   -1.696897   -0.994510
 H    5.419657   -3.315369   -2.258676
 H    3.942012   -2.765039   -3.077351
 H    3.831202   -3.904168   -1.709876
 H    4.445488   -3.151498    0.555556
 H    4.773882   -1.416426    0.833042
 H    5.973206   -2.432105   -0.002564
 H    6.389200    1.376404   -0.268696
 H    2.507321    4.646025    0.864892
 H   -2.639832    4.317646    1.221297
 H   -1.663118    5.682124    1.413212
 H   -2.958530    3.762917   -1.166915
 H   -4.952249    2.474410   -1.847350
 H   -7.491366   -0.063509   -1.670421
 H   -6.825585    1.311952   -0.876806
 H   -3.133991   -2.015096    2.572278
 H   -1.759430   -2.179439    4.629626
 H    0.705822   -2.471802    4.440247
 H    1.743956   -2.633105    2.187439
