53 
4a50_ligand_xtb.xyz
 C   -2.776477    3.537373   -0.184809
 C   -1.819622    2.625937   -0.883864
 C   -1.110132    1.655739   -0.168655
 C   -1.613725    2.724031   -2.255697
 C   -0.701456    1.895485   -2.882683
 C    0.029397    0.963875   -2.159227
 C   -0.139930    0.850324   -0.786660
 C    0.609559   -0.169358    0.053826
 C    1.779619   -0.777455   -0.711378
 C    2.799793    0.078910   -1.122828
 C    3.909748   -0.402142   -1.789088
 C    4.027849   -1.756408   -2.054607
 C    3.026889   -2.616059   -1.644314
 C    1.912232   -2.132580   -0.976907
 C   -0.438969   -1.215102    0.518272
 C   -1.281192   -1.815766   -0.622493
 C   -2.787391   -1.633001   -0.424159
 C   -3.251333   -2.187138    0.936837
 O   -2.945452   -3.439824    1.123348
 O   -3.843349   -1.464973    1.699392
 N   -3.197135   -0.205737   -0.415129
 C    1.247643    0.480626    1.285893
 C    1.710299   -0.317764    2.326529
 C    2.326857    0.240919    3.431231
 C    2.509010    1.610266    3.511659
 C    2.088109    2.410852    2.465790
 C    1.469593    1.851120    1.360949
 H   -2.347518    4.536834   -0.124889
 H   -3.712002    3.622907   -0.734238
 H   -2.982580    3.202898    0.829107
 H   -1.193633    1.643775    0.911541
 H   -2.151803    3.467019   -2.823593
 H   -0.541058    1.983528   -3.945781
 H    0.754624    0.348127   -2.667389
 H    2.723625    1.135567   -0.913663
 H    4.686575    0.281083   -2.096088
 H    4.894904   -2.137082   -2.571283
 H    3.108692   -3.674719   -1.839001
 H    1.161071   -2.841226   -0.668245
 H    0.073500   -2.016061    1.045467
 H   -1.083108   -0.728647    1.254256
 H   -1.106251   -2.888714   -0.698342
 H   -0.999050   -1.375670   -1.580119
 H   -3.323096   -2.177662   -1.206750
 H   -3.248191   -3.781912    1.983079
 H   -3.783140    0.054183   -1.209451
 H   -3.742092   -0.103175    0.476677
 H   -2.348289    0.476689   -0.372189
 H    1.614597   -1.391440    2.277774
 H    2.673305   -0.399811    4.227564
 H    2.988390    2.046674    4.373847
 H    2.245109    3.478198    2.501840
 H    1.169553    2.501059    0.552148
