106 
4a6c_ligand_xtb.xyz
 C   -3.102815   -0.900788    0.914143
 O   -2.508426   -0.584412   -0.120468
 C   -3.465560   -1.203126    3.246984
 C   -4.391140   -2.113960    2.418353
 N   -3.902155   -1.956840    1.064326
 C   -4.327777   -2.874705    0.024931
 C   -4.836452   -2.194792   -1.220720
 C   -4.413251   -2.881557   -2.354586
 C   -3.608181   -4.088283   -1.971108
 C   -3.193777   -3.804627   -0.513208
 O   -1.941624   -3.172420   -0.455342
 C   -4.767845   -2.434263   -3.611817
 C   -5.551467   -1.293758   -3.717298
 C   -5.987723   -0.624823   -2.585546
 C   -5.638876   -1.076793   -1.320939
 O   -2.335420   -1.920381    3.678870
 C   -0.474572   -0.066635    2.742233
 C   -0.016699   -1.049502    1.670162
 C   -4.246657    0.907783    2.141445
 C   -3.979637    2.110908    1.273863
 C   -4.073148    2.042606   -0.111063
 C   -3.860109    3.168393   -0.886931
 C   -3.561146    4.380799   -0.290440
 C   -3.465945    4.459995    1.088233
 C   -3.672167    3.332759    1.862754
 C    6.350147   -1.883466   -0.270054
 C    4.889740   -1.762174   -0.384800
 C    4.321062   -0.809410   -1.227395
 C    2.948993   -0.686255   -1.322520
 C    2.110331   -1.519302   -0.590100
 C    2.675431   -2.488122    0.232131
 C    4.047644   -2.602042    0.340502
 C    0.620191   -1.372986   -0.704997
 N    0.055676   -0.439556    0.325164
 N    0.744451    0.788950    0.383730
 C    0.611099    1.697216   -0.621224
 C    1.533090    2.905092   -0.360659
 N    2.919127    2.493479   -0.520713
 C    3.636902    1.886649    0.444424
 O    4.942763    1.925416    0.180851
 C    5.812903    1.322665    1.133739
 O    3.142089    1.333804    1.415456
 C    1.214832    4.154230   -1.215520
 C    1.422306    3.885182   -2.707262
 C   -0.243623    4.548717   -0.967795
 C    2.120114    5.304238   -0.759650
 O   -0.157614    1.536985   -1.536835
 C    6.959986   -2.120229    0.961464
 C    8.341434   -2.209646    1.014850
 N    9.119951   -2.084925   -0.044924
 C    8.546854   -1.869600   -1.215458
 C   -3.073584   -0.119011    2.217675
 C    7.176126   -1.757875   -1.385776
 C   -1.782950    0.675288    2.458919
 H   -3.990849   -0.768657    4.106654
 H   -5.442616   -1.817766    2.494528
 H   -4.297618   -3.158415    2.728537
 H   -5.122575   -3.492288    0.457210
 H   -4.225502   -4.986795   -2.027518
 H   -2.730501   -4.237806   -2.600324
 H   -3.091539   -4.715325    0.081617
 H   -2.054287   -2.324493   -0.917677
 H   -4.442426   -2.961897   -4.495144
 H   -5.831420   -0.928172   -4.693156
 H   -6.606864    0.253476   -2.684820
 H   -5.997405   -0.566530   -0.438442
 H   -2.601729   -2.563488    4.345080
 H   -0.566792   -0.632637    3.666631
 H    0.295995    0.691073    2.894406
 H    0.978938   -1.414126    1.931029
 H   -0.705855   -1.893716    1.612935
 H   -4.449474    1.251269    3.158186
 H   -5.142382    0.400829    1.777088
 H   -4.314362    1.109888   -0.596076
 H   -3.937997    3.096396   -1.960953
 H   -3.410277    5.261331   -0.895388
 H   -3.240593    5.402996    1.563185
 H   -3.609771    3.407475    2.939299
 H    4.958942   -0.152541   -1.798942
 H    2.521953    0.052493   -1.985502
 H    2.039971   -3.175188    0.771683
 H    4.472418   -3.368120    0.971015
 H    0.358801   -0.953109   -1.679018
 H    0.123639   -2.335394   -0.577085
 H   -0.964140   -0.245701    0.027947
 H    1.586990    0.843191    0.983501
 H    1.385306    3.168679    0.696794
 H    3.435460    2.899893   -1.285835
 H    5.344156    0.439070    1.568042
 H    6.719711    1.052716    0.598457
 H    6.043324    2.037057    1.925731
 H    1.139599    4.767292   -3.275203
 H    2.460879    3.661253   -2.943086
 H    0.800672    3.057365   -3.033951
 H   -0.463274    5.477542   -1.486258
 H   -0.921301    3.785082   -1.336165
 H   -0.432691    4.698063    0.093091
 H    1.967803    5.519352    0.295637
 H    3.173251    5.082127   -0.914682
 H    1.882645    6.200965   -1.325198
 H    6.371471   -2.213340    1.861461
 H    8.851390   -2.388512    1.951857
 H    9.220731   -1.781383   -2.056937
 H    6.757421   -1.600865   -2.367720
 H   -1.963855    1.329342    3.313738
 H   -1.651378    1.321627    1.586782
