106 
4a6c_ligand_ani.xyz
 C   -3.061743   -1.035273    0.890585
 O   -2.392319   -0.671821   -0.082216
 C   -3.574107   -1.411822    3.180618
 C   -4.371263   -2.374636    2.287106
 N   -3.764235   -2.194537    0.975772
 C   -4.116642   -3.058933   -0.140078
 C   -4.682834   -2.356406   -1.363976
 C   -4.228728   -2.968757   -2.527526
 C   -3.358740   -4.160649   -2.194687
 C   -2.950403   -3.938275   -0.720330
 O   -1.694320   -3.311410   -0.641430
 C   -4.597518   -2.477878   -3.773136
 C   -5.445949   -1.372869   -3.835574
 C   -5.924803   -0.779947   -2.669313
 C   -5.552460   -1.275282   -1.421413
 O   -2.411872   -2.049178    3.686357
 C   -0.614569   -0.057540    2.810611
 C   -0.043139   -1.032758    1.784506
 C   -4.467831    0.665022    2.121400
 C   -4.331706    1.976790    1.382202
 C   -4.364599    2.033587   -0.014207
 C   -4.274551    3.252717   -0.678663
 C   -4.132637    4.436988    0.040053
 C   -4.091869    4.396076    1.430132
 C   -4.194334    3.175942    2.091034
 C    6.561482   -1.843602   -0.018558
 C    5.086591   -1.770924   -0.176700
 C    4.522770   -0.924208   -1.138285
 C    3.146068   -0.835721   -1.281178
 C    2.289761   -1.566561   -0.454433
 C    2.854098   -2.424456    0.490773
 C    4.232932   -2.526724    0.628842
 C    0.797559   -1.421537   -0.587702
 N    0.161953   -0.434945    0.406170
 N    0.856738    0.817899    0.446765
 C    0.593628    1.715191   -0.550022
 C    1.477387    2.977772   -0.462486
 N    2.823822    2.671078   -0.909323
 C    3.771813    2.269422   -0.024434
 O    4.983364    2.209880   -0.612030
 C    6.045304    1.804082    0.255251
 O    3.561771    1.995085    1.145533
 C    0.889919    4.235326   -1.152989
 C    0.821862    4.080168   -2.678337
 C   -0.519360    4.477605   -0.604383
 C    1.783287    5.434817   -0.806714
 O   -0.268817    1.518482   -1.393487
 C    7.167906   -1.934003    1.235785
 C    8.555097   -1.960283    1.315147
 N    9.367798   -1.916347    0.256737
 C    8.780252   -1.840403   -0.939097
 C   -3.207385   -0.262166    2.205346
 C    7.404552   -1.797648   -1.130433
 C   -1.977344    0.592581    2.549589
 H   -4.178306   -1.034107    4.015036
 H   -5.442515   -2.126742    2.285111
 H   -4.259362   -3.414197    2.615328
 H   -4.877060   -3.745072    0.252632
 H   -3.926659   -5.094617   -2.297513
 H   -2.476740   -4.238879   -2.838008
 H   -2.883931   -4.890980   -0.176727
 H   -1.849949   -2.366926   -0.835663
 H   -4.237476   -2.945945   -4.686803
 H   -5.741537   -0.975399   -4.803392
 H   -6.594272    0.074288   -2.731365
 H   -5.956489   -0.824716   -0.517622
 H   -2.700440   -2.800541    4.219771
 H   -0.649462   -0.592498    3.759931
 H    0.108738    0.757614    2.936046
 H    0.926088   -1.389597    2.157137
 H   -0.682282   -1.910708    1.681261
 H   -4.763384    0.892439    3.152622
 H   -5.289810    0.088054    1.677680
 H   -4.467711    1.121166   -0.596704
 H   -4.298576    3.275492   -1.765524
 H   -4.042337    5.386598   -0.483051
 H   -3.982959    5.315107    2.000798
 H   -4.172170    3.157909    3.179665
 H    5.169800   -0.310752   -1.762206
 H    2.716624   -0.192258   -2.045555
 H    2.206657   -3.022586    1.131044
 H    4.653908   -3.209323    1.362690
 H    0.534769   -1.058349   -1.584452
 H    0.299361   -2.381082   -0.433689
 H   -0.782593   -0.174128    0.030828
 H    1.774671    0.817637    0.890461
 H    1.584765    3.199314    0.606906
 H    3.062051    2.684322   -1.888805
 H    5.906263    0.765712    0.567852
 H    6.956424    1.900704   -0.335352
 H    6.092316    2.446345    1.138269
 H    0.347808    4.969718   -3.111024
 H    1.818054    3.999422   -3.131068
 H    0.233556    3.202531   -2.957908
 H   -0.944993    5.396200   -1.026782
 H   -1.173908    3.641592   -0.861474
 H   -0.501609    4.583799    0.487234
 H    1.824293    5.595866    0.277594
 H    2.805768    5.291437   -1.170752
 H    1.382583    6.347369   -1.261797
 H    6.571299   -1.958504    2.143551
 H    9.039334   -2.025019    2.288179
 H    9.446443   -1.803641   -1.799475
 H    6.990119   -1.751678   -2.134305
 H   -2.231847    1.169867    3.450565
 H   -1.874806    1.338433    1.748208
