40 
4a6s_ligand_dft.xyz
 C   -1.439810   -0.789558   -0.070708
 O   -1.166678    0.547414    0.255554
 S   -0.465569   -1.871720    1.023604
 C   -2.933807   -1.066338    0.132502
 O   -3.329961   -2.363052   -0.266581
 C   -3.743195   -0.106790   -0.735678
 O   -5.121644   -0.229035   -0.456513
 C   -3.350460    1.346060   -0.467505
 O   -3.764399    1.734973    0.819712
 C   -1.835778    1.483773   -0.585722
 C    1.861595   -2.286643   -0.450926
 O    0.102506    2.904449   -0.412413
 C   -1.285676    2.840354   -0.176754
 C    3.114312   -1.943800   -0.888016
 C    1.172558   -1.446332    0.459877
 C    1.759675   -0.289054    0.913219
 C    3.045766    0.097514    0.459200
 C    3.738753   -0.745462   -0.453513
 C    5.029200   -0.357733   -0.899612
 C    5.596816    0.811412   -0.464296
 C    4.903194    1.653131    0.438067
 C    3.658163    1.303927    0.890252
 H   -1.156855   -1.000868   -1.113795
 H   -3.177913   -0.871508    1.186227
 H   -2.925276   -3.008707    0.326200
 H   -3.536791   -0.349256   -1.790539
 H   -5.309389   -1.177305   -0.419767
 H   -3.817598    1.981984   -1.237441
 H   -4.659533    1.379223    0.921783
 H   -1.552744    1.291516   -1.634194
 H    1.385443   -3.199398   -0.794523
 H    0.477645    2.101169   -0.025885
 H   -1.753318    3.626287   -0.776956
 H   -1.534439    3.016619    0.877822
 H    3.645176   -2.589441   -1.582651
 H    1.232060    0.339398    1.624821
 H    5.560219   -1.003290   -1.594266
 H    6.583722    1.099167   -0.813984
 H    5.363294    2.578793    0.769478
 H    3.118976    1.948369    1.579621
