23 
4a6w_ligand_ani.xyz
 C    1.834325   -0.921351   -0.138519
 O    4.232961    1.623322    0.881365
 C    0.197736   -2.193977   -0.504123
 C   -0.323141   -0.997652   -0.107578
 C    3.173398   -0.287107    0.032211
 C   -1.689225   -0.509833    0.056256
 C   -2.088406    0.820492   -0.156830
 C   -3.411675    1.210650    0.020847
 C   -4.366216    0.279128    0.409406
 N    1.570661   -2.124335   -0.521111
 C   -3.998449   -1.046438    0.614421
 C   -2.678341   -1.427858    0.432405
 N    3.095013    1.037851    0.357505
 O    0.735262   -0.171477    0.131216
 O    4.208839   -0.884019   -0.161197
Cl   -0.968899    2.044250   -0.682087
 H    4.782198    1.818370    0.108088
 H   -0.329035   -3.090030   -0.800926
 H   -3.683994    2.248123   -0.150481
 H   -5.397291    0.591224    0.548393
 H   -4.739436   -1.780552    0.915669
 H   -2.389461   -2.461785    0.600573
 H    2.252057    1.428870    0.757342
