66 
4a7b_ligand_ani.xyz
 C   -3.021434    0.949859   -0.902761
 C   -1.757271    1.522652   -0.945470
 C   -1.526250    2.711086   -0.254302
 C   -2.545562    3.332722    0.459226
 C   -3.801646    2.748112    0.503905
 C   -4.057517    1.546243   -0.173530
 C   -5.356452    0.930717   -0.113656
 C   -6.438221    0.394179   -0.060841
 C   -7.770943   -0.231788    0.008892
 C   -7.979660   -0.911594    1.375088
 N   -8.547907   -2.303804    1.176983
 C   -9.801450   -2.245484    0.334259
 C   -9.404982   -1.806205   -1.082028
 C   -7.946501   -1.339198   -1.065180
 C   -7.032232   -2.530963   -0.754389
 C   -7.519868   -3.206547    0.536427
 O   -8.776844    0.774778   -0.112610
 O   -0.309390    3.351965   -0.295757
 C    0.825499    2.587770   -0.131962
 C    1.835253    2.726465   -1.079599
 C    3.011693    2.005715   -0.931394
 C    3.186074    1.155714    0.163840
 C    2.160188    1.025042    1.099525
 C    0.980291    1.742687    0.965448
 C    4.421585    0.337018    0.383527
 O    4.391428   -0.684049    1.060558
 N    5.562072    0.810578   -0.193828
 C    6.874566    0.190640   -0.038258
 C    7.345733    0.151538    1.429030
 C    8.775759   -0.373372    1.584946
 C    8.936754   -1.810255    1.091582
 S    8.499290   -1.936977   -0.641863
 O    8.396823   -3.346404   -0.996378
 O    9.385591   -1.037135   -1.381314
 C    6.863524   -1.211710   -0.665271
 H   -3.206020    0.022051   -1.435771
 H   -0.953153    1.051661   -1.503249
 H   -2.334674    4.266017    0.972472
 H   -4.595826    3.227814    1.068370
 H   -8.680277   -0.312935    1.955751
 H   -7.043336   -1.002921    1.933731
 H   -8.786328   -2.673006    2.097759
 H  -10.478959   -1.528926    0.800806
 H  -10.278631   -3.229062    0.350462
 H  -10.049318   -0.992173   -1.419318
 H   -9.512333   -2.635357   -1.789930
 H   -7.684652   -0.922473   -2.045203
 H   -5.997906   -2.183606   -0.650097
 H   -7.054945   -3.240576   -1.586236
 H   -7.996254   -4.169724    0.336268
 H   -6.709161   -3.372082    1.249991
 H   -8.497446    1.384925   -0.808209
 H    1.683979    3.400798   -1.917331
 H    3.778613    2.090763   -1.699497
 H    2.304350    0.339885    1.929809
 H    0.182184    1.646561    1.696731
 H    5.532916    1.731772   -0.600990
 H    7.566167    0.811079   -0.616377
 H    6.642599   -0.470922    1.995677
 H    7.279359    1.163879    1.841944
 H    9.061842   -0.344961    2.641745
 H    9.477270    0.273263    1.043427
 H    9.972366   -2.159213    1.147215
 H    8.299932   -2.513111    1.640161
 H    6.579330   -1.163277   -1.720912
 H    6.168075   -1.871413   -0.139792
