66 
4a7b_ligand_dft.xyz
 C   -2.837677    0.547926   -0.444626
 C   -1.588091    1.142139   -0.352425
 C   -1.499670    2.524261   -0.168737
 C   -2.657983    3.303964   -0.087314
 C   -3.899378    2.704316   -0.182647
 C   -4.006292    1.315068   -0.358857
 C   -5.288951    0.692509   -0.450805
 C   -6.378451    0.170681   -0.523476
 C   -7.679231   -0.488664   -0.637678
 C   -8.664253    0.063193    0.427981
 N   -9.425789   -1.083829    1.034158
 C  -10.029245   -1.950218   -0.048179
 C   -8.886351   -2.691306   -0.761040
 C   -7.554823   -2.020964   -0.393377
 C   -7.259204   -2.265914    1.093356
 C   -8.511253   -1.903202    1.913385
 O   -8.302619   -0.230062   -1.885325
 O   -0.326714    3.202798   -0.087074
 C    0.857443    2.501790    0.051125
 C    1.753983    2.506426   -1.007904
 C    2.973491    1.852290   -0.863493
 C    3.287649    1.193690    0.326398
 C    2.362950    1.189866    1.373544
 C    1.151750    1.853202    1.247420
 C    4.563043    0.425143    0.533973
 O    4.604917   -0.521009    1.309237
 N    5.635535    0.839535   -0.196360
 C    6.950936    0.208932   -0.130811
 C    7.610491    0.359887    1.250204
 C    9.040435   -0.195994    1.293492
 C    9.117593   -1.686360    0.957757
 S    8.487205   -1.991546   -0.697737
 O    8.343181   -3.426426   -0.911197
 O    9.261735   -1.170568   -1.629212
 C    6.851740   -1.258589   -0.568109
 H   -2.909909   -0.525072   -0.590674
 H   -0.690918    0.538663   -0.425563
 H   -2.557241    4.374722    0.050042
 H   -4.798290    3.309108   -0.121270
 H   -9.375705    0.737585   -0.050540
 H   -8.150419    0.576139    1.241658
 H  -10.181232   -0.703432    1.607243
 H  -10.564650   -1.277307   -0.719850
 H  -10.742206   -2.619683    0.436631
 H   -9.054642   -2.653531   -1.836860
 H   -8.860356   -3.742491   -0.460020
 H   -6.744684   -2.415084   -1.010316
 H   -6.402812   -1.664067    1.409426
 H   -7.005874   -3.314736    1.263530
 H   -9.083542   -2.779120    2.226307
 H   -8.283394   -1.302265    2.795811
 H   -7.621063   -0.219739   -2.570539
 H    1.490024    3.012287   -1.930191
 H    3.658321    1.828203   -1.706241
 H    2.612054    0.656788    2.284759
 H    0.432672    1.870590    2.060012
 H    5.579938    1.735082   -0.655600
 H    7.567128    0.726841   -0.873372
 H    6.983825   -0.146226    1.991894
 H    7.630095    1.423805    1.509592
 H    9.453419   -0.049535    2.296570
 H    9.682842    0.354772    0.597598
 H   10.145793   -2.058941    0.954078
 H    8.522071   -2.300741    1.640203
 H    6.407057   -1.349543   -1.563142
 H    6.270296   -1.850569    0.141657
