44 
4a95_ligand_ani.xyz
 N    3.063707    3.662660    0.918682
 C    2.083777    3.114320    1.197527
 C    0.823157    2.446380    1.554497
 C   -0.213761    2.502176    0.429458
 S    0.217362    1.519632   -1.052579
 C   -0.108131   -0.152855   -0.504372
 C   -1.456079   -0.540181   -0.177481
 C   -2.608859    0.247543   -0.463387
 C   -3.852267   -0.181521   -0.056917
 O   -5.007379    0.501166   -0.264736
 C   -4.907747    1.714912   -0.975087
 C   -3.998573   -1.410355    0.635959
 C   -2.908266   -2.189205    0.884549
 C   -1.613640   -1.787011    0.461069
 N   -0.580996   -2.646591    0.699150
 C    0.612521   -2.319548    0.270871
 C    1.703423   -3.333341    0.529690
 C    0.899733   -1.092470   -0.411815
 C    2.302419   -0.846927   -0.936597
 C    3.247770   -0.231374    0.103975
 C    4.664670    0.030525   -0.412109
 C    5.438457   -1.232646   -0.787584
 H    0.419315    2.947201    2.441292
 H    1.030773    1.408617    1.836785
 H   -0.334847    3.529415    0.077630
 H   -1.177659    2.158902    0.812810
 H   -2.485491    1.176454   -1.008001
 H   -4.258633    2.429263   -0.451154
 H   -4.516323    1.552827   -1.988076
 H   -5.919691    2.117983   -1.036814
 H   -4.998049   -1.704137    0.945247
 H   -2.989190   -3.142725    1.397651
 H    2.548988   -2.883238    1.058294
 H    1.299687   -4.147942    1.132740
 H    2.088159   -3.745384   -0.409622
 H    2.247943   -0.185918   -1.808175
 H    2.719072   -1.795963   -1.295020
 H    3.294638   -0.889808    0.981474
 H    2.816399    0.711658    0.462112
 H    5.222087    0.573398    0.361878
 H    4.616205    0.703930   -1.279526
 H    5.499150   -1.923505    0.061940
 H    4.966481   -1.766987   -1.619043
 H    6.461626   -0.990499   -1.093566
