44 
4a95_ligand_dft.xyz
 N    3.203024    3.209028    0.779434
 C    2.153488    2.827391    1.083267
 C    0.818874    2.358092    1.461697
 C   -0.213444    2.533744    0.342768
 S    0.123319    1.556496   -1.159913
 C   -0.134502   -0.104231   -0.528544
 C   -1.463145   -0.511723   -0.187499
 C   -2.615736    0.300376   -0.362861
 C   -3.852563   -0.161152    0.024618
 O   -5.010740    0.528421   -0.104504
 C   -4.952074    1.812503   -0.684242
 C   -3.994450   -1.450617    0.602408
 C   -2.902814   -2.254584    0.748702
 C   -1.612410   -1.812660    0.347908
 N   -0.579302   -2.682039    0.470627
 C    0.622476   -2.310292    0.095322
 C    1.688944   -3.369843    0.236148
 C    0.920490   -0.994151   -0.403321
 C    2.344811   -0.642175   -0.770781
 C    3.281082   -0.457593    0.434831
 C    4.664976    0.067670    0.044393
 C    5.448079   -0.874104   -0.870666
 H    0.494763    2.914407    2.348814
 H    0.882172    1.302110    1.747235
 H   -0.241079    3.574482    0.008157
 H   -1.200610    2.276387    0.736041
 H   -2.502417    1.263344   -0.844337
 H   -4.321240    2.489356   -0.092959
 H   -4.570543    1.771110   -1.712198
 H   -5.975979    2.187171   -0.691986
 H   -4.987016   -1.773064    0.898618
 H   -2.983628   -3.253678    1.163642
 H    2.266439   -3.230084    1.156372
 H    1.201594   -4.344407    0.294231
 H    2.396224   -3.371373   -0.598184
 H    2.357407    0.280748   -1.354823
 H    2.742573   -1.426555   -1.424683
 H    3.393458   -1.403127    0.977791
 H    2.824326    0.248460    1.136803
 H    5.238893    0.239170    0.962840
 H    4.554513    1.049763   -0.430743
 H    5.527944   -1.875916   -0.430648
 H    4.973041   -0.977535   -1.852326
 H    6.463413   -0.500903   -1.038326
