37 
4a9n_ligand_xtb.xyz
 O    2.018978   -1.808065   -0.756894
 S    2.448329   -0.434640   -0.754818
 O    3.194939    0.026063   -1.890157
 N    3.390754   -0.084699    0.583540
 C    2.962058   -0.588414    1.861568
 C    1.927481   -1.659814    1.949396
 C    3.140155   -2.024171    2.245615
 C    1.016080    0.596030   -0.465546
 C    1.132944    1.974902   -0.349147
 C    2.457417    2.651609   -0.455887
 C   -0.039528    2.691775   -0.125909
 C   -1.266222    2.061596   -0.031686
 C   -0.199277   -0.046985   -0.376295
 C   -1.369250    0.677332   -0.159804
 C   -2.653564   -0.005676   -0.080362
 C   -3.757662    0.262682    0.788967
 C   -3.874981    1.302252    1.841535
 C   -3.084627   -1.084347   -0.819462
 C   -2.465312   -1.862512   -1.918874
 O   -4.324803   -1.414364   -0.430470
 N   -4.722753   -0.587123    0.566208
 H    4.368577   -0.223421    0.373335
 H    3.003144    0.194221    2.617566
 H    0.899007   -1.881475    1.816541
 H    3.845645   -2.772151    2.508008
 H    3.031787    2.487758    0.454931
 H    3.024342    2.223174   -1.278462
 H    2.334096    3.721093   -0.608162
 H    0.011847    3.766864   -0.032698
 H   -2.156615    2.652203    0.117774
 H   -0.210652   -1.120459   -0.472051
 H   -2.915160    1.457896    2.329138
 H   -4.201878    2.245673    1.405446
 H   -4.617342    0.991214    2.571184
 H   -1.773181   -1.237727   -2.477573
 H   -1.915940   -2.716281   -1.522177
 H   -3.244119   -2.238207   -2.578446
