40 
4a9r_ligand_xtb.xyz
 C  -11.716267   46.769024    2.729029
 N  -10.816920   45.815684    2.363118
 O   -7.034925   50.079394   12.668701
 C  -11.567117   47.284473    4.119111
 C  -10.331902   47.341302    4.751317
 N   -9.292368   48.075059    6.927175
 C  -10.306594   47.860755    6.032464
 N  -11.155460   48.763185    7.936624
 C   -9.859435   48.619310    8.055157
 C  -11.479847   48.307727    6.693153
 C  -12.708620   48.250185    6.040218
 C  -12.727915   47.747566    4.759971
 C   -9.110253   48.994626    9.236134
Cl   -8.436010   54.361557   16.416302
 C   -9.808700   49.498938   10.336008
 C   -9.147143   49.883692   11.481247
 C   -7.759410   49.775967   11.549491
 C   -7.055013   49.258687   10.465216
 C   -7.722671   48.873062    9.322060
 C   -7.431864   51.084638   13.508285
 C   -8.039102   52.253834   13.059701
 C   -8.348348   53.259912   13.955439
 C   -8.045700   53.102332   15.298442
 C   -7.426966   51.947880   15.753063
 C   -7.121798   50.941676   14.858061
 O  -12.565794   47.169997    1.961972
 H  -10.924431   45.396479    1.454140
 H  -10.234275   45.351032    3.035175
 H   -9.422013   47.032704    4.256907
 H   -8.318783   47.873399    6.779740
 H  -13.604211   48.598409    6.528095
 H  -13.651950   47.696553    4.204450
 H  -10.881637   49.574372   10.264605
 H   -9.699507   50.257159   12.330846
 H   -5.982674   49.167350   10.539715
 H   -7.147390   48.483374    8.495209
 H   -8.258865   52.380431   12.010097
 H   -8.817746   54.167173   13.609551
 H   -7.189636   51.837503   16.799141
 H   -6.637742   50.036599   15.188869
