60 
4ac3_ligand_dft.xyz
 C   -3.231413    3.359554   -1.166359
 O   -3.573449    2.019709   -0.878853
 C   -2.619486    1.067958   -1.030872
 C   -1.366102    1.306208   -1.589146
 C   -0.424647    0.278450   -1.644911
 O    0.839936    0.458079   -2.082570
 C    1.164844    1.682896   -2.700496
 C   -0.776372   -1.002893   -1.201801
 C   -2.043294   -1.236453   -0.681664
 C   -2.967323   -0.209375   -0.573749
 N   -4.232990   -0.397402    0.021235
 C   -4.420634   -1.008936    1.236372
 O   -3.523533   -1.547129    1.861979
 C   -5.854793   -1.015320    1.728372
 S    0.422143   -2.323820   -1.104759
 O    1.183733   -2.405443   -2.337017
 O   -0.305040   -3.473953   -0.591561
 N    1.489308   -1.850597    0.073075
 C    0.945802   -1.474984    1.384100
 C    0.642690    0.007408    1.524880
 C   -0.632855    0.417775    1.904837
 C   -0.974417    1.767734    1.944653
 C   -0.030226    2.724884    1.597426
 C    1.258232    2.334114    1.239129
 C    1.611013    0.983461    1.210610
 N    2.913399    0.550407    0.830668
 C    3.668154    1.409365   -0.072244
 C    4.798608    0.607866   -0.715921
 C    5.712494    0.002947    0.353228
 C    4.896150   -0.777774    1.386754
 C    3.760682    0.083275    1.933233
 H   -2.369408    3.679931   -0.568739
 H   -3.013101    3.498231   -2.232389
 H   -4.103732    3.956363   -0.898508
 H   -1.103164    2.300178   -1.920928
 H    0.499879    1.887234   -3.548397
 H    1.119141    2.515551   -1.986103
 H    2.186460    1.569972   -3.064569
 H   -2.284796   -2.226305   -0.315995
 H   -4.977703    0.183862   -0.332384
 H   -6.276186   -2.012186    1.565482
 H   -5.853816   -0.826717    2.803603
 H   -6.494977   -0.282269    1.229214
 H    2.155905   -1.160721   -0.272583
 H    1.663529   -1.814529    2.137806
 H    0.036457   -2.058441    1.552817
 H   -1.391503   -0.331615    2.117718
 H   -1.983402    2.059838    2.220280
 H   -0.283566    3.781676    1.619389
 H    1.999747    3.088861    0.995686
 H    4.096055    2.281544    0.458591
 H    2.987725    1.790025   -0.835563
 H    5.371616    1.258060   -1.387106
 H    4.357783   -0.189488   -1.327506
 H    6.253003    0.813872    0.861950
 H    6.467068   -0.642582   -0.108401
 H    5.536420   -1.109320    2.211822
 H    4.462122   -1.673139    0.924497
 H    3.152655   -0.481847    2.641973
 H    4.171680    0.949148    2.485232
