53 
4acx_ligand_ani.xyz
 C   -8.664478   -1.671718   -1.975723
 O   -7.354837   -1.547364   -1.480116
 C   -7.354985   -1.101432   -0.146645
 C   -5.978982   -0.968980    0.339258
 C   -4.850186   -0.852367    0.753566
 C   -3.513689   -0.707199    1.265250
 C   -3.233812   -0.991953    2.607482
 C   -1.942634   -0.824711    3.096657
 C   -0.928272   -0.381273    2.255796
 C   -1.189528   -0.113893    0.909726
 C   -2.482086   -0.270346    0.430068
 C   -0.047232    0.349800   -0.003069
 C    0.404174    1.772056    0.378022
 N    0.844799    2.137721    1.510689
 C    1.361689    3.499178    1.573852
 C    1.896463    4.013731    0.241459
 C    0.868425    3.899320   -0.862641
 N    0.297910    2.570238   -0.757325
 C   -0.105111    1.835670   -1.865780
 N   -0.506168    0.589309   -1.390932
 N   -0.078995    2.313356   -3.043409
 F    2.288619    5.310047    0.378216
 F    3.014956    3.298128   -0.116259
 C    1.118968   -0.656844   -0.002594
 C    2.416922   -0.228159   -0.275114
 C    3.483371   -1.116748   -0.365694
 C    3.239578   -2.474501   -0.194876
 C    1.947280   -2.936365    0.054903
 C    0.902740   -2.031852    0.151633
 O    4.210494   -3.445745   -0.274797
 C    5.526446   -3.078039   -0.147096
 F    5.954822   -2.461285   -1.275056
 F    6.221927   -4.207039   -0.003551
 H   -9.251061   -2.397767   -1.391096
 H   -8.588581   -2.025046   -3.005636
 H   -9.193551   -0.705766   -1.967334
 H   -7.869462   -0.128040   -0.066587
 H   -7.906352   -1.809736    0.495953
 H   -4.027033   -1.337816    3.263740
 H   -1.728170   -1.041625    4.138878
 H    0.082028   -0.235952    2.630157
 H   -2.687354   -0.043798   -0.608409
 H    2.165459    3.547587    2.316514
 H    0.570925    4.189998    1.900445
 H    0.102024    4.670749   -0.739929
 H    1.328392    4.011735   -1.845343
 H   -0.372909   -0.184124   -2.023120
 H   -0.421467    1.632868   -3.719027
 H    2.609792    0.836288   -0.395653
 H    4.476294   -0.740957   -0.584009
 H    1.790221   -4.003936    0.173129
 H   -0.101833   -2.391292    0.364623
 H    5.701279   -2.411786    0.708058
