45 
4ad2_ligand_ani.xyz
 C    0.916375   -1.090408   -1.010554
 C    2.233667   -1.589224   -0.408580
 C    2.779690   -0.618537    0.631001
 C    2.848979    0.795532    0.063829
 C    1.454952    1.142009   -0.436231
 C    1.260040    2.536957   -0.984523
 O    2.052052   -2.869292    0.140441
 O    4.033972   -1.062136    1.131176
 O    3.225740    1.711574    1.066387
 O    1.088205    0.225629   -1.478568
 O   -0.155429    2.726310   -1.083757
 O   -3.580182   -2.119368   -0.090365
 C   -2.454700   -1.461183    0.484892
 C   -1.433665   -1.410567   -0.652034
 O   -0.139896   -1.153374   -0.087145
 C   -1.873064   -0.400523   -1.725954
 N   -2.166244    0.948814   -1.157487
 C   -3.224667    0.876393   -0.107356
 C   -2.865820   -0.082363    1.036914
 C   -1.831027    0.476666    2.009704
 O   -2.221102    1.788909    2.373201
 H    0.675080   -1.712708   -1.883170
 H    2.955571   -1.628565   -1.246382
 H    2.115160   -0.617236    1.500471
 H    3.552353    0.824216   -0.789323
 H    0.775082    1.036723    0.419142
 H    1.736350    2.610671   -1.970175
 H    1.706663    3.274443   -0.307096
 H    2.809537   -3.001923    0.728983
 H    4.661788   -1.083548    0.394406
 H    3.970612    1.306559    1.533775
 H   -0.315973    3.584392   -1.495649
 H   -4.222640   -2.290255    0.610562
 H   -2.023771   -2.067579    1.297256
 H   -1.417451   -2.407915   -1.113779
 H   -1.104947   -0.296974   -2.490329
 H   -2.776708   -0.801368   -2.191871
 H   -1.296404    1.379714   -0.781579
 H   -2.477021    1.570827   -1.920113
 H   -4.146638    0.513580   -0.570966
 H   -3.403235    1.872443    0.290386
 H   -3.787780   -0.228102    1.618328
 H   -1.784895   -0.181018    2.894741
 H   -0.836844    0.468316    1.545131
 H   -1.491615    2.199075    2.852055
