24 
4ad6_ligand_xtb.xyz
 O    2.312158   20.627935   14.102993
 C    1.153159   21.359951   14.432113
 C    0.764481   22.206534   13.218379
 N    1.795732   23.154549   12.902359
 C    2.100833   24.296860   13.610773
 C    1.503908   24.892977   14.753590
 O    0.556555   24.523635   15.425900
 N    2.183832   26.079801   15.075092
 C    3.268031   26.577346   14.399848
 N    3.839905   27.705331   14.903258
 N    3.800458   26.015005   13.360710
 C    3.213584   24.861356   12.969251
 N    3.578224   24.090015   11.918484
 C    2.723027   23.088991   11.920723
 S    2.760823   21.822795   10.735514
 H    2.578727   20.094764   14.857841
 H    0.317256   20.689202   14.672271
 H    1.330334   22.022562   15.288998
 H    0.620738   21.557616   12.351234
 H   -0.156523   22.748533   13.446237
 H    1.839609   26.564491   15.894794
 H    4.536436   28.122250   14.308502
 H    3.283619   28.330668   15.461002
 H    3.807094   22.351832   10.112133
