24 
4ad6_ligand_dft.xyz
 O    2.149937   20.421215   14.086753
 C    1.062824   21.258619   14.408684
 C    0.718919   22.216623   13.271486
 N    1.829130   23.114686   12.981303
 C    2.121633   24.286447   13.656774
 C    1.490419   24.906919   14.773023
 O    0.523049   24.546118   15.429618
 N    2.181015   26.096114   15.087817
 C    3.292487   26.571730   14.426800
 N    3.838386   27.727507   14.940471
 N    3.855485   25.980491   13.416335
 C    3.255443   24.808926   13.052134
 N    3.678001   23.991912   12.044346
 C    2.805888   22.999833   12.041089
 S    2.877253   21.622618   10.943729
 H    2.960518   20.941410   14.141742
 H    0.204358   20.604875   14.586516
 H    1.239802   21.838893   15.324353
 H    0.492779   21.657971   12.359187
 H   -0.143575   22.829333   13.542128
 H    1.855436   26.559864   15.926247
 H    4.568153   28.094903   14.344803
 H    3.192327   28.434250   15.263514
 H    3.662331   22.273744   10.073146
