61 
4af3_ligand_ani.xyz
 N    7.858504   -0.515888   -0.291485
 C    7.142661    0.684882   -0.882812
 C    5.864933    1.042109   -0.129110
 N    4.972504   -0.106403   -0.068397
 C    5.561741   -1.437990   -0.018419
 C    6.956191   -1.357366    0.576346
 C    9.106494   -0.149816    0.419127
 C    3.623508    0.042147   -0.038362
 C    3.011757    1.292647    0.146410
 C    1.617110    1.312611    0.145676
 N    0.880936    0.209882   -0.002186
 C    1.577544   -0.907272   -0.169435
 N    2.891729   -1.075447   -0.188910
 N    0.953248    2.498368    0.309618
 C   -0.419576    2.681366    0.224744
 C   -1.473906    1.795575    0.508189
 C   -2.614610    2.589835    0.262635
 N   -2.230770    3.812606   -0.107186
 N   -0.873074    3.878643   -0.123384
 C   -4.072477    2.260365    0.345965
 S    0.684447   -2.408689   -0.414738
 C   -0.985115   -1.906177   -0.090556
 C   -1.576255   -2.241705    1.127751
 C   -2.903635   -1.932068    1.369489
 C   -3.679162   -1.296296    0.391238
 C   -3.077997   -0.924789   -0.816588
 C   -1.743114   -1.229828   -1.047843
 N   -5.039547   -1.075121    0.675567
 C   -6.043277   -0.674101   -0.174460
 O   -5.854737   -0.247292   -1.303671
 C   -7.421078   -0.778735    0.397456
 C   -8.419044    0.250988   -0.069992
 C   -8.520402   -1.146735   -0.569151
 H    8.119035   -1.122663   -1.083791
 H    6.902474    0.450251   -1.922640
 H    7.838249    1.525330   -0.873932
 H    5.369227    1.844338   -0.676359
 H    6.101218    1.414320    0.878368
 H    5.597741   -1.878281   -1.025450
 H    4.931061   -2.084125    0.594039
 H    6.909024   -0.898906    1.567021
 H    7.397911   -2.352064    0.680881
 H    8.867346    0.467714    1.291214
 H    9.618379   -1.052083    0.762837
 H    9.767847    0.414685   -0.242516
 H    3.575407    2.198805    0.337144
 H    1.465277    3.360993    0.188869
 H   -1.376519    0.785167    0.844715
 H   -4.384077    1.614564   -0.484682
 H   -4.316294    1.734804    1.276065
 H   -4.649591    3.186221    0.297819
 H   -0.984827   -2.743368    1.889705
 H   -3.344575   -2.197698    2.328304
 H   -3.662212   -0.390597   -1.555235
 H   -1.273657   -0.916861   -1.977394
 H   -5.334994   -1.397683    1.584430
 H   -7.500892   -1.139200    1.420570
 H   -8.034049    0.990263   -0.764926
 H   -9.149746    0.609075    0.648741
 H   -9.321934   -1.779928   -0.200782
 H   -8.208542   -1.330062   -1.593088
