38 
4afj_ligand_xtb.xyz
 C   -3.622511    1.255571   -0.582083
 C   -2.403531   -0.601136    0.335197
 C   -4.760156    0.487785   -0.629209
 C   -3.547068   -1.374351    0.288199
 C    5.502533   -0.613956    0.666036
 C    3.653123   -1.044099   -0.769688
 C    6.327655   -1.000307   -0.379152
 C    4.567699   -1.404762   -1.744882
 C   -0.173876    3.400000   -0.414292
 C   -2.419008    0.723093   -0.099578
 C    4.127424   -0.635707    0.472358
 C   -4.739065   -0.841909   -0.196014
 C   -1.241196    1.562827   -0.075015
 C    0.085715    1.420136    0.303184
 C    0.883674    0.311700    0.863813
 C   -5.960390   -2.858984    0.120299
 C    3.166912   -0.234956    1.562086
 N    5.877075   -1.384723   -1.559868
 N    0.725875    2.617517    0.066650
 N    2.161773    0.682855    1.088448
 O    0.465364   -0.806596    1.113639
 O   -1.377860    2.838980   -0.528707
 O   -5.914481   -1.512672   -0.289868
 H   -3.654647    2.279673   -0.921181
 H   -1.487020   -1.026106    0.711315
 H   -5.689149    0.890776   -1.000469
 H   -3.495219   -2.394643    0.633029
 H    5.922780   -0.305421    1.611597
 H    2.592160   -1.084266   -0.962849
 H    7.404275   -0.998942   -0.268031
 H    4.239850   -1.728313   -2.724173
 H   -0.038641    4.419009   -0.716983
 H   -5.277764   -3.481015   -0.467191
 H   -5.723529   -2.962895    1.183900
 H   -6.984725   -3.184827   -0.054076
 H    3.709826    0.211756    2.400911
 H    2.628497   -1.122115    1.915934
 H    2.428449    1.614417    0.803601
