46 
4ag8_ligand_xtb.xyz
 O   26.521294   23.795230   36.145851
 C   25.739618   23.132288   36.798892
 N   24.983824   22.144476   36.271774
 C   24.967459   21.857620   34.859737
 C   25.587385   23.321642   38.276241
 C   26.752978   23.504590   39.014855
 C   26.707905   23.711123   40.379777
 C   25.482976   23.745506   41.027842
 C   24.358756   23.387479   38.933861
 C   24.314992   23.584523   40.308764
 S   22.823984   23.204568   38.046721
 C   21.814726   24.473447   38.772372
 C   20.435170   24.193726   38.878481
 C   19.556779   25.115369   39.376494
 C   22.342714   25.680414   39.147161
 C   21.457109   26.628808   39.677066
 N   21.741530   27.860886   40.119671
 N   20.581601   28.363192   40.500779
 C   19.514012   27.541553   40.344670
 C   20.053333   26.358607   39.793238
 C   18.205726   27.974423   40.714178
 C   17.078853   27.250063   40.600829
 C   15.742813   27.677653   40.959486
 N   14.792181   26.766989   40.723646
 C   13.540635   27.057596   41.007439
 C   13.137559   28.271653   41.546715
 C   14.114318   29.223409   41.799411
 C   15.431737   28.929118   41.505138
 H   24.358088   21.619801   36.861265
 H   25.262287   20.823215   34.673828
 H   23.972975   22.028075   34.443001
 H   25.679999   22.529348   34.383342
 H   27.694327   23.485737   38.486797
 H   27.621703   23.846993   40.937624
 H   25.433488   23.900718   42.095155
 H   23.358976   23.621832   40.810213
 H   20.086681   23.225054   38.553810
 H   23.391653   25.911449   39.053288
 H   18.507573   24.878375   39.446876
 H   20.554476   29.302641   40.871204
 H   18.164532   28.981777   41.111345
 H   17.114257   26.248004   40.204221
 H   16.204651   29.656841   41.695563
 H   12.821875   26.277101   40.790959
 H   12.098259   28.464775   41.761102
 H   13.850230   30.183312   42.220316
