18 
4ahs_ligand_xtb.xyz
 C   -1.660539    1.772842   -0.002812
 C   -1.649197    0.380388   -0.001186
 C   -2.658332   -0.634567    0.000270
 C   -2.003998   -1.814983    0.002926
 C   -0.450287    2.435722   -0.001193
 C    0.754018    1.739553    0.001043
 C    0.803937    0.349439    0.001001
 C    2.133484   -0.325537    0.000294
 O    2.124778   -1.666147   -0.007464
 C   -0.424045   -0.315267    0.000488
 O    3.167349    0.286181    0.005208
 O   -0.653494   -1.653885    0.002663
 H   -2.595687    2.310708   -0.004587
 H   -3.718007   -0.485609   -0.000346
 H   -2.356447   -2.827825    0.005491
 H   -0.432107    3.514707   -0.001522
 H    1.694484    2.268765    0.002736
 H    1.228455   -2.035482   -0.010011
