19 
4ahu_ligand_ani.xyz
 C   16.063425   50.690770   28.631311
 C   15.007453   51.603407   28.765551
 C   14.867767   52.270909   29.969311
 C   15.759490   52.043021   31.036300
 C   16.808149   51.146404   30.924680
 C   16.946152   50.475357   29.705456
 N   17.876428   49.541203   29.293811
 C   17.615130   49.163166   28.008374
 C   16.511122   49.840115   27.558415
 C   15.890979   49.729973   26.241506
 O   16.552561   48.864801   25.436677
 O   14.900789   50.322438   25.867131
 H   14.330052   51.765607   27.932942
 H   14.058301   52.984164   30.098487
 H   15.619493   52.585198   31.968316
 H   17.494354   50.973008   31.750523
 H   18.634949   49.194666   29.857905
 H   18.232619   48.435985   27.495609
 H   16.064788   48.866806   24.597695
