18 
4ai5_ligand_dft.xyz
 N   -1.177542    1.714999    0.000577
 C   -0.664371    0.491128    0.000428
 N   -1.323045   -0.714691    0.000312
 C   -0.557276   -1.825521    0.000008
 N    0.750751   -1.857626    0.000488
 C    1.439134   -0.681852    0.000481
 N    2.780594   -0.747817   -0.000963
 C    0.742118    0.525332    0.000758
 N    1.136653    1.834538   -0.000474
 C   -0.033610    2.467684   -0.000195
 C   -2.779190   -0.744744   -0.000858
 H   -1.095173   -2.769369    0.000697
 H    3.239216   -1.643689   -0.000017
 H    3.318169    0.104038   -0.000422
 H   -0.093138    3.550134   -0.000234
 H   -3.152552   -0.224016    0.883071
 H   -3.151408   -0.233010   -0.890568
 H   -3.117826   -1.782067    0.004158
