18 
4ai5_ligand_xtb.xyz
 N   -1.206881    1.686151    0.000647
 C   -0.689729    0.464081    0.000413
 N   -1.307738   -0.747426    0.000912
 C   -0.510760   -1.827497   -0.002685
 N    0.787720   -1.819320   -0.003176
 C    1.464217   -0.645675   -0.000273
 N    2.804803   -0.698902    0.006189
 C    0.740572    0.542900   -0.000672
 N    1.069080    1.861068   -0.001787
 C   -0.104394    2.468847   -0.001120
 C   -2.748427   -0.810361    0.002322
 H   -0.996353   -2.793775   -0.005259
 H    3.267045   -1.589791   -0.005568
 H    3.322094    0.161241   -0.002072
 H   -0.190401    3.538757   -0.002165
 H   -3.131630   -0.277328    0.873072
 H   -3.133475   -0.315663   -0.890165
 H   -3.075043   -1.848198    0.024753
