18 
4aia_ligand_ani.xyz
 N   -1.126421    1.746203   -0.002319
 C   -0.661294    0.512182   -0.000808
 N   -1.348654   -0.678921   -0.001464
 C   -0.605245   -1.818199   -0.004311
 N    0.700347   -1.878204   -0.003428
 C    1.415137   -0.718660    0.000595
 N    2.758747   -0.806460    0.005781
 C    0.749701    0.503767    0.000516
 N    1.199061    1.795634    0.000305
 C    0.054110    2.458224   -0.001459
 C   -2.805333   -0.667448    0.005444
 H   -1.176991   -2.746839   -0.007587
 H    3.192745   -1.715157   -0.003828
 H    3.313340    0.036029    0.000618
 H    0.033325    3.544954   -0.002424
 H   -3.172093   -0.164810    0.904702
 H   -3.177884   -0.126040   -0.868286
 H   -3.176447   -1.695089   -0.015172
