32 
4aji_ligand_dft.xyz
 C   -4.604758   -1.837767    0.924691
 O   -4.057451   -0.635048    0.431762
 C   -2.749255   -0.627859    0.097810
 C   -1.885743   -1.710397    0.206445
 C   -0.544665   -1.592556   -0.166226
 C   -0.045047   -0.392578   -0.655021
 C   -0.918388    0.704627   -0.763560
 C   -2.255154    0.602593   -0.396974
 O   -3.156346    1.604474   -0.466704
 C   -2.713007    2.861796   -0.928545
 C    1.410315   -0.265698   -1.050187
 C    2.410100   -0.348609    0.135076
 C    3.800084   -0.770582   -0.405949
 O    3.872034   -1.695945   -1.176313
 O    4.870137   -0.118636    0.018476
 C    2.380262    0.887399    1.032449
 O    3.368964    1.505958    1.374900
 O    1.190785    1.275699    1.479221
 H   -4.533017   -2.644932    0.184497
 H   -4.112733   -2.152139    1.854153
 H   -5.654903   -1.626317    1.126895
 H   -2.247180   -2.661559    0.579355
 H    0.106745   -2.458947   -0.084689
 H   -0.532160    1.643464   -1.146406
 H   -1.925903    3.271733   -0.282692
 H   -2.344214    2.803724   -1.960590
 H   -3.584590    3.515512   -0.894029
 H    1.576551    0.669389   -1.596813
 H    1.682221   -1.082301   -1.723213
 H    2.096189   -1.190059    0.768567
 H    4.585971    0.617354    0.611864
 H    0.473573    0.740855    1.092323
