32 
4aji_ligand_ani.xyz
 C   -4.534729   -1.979228    0.890589
 O   -4.072765   -0.732129    0.420745
 C   -2.762321   -0.639319    0.088609
 C   -1.846437   -1.679235    0.177468
 C   -0.513241   -1.492228   -0.184958
 C   -0.065912   -0.255438   -0.637547
 C   -0.996761    0.792217   -0.741439
 C   -2.326032    0.622048   -0.379576
 O   -3.270749    1.595768   -0.431389
 C   -2.840430    2.873023   -0.841733
 C    1.376153   -0.055227   -1.049167
 C    2.421049   -0.320667    0.057384
 C    3.780823   -0.666663   -0.593042
 O    3.817940   -1.309534   -1.613880
 O    4.890833   -0.293559    0.030714
 C    2.473925    0.741483    1.161984
 O    3.498658    1.160089    1.660385
 O    1.309004    1.181556    1.629354
 H   -4.408351   -2.764568    0.133232
 H   -4.014877   -2.278653    1.810614
 H   -5.596649   -1.846893    1.101523
 H   -2.156993   -2.654056    0.536106
 H    0.178718   -2.329964   -0.110335
 H   -0.646751    1.750285   -1.112773
 H   -2.048974    3.253422   -0.182448
 H   -2.471337    2.856025   -1.875636
 H   -3.713227    3.524573   -0.778737
 H    1.517424    0.956670   -1.445605
 H    1.624733   -0.742575   -1.861144
 H    2.130046   -1.247310    0.574985
 H    4.664613    0.289251    0.792872
 H    0.561729    0.771662    1.158479
