39 
4ajl_ligand_ani.xyz
 C    5.609228    2.479427    1.920971
 C   -3.528389   -1.537859    1.474925
 C   -2.207837   -1.906117    1.330451
 C    6.085019    1.929338    0.579319
 C   -1.821003   -0.152337   -0.310887
 C   -4.022030   -0.465928    0.722164
 C   -1.350763   -1.223091    0.441514
 C   -3.156554    0.204906   -0.154250
 C   -5.470876    1.003629   -0.046158
 C    1.004911   -1.211044   -0.402644
 C    4.782759    0.073286   -0.384177
 C   -6.759390    1.739222   -0.239530
 C    2.302228   -2.002296   -0.265501
 C    3.324150   -1.622787   -1.336740
 N   -5.323763    0.009937    0.759982
 N    4.996995    1.423399   -0.238051
 N   -0.024913   -1.687774    0.362915
 N    3.757951   -0.242418   -1.256493
 O    0.914421   -0.236195   -1.134640
 O    5.455564   -0.773006    0.190595
 S   -4.037063    1.478502   -0.946694
 H    4.934132    3.331284    1.783382
 H    5.073854    1.706190    2.481061
 H    6.461375    2.811967    2.523795
 H   -4.194144   -2.059295    2.155651
 H   -1.822804   -2.739969    1.914268
 H    6.771704    1.094318    0.736695
 H    6.617524    2.703916    0.015722
 H   -1.158896    0.369917   -0.987767
 H   -7.516209    1.285480    0.402625
 H   -6.649059    2.796638    0.022870
 H   -7.088686    1.683373   -1.282380
 H    2.082615   -3.076264   -0.319754
 H    2.727986   -1.815969    0.729238
 H    2.897149   -1.786270   -2.330543
 H    4.210181   -2.252602   -1.237009
 H    4.512257    2.058086   -0.853317
 H    0.174476   -2.494087    0.935781
 H    3.007073    0.428764   -1.366055
