56 
4akn_ligand_ani.xyz
 C   -5.363198    1.224257    1.636083
 C   -5.358956    0.051595    0.704008
 N   -6.447246   -0.651843    0.542841
 O   -6.127767   -1.648255   -0.357037
 C   -4.848421   -1.538282   -0.725099
 C   -4.352052   -2.542593   -1.711716
 C   -4.281754   -0.476289   -0.082097
 C   -2.885682   -0.014750   -0.154230
 C   -1.822742   -0.949375   -0.163851
 C   -0.515010   -0.539326   -0.210753
 C   -0.184710    0.849420   -0.283474
 C    1.153585    1.363132   -0.358299
 N    2.261024    0.459993   -0.390464
 C    2.512671   -0.441109    0.693928
 C    2.191019    0.006911    1.978282
 C    2.401463   -0.792955    3.094497
 C    2.943574   -2.056980    2.921946
 C    3.282230   -2.495040    1.645796
 C    3.102736   -1.710009    0.502291
 C    3.525942   -2.221837   -0.889471
 C    2.313728   -2.366236   -1.835044
 C    4.586334   -1.297673   -1.517986
 C    4.166954   -3.618397   -0.811251
 C    1.330668    2.742508   -0.410959
 C    0.174917    3.562544   -0.399953
 N   -1.057282    3.138461   -0.337714
 C   -1.248090    1.784923   -0.280099
 C   -2.582429    1.324655   -0.209952
 C    2.653325    3.475329   -0.443559
 O    3.753314    2.732219   -0.300901
 O    2.715739    4.673155   -0.576539
 H   -5.463111    2.167045    1.084459
 H   -6.204617    1.151359    2.328915
 H   -4.428389    1.270453    2.202552
 H   -4.099085   -3.487868   -1.216367
 H   -5.117452   -2.755830   -2.462075
 H   -3.453357   -2.173688   -2.212957
 H   -2.047056   -2.010839   -0.104000
 H    0.275757   -1.282430   -0.171347
 H    2.357275    0.019531   -1.291723
 H    1.753041    0.996012    2.078785
 H    2.136853   -0.432169    4.085412
 H    3.112183   -2.709793    3.774339
 H    3.705695   -3.488260    1.549357
 H    1.528245   -2.968297   -1.362945
 H    1.857857   -1.420876   -2.147911
 H    2.625059   -2.877651   -2.752454
 H    4.249625   -0.265782   -1.641922
 H    5.484566   -1.273724   -0.890062
 H    4.866467   -1.676620   -2.507334
 H    5.054997   -3.623603   -0.167992
 H    3.460915   -4.370330   -0.438533
 H    4.485741   -3.931854   -1.810937
 H    0.337993    4.638479   -0.444715
 H   -3.353761    2.085208   -0.213940
 H    3.472182    1.791758   -0.227647
