56 
4akn_ligand_dft.xyz
 C   -5.411476    1.147936    1.689526
 C   -5.430538   -0.010309    0.744969
 N   -6.525466   -0.707501    0.585244
 O   -6.217512   -1.694648   -0.333781
 C   -4.936552   -1.584314   -0.703913
 C   -4.445190   -2.565902   -1.708696
 C   -4.360658   -0.529388   -0.056109
 C   -2.972384   -0.055489   -0.141715
 C   -1.899649   -0.989922   -0.145029
 C   -0.596308   -0.579472   -0.231048
 C   -0.281651    0.800878   -0.307212
 C    1.047290    1.303301   -0.406935
 N    2.160751    0.398192   -0.498137
 C    2.529917   -0.366145    0.654849
 C    2.204424    0.153633    1.908502
 C    2.562846   -0.510057    3.072287
 C    3.254400   -1.708134    2.985027
 C    3.587877   -2.214365    1.733791
 C    3.254648   -1.574516    0.534559
 C    3.683617   -2.185002   -0.819058
 C    2.455268   -2.640886   -1.638951
 C    4.552501   -1.193411   -1.623980
 C    4.547617   -3.444915   -0.624012
 C    1.251240    2.664625   -0.448590
 C    0.105652    3.510825   -0.395971
 N   -1.129732    3.093025   -0.320571
 C   -1.340558    1.744852   -0.275595
 C   -2.676942    1.289102   -0.202048
 C    2.589265    3.364260   -0.554366
 O    3.671017    2.600231   -0.679687
 O    2.660236    4.569073   -0.530274
 H   -5.449521    2.099007    1.148406
 H   -6.277270    1.098398    2.353092
 H   -4.496366    1.143570    2.289038
 H   -4.263146   -3.543649   -1.249398
 H   -5.189118   -2.700194   -2.498808
 H   -3.513411   -2.213575   -2.156885
 H   -2.123560   -2.048003   -0.048640
 H    0.200723   -1.315034   -0.202849
 H    2.066890   -0.180608   -1.321861
 H    1.661887    1.090991    1.971179
 H    2.298008   -0.086881    4.035987
 H    3.542799   -2.249425    3.880282
 H    4.136788   -3.146727    1.701406
 H    1.859768   -3.357703   -1.063518
 H    1.780500   -1.833949   -1.945336
 H    2.783848   -3.133691   -2.560460
 H    4.034953   -0.274551   -1.907095
 H    5.433234   -0.904821   -1.041323
 H    4.898337   -1.668823   -2.548471
 H    5.458464   -3.229428   -0.056366
 H    4.000933   -4.247820   -0.118654
 H    4.852590   -3.824755   -1.604454
 H    0.272780    4.583870   -0.427612
 H   -3.456531    2.042929   -0.211622
 H    3.389690    1.654500   -0.673557
