21 
4amw_ligand_dft.xyz
 C    1.052859   -1.679139   -0.188391
 C    1.702003   -0.576918    0.188490
 O    2.999006   -0.614166    0.602673
 C    1.023507    0.761109    0.203360
 O    1.953697    1.713999   -0.272842
 C   -0.211786    0.702190   -0.687879
 O   -0.928398    1.908707   -0.645625
 C   -1.031175   -0.549623   -0.337166
 O   -0.276514   -1.714475   -0.556336
 C   -1.566470   -0.612761    1.094482
 O   -2.149373    0.635938    1.428624
 F   -2.087297   -0.627787   -1.196294
 H    1.509687   -2.658914   -0.225128
 H    3.367149    0.262086    0.412291
 H    0.718929    1.029480    1.230331
 H    1.461956    2.537622   -0.398082
 H    0.126822    0.570787   -1.721067
 H   -1.477117    1.885902    0.154960
 H   -2.299431   -1.427102    1.129300
 H   -0.733157   -0.855302    1.766478
 H   -2.490143    0.596350    2.328236
