21 
4amw_ligand_ani.xyz
 C    1.046844   -1.696562   -0.104031
 C    1.713837   -0.575479    0.180996
 O    3.028189   -0.601658    0.500809
 C    1.009596    0.743176    0.201063
 O    1.900975    1.757824   -0.205522
 C   -0.205980    0.664000   -0.714821
 O   -0.884609    1.893116   -0.695986
 C   -1.031227   -0.566669   -0.319139
 O   -0.274140   -1.737377   -0.498707
 C   -1.594515   -0.588771    1.099477
 O   -2.085944    0.701360    1.418375
 F   -2.088299   -0.656225   -1.201335
 H    1.501368   -2.678301   -0.094034
 H    3.359393    0.305910    0.415791
 H    0.655078    0.968042    1.227386
 H    1.350531    2.533022   -0.396774
 H    0.114427    0.502448   -1.752648
 H   -1.476490    1.877876    0.074537
 H   -2.388621   -1.344016    1.108576
 H   -0.807090   -0.904307    1.797604
 H   -2.621004    0.661067    2.218555
