23 
4amx_ligand_ani.xyz
 O   -0.231129   -1.601624   -0.538919
 C    1.091317   -1.697954   -0.008616
 F   -1.069056   -0.607408    1.345338
 C    1.902428   -0.450169   -0.333531
 O    3.157692   -0.578008    0.293752
 C    1.159456    0.773222    0.171964
 O    1.882676    1.917786   -0.223544
 C   -0.247957    0.793416   -0.399773
 O   -0.895760    1.926913    0.122799
 C   -2.368405   -0.631486   -0.589226
 O   -3.200973    0.359096   -0.006569
 C   -0.953250   -0.524918   -0.054874
 H    1.066122   -1.829867    1.079394
 H    1.540166   -2.582654   -0.461030
 H    2.010768   -0.359351   -1.427496
 H    3.617666    0.262333    0.157166
 H    1.088192    0.715469    1.269587
 H    1.344817    2.679351    0.035939
 H   -0.176352    0.853392   -1.501173
 H   -1.848314    1.813748   -0.038068
 H   -2.365941   -0.454010   -1.668344
 H   -2.744749   -1.643071   -0.401337
 H   -3.112442    0.245357    0.951496
