53 
4an1_ligand_ani.xyz
 C    1.439630   -0.822289   -0.324364
 O    1.070210   -0.985726   -1.482338
 N    2.682543   -0.316695   -0.018065
 C    3.469005    0.253250   -1.102615
 C    4.896477    0.498047   -0.678269
 C    5.457985    1.771775   -0.756159
 C    6.776708    1.993064   -0.367776
 C    7.550543    0.935685    0.099287
 C    6.998744   -0.340699    0.177457
 C    5.679366   -0.556308   -0.206020
 N    0.651007   -1.178458    0.737357
 C   -0.710241   -1.598448    0.473312
 C   -1.594331   -0.401214    0.055169
 O   -1.250429    0.741979    0.364449
 C   -1.149006   -2.142570    1.840616
 C   -0.443744   -1.201559    2.825622
 C    0.890062   -0.856509    2.139009
 C   -4.123583    1.299048    0.219333
 O   -3.278677    2.430296    0.188201
 C   -5.532519    1.891471    0.150738
 O   -5.672529    2.876786    1.140436
 C   -3.782305    0.331548   -0.927210
 C   -4.955525   -0.536904   -1.388934
 C   -4.296024   -1.759322   -2.014977
 C   -3.102881   -2.018318   -1.095717
 N   -2.757276   -0.685628   -0.580747
 H    2.843326    0.043526    0.910488
 H    3.423680   -0.459464   -1.932533
 H    3.014237    1.183620   -1.471298
 H    4.852703    2.599460   -1.122390
 H    7.198787    2.993297   -0.432169
 H    8.581116    1.104269    0.402329
 H    7.597607   -1.171450    0.543002
 H    5.243629   -1.551744   -0.135317
 H   -0.714332   -2.365478   -0.301977
 H   -0.781279   -3.168278    1.949239
 H   -2.237389   -2.160374    1.966573
 H   -0.297932   -1.652755    3.810354
 H   -1.028800   -0.286748    2.950499
 H    1.722124   -1.454029    2.534794
 H    1.132761    0.206084    2.274440
 H   -4.017983    0.768501    1.178722
 H   -2.373206    2.087161    0.312720
 H   -6.297482    1.129905    0.327220
 H   -5.693511    2.311404   -0.857607
 H   -4.842183    3.378310    1.106478
 H   -3.409353    0.946940   -1.760204
 H   -5.620236   -0.003222   -2.074595
 H   -5.546303   -0.848836   -0.517539
 H   -4.962907   -2.623937   -2.079192
 H   -3.945523   -1.529424   -3.027718
 H   -2.266407   -2.459214   -1.647435
 H   -3.367816   -2.697221   -0.273695
