34 
4anu_ligand_ani.xyz
 C   47.881918   16.205036   31.529093
 N   47.370675   14.894774   31.193780
 C   48.179997   13.948305   30.684973
 O   49.381602   14.144148   30.489554
 C   47.495583   12.641402   30.372206
 N   46.220371   12.528177   30.714234
 C   48.189110   11.576653   29.734813
 N   49.488871   11.662140   29.394245
 N   47.544983   10.432617   29.448715
 C   46.262200   10.361705   29.772269
 C   45.572880   11.403974   30.399022
 C   44.143459   11.312492   30.772233
 C   43.691240   12.054156   31.858718
 C   43.245261   10.509158   30.066063
 C   41.910145   10.453122   30.452499
 C   41.462631   11.185743   31.544939
 C   42.358510   11.987247   32.255801
 C   41.857340   12.746168   33.407646
 N   40.601901   12.828111   33.797317
 N   40.592301   13.620741   34.889011
 N   41.774789   14.021760   35.184619
 N   42.588945   13.484652   34.265130
 H   47.068396   16.802953   31.944563
 H   48.687886   16.126287   32.265399
 H   48.284775   16.705346   30.642465
 H   46.394901   14.667111   31.310513
 H   49.926478   10.854431   28.986318
 H   50.001629   12.499519   29.640064
 H   45.758106    9.423307   29.549810
 H   44.412646   12.680345   32.374690
 H   43.574297    9.940740   29.200077
 H   41.215606    9.828773   29.897832
 H   40.423675   11.151672   31.860555
 H   43.581893   13.654233   34.312832
