65 
4anv_ligand_dft.xyz
 C    6.260950   -0.514255    0.391130
 O    5.850827   -1.764186   -0.122368
 C    4.520843   -2.013369   -0.185077
 C    4.152104   -3.243455   -0.742190
 C    2.815123   -3.575619   -0.872199
 C    3.531815   -1.133995    0.256154
 C    2.192003   -1.487210    0.121648
 C    1.805331   -2.701001   -0.445947
 C    0.370684   -3.024340   -0.636786
 C   -0.568613   -2.739148    0.357179
 C   -0.084817   -3.584602   -1.837988
 C   -1.433845   -3.848734   -2.043633
 C   -2.370241   -3.529409   -1.064402
 C   -1.921631   -2.966816    0.125239
 S   -3.117897   -2.416314    1.336126
 O   -2.511380   -2.560480    2.649330
 O   -4.380587   -3.047292    0.991821
 N   -3.324939   -0.784623    1.099079
 C   -2.374628    0.162194    1.678440
 C   -1.337195    0.644941    0.661979
 C   -3.946338   -0.309855   -0.140805
 C   -2.895468    0.180939   -1.140774
 N   -1.975205    1.149117   -0.551956
 C   -2.260421    2.504418   -0.662886
 N   -3.492585    2.852525   -1.032097
 C   -3.780417    4.154219   -1.089892
 C   -2.855385    5.118872   -0.732770
 N   -1.596131    4.786543   -0.433721
 C   -1.260177    3.500312   -0.442378
 C    0.181816    3.196286   -0.240949
 C    0.922446    3.939187    0.676109
 C    2.275055    3.686161    0.893944
 C    2.910885    2.681088    0.166221
 O    4.218172    2.331131    0.313461
 C    4.992803    3.037659    1.257964
 C    2.189884    1.951260   -0.784794
 C    0.843412    2.202509   -0.977717
 H    5.838185    0.316829   -0.186561
 H    5.970980   -0.400497    1.444129
 H    7.348838   -0.502271    0.313863
 H    4.933993   -3.921320   -1.068065
 H    2.546569   -4.538449   -1.298468
 H    3.783601   -0.164573    0.670375
 H    1.438840   -0.770137    0.435722
 H   -0.245712   -2.351616    1.318934
 H    0.630617   -3.795904   -2.627560
 H   -1.761589   -4.290163   -2.979661
 H   -3.428554   -3.717795   -1.207409
 H   -1.896677   -0.301856    2.542766
 H   -2.957058    1.021017    2.036944
 H   -0.672480   -0.176698    0.377484
 H   -0.722304    1.420929    1.117333
 H   -4.613789    0.518688    0.120452
 H   -4.555827   -1.111630   -0.562484
 H   -3.387347    0.639131   -1.999286
 H   -2.294119   -0.666833   -1.492421
 H   -4.784064    4.420174   -1.411844
 H   -3.106510    6.175392   -0.719837
 H    0.428771    4.730126    1.231580
 H    2.810857    4.275729    1.628831
 H    5.051893    4.104518    1.010246
 H    4.593178    2.921730    2.273249
 H    5.992556    2.603307    1.212761
 H    2.702370    1.182434   -1.353044
 H    0.291031    1.613028   -1.702046
