39 
4aoi_ligand_xtb.xyz
 N   21.169085   80.486000   -0.838805
 C   20.738735   80.769208    0.184820
 C   20.205302   81.117308    1.447966
 C   20.959457   81.885752    2.336618
 C   18.923760   80.692032    1.802329
 C   18.404170   81.026422    3.035967
 C   19.154213   81.791261    3.929588
 C   20.432787   82.217336    3.565777
 C   18.632459   82.162345    5.245654
 N   19.063811   83.289687    5.753003
 N   18.605007   83.590315    6.954004
 C   17.703588   82.779476    7.680276
 N   17.270900   81.635164    7.155537
 C   17.718812   81.331388    5.975451
 C   18.845470   84.641761    7.775176
 N   18.161200   84.476043    8.883580
 N   17.460133   83.349392    8.832095
 C   19.764857   85.763073    7.452158
 C   21.038031   85.235904    6.865110
 C   22.021690   84.554002    7.522900
 C   21.428479   85.288283    5.494284
 C   20.898075   85.805119    4.315283
 C   21.630959   85.621858    3.158958
 C   22.677939   84.614068    5.404948
 N   23.008137   84.179719    6.649257
 N   23.382794   84.432506    4.297870
 C   22.850071   84.940644    3.201607
 H   21.949660   82.215575    2.061120
 H   18.344933   80.103715    1.105949
 H   21.005665   82.804879    4.264401
 H   17.403997   80.712435    3.293621
 H   17.385728   80.388319    5.566934
 H   19.283454   86.430485    6.732853
 H   19.946455   86.316931    8.374216
 H   22.087508   84.308466    8.565708
 H   23.852417   83.685987    6.883584
 H   19.951584   86.325728    4.301178
 H   21.271054   86.001051    2.215243
 H   23.429622   84.796363    2.299784
