62 
4ap0_ligand_ani.xyz
 C    3.708624   -1.820914   -0.906045
 C    4.809024   -2.575429   -1.300975
 C    6.103527   -2.211283   -0.930054
 C    7.293383   -3.040744   -1.340692
 C    6.270135   -1.046252   -0.173233
 C    5.177531   -0.283585    0.210265
 C    3.881534   -0.679895   -0.123062
 C    2.742548    0.197357    0.319788
 O    2.862055    1.418756    0.266991
 N    1.599934   -0.398791    0.792474
 C    1.541619   -1.762316    1.299725
 C    0.450996    0.479779    1.069933
 C    0.151535    0.687829    2.576490
 C    1.422156    1.034984    3.358967
 C   -0.894824    1.800271    2.733797
 C   -0.784244   -0.014041    0.319461
 N   -1.477320   -0.987214    0.826727
 C   -2.616188   -1.408926    0.170889
 C   -3.385695   -2.447705    0.738659
 C   -4.530103   -2.863413    0.098854
Cl   -5.482753   -4.138902    0.802877
 C   -4.959050   -2.287718   -1.109675
 C   -4.205636   -1.275718   -1.662925
 C   -3.038065   -0.830438   -1.030505
 C   -2.251329    0.251357   -1.620670
 O   -2.544712    0.820967   -2.660545
 N   -1.101174    0.609978   -0.899632
 C   -0.285156    1.698685   -1.486967
 C   -0.612172    3.096711   -0.977875
 C   -1.846809    3.676091   -1.279847
 C   -2.162812    4.951859   -0.822664
 C   -1.244101    5.677275   -0.071570
 C   -0.001414    5.120697    0.216657
 C    0.310198    3.838994   -0.230688
 H    2.709809   -2.122428   -1.212841
 H    4.655710   -3.470288   -1.898163
 H    6.990505   -3.903659   -1.940704
 H    7.836859   -3.416408   -0.465928
 H    8.001567   -2.452150   -1.935345
 H    7.273479   -0.732075    0.109694
 H    5.308305    0.634913    0.775078
 H    0.891586   -2.379451    0.668837
 H    2.541286   -2.198498    1.342396
 H    1.117840   -1.775471    2.311022
 H    0.752445    1.453127    0.692982
 H   -0.276834   -0.242037    2.975360
 H    1.909710    1.925084    2.940870
 H    1.173521    1.248399    4.404262
 H    2.150942    0.218046    3.353182
 H   -1.048463    2.038911    3.791423
 H   -1.864329    1.513411    2.311007
 H   -0.560518    2.715015    2.226635
 H   -3.067089   -2.897878    1.673612
 H   -5.867892   -2.642313   -1.584492
 H   -4.494932   -0.800204   -2.595719
 H   -0.486048    1.644181   -2.557048
 H    0.772779    1.467535   -1.343855
 H   -2.557890    3.121700   -1.885422
 H   -3.131519    5.382499   -1.062879
 H   -1.491400    6.674516    0.282962
 H    0.724807    5.681003    0.800383
 H    1.282459    3.409195    0.008996
