36 
4ap7_ligand_ani.xyz
 F   -5.551268    2.424383    0.304232
 N    0.681875   -1.843877    0.271529
 N    1.765436   -3.646735   -0.376550
 C   -2.526434   -0.328030   -0.096062
 C   -3.842697   -0.672007   -0.416204
 C   -4.869681    0.251787   -0.281934
 C   -1.396422   -1.267868   -0.229412
 C   -1.468326   -2.464642   -1.054311
 C    0.627763   -2.999475   -0.482975
 C    2.672049    0.526233    0.863099
 C    4.046331    1.723484   -0.731210
 N   -0.499921   -3.316593   -1.193927
 C    2.055834    2.764353    0.156256
 C    3.786054    0.590679    0.024774
 C    3.180912    2.816610   -0.665024
 O    3.485817    3.902801   -1.427907
 C    1.812634    1.618144    0.906541
 C    2.391348   -0.721458    1.677493
 C    1.927242   -1.849651    0.829391
 N   -0.300767   -0.952879    0.422684
 N    2.570577   -2.914007    0.449983
 C   -2.257232    0.957031    0.378325
 C   -3.270991    1.896935    0.511191
 C   -4.562409    1.524094    0.176365
 H   -4.084910   -1.673908   -0.759755
 H   -5.896158    0.000958   -0.528649
 H   -2.380170   -2.671390   -1.614635
 H    4.914560    1.782205   -1.380980
 H    1.373416    3.611095    0.209095
 H    4.462675   -0.259930   -0.033682
 H    2.812377    4.581326   -1.292485
 H    0.924242    1.560699    1.532262
 H    1.619180   -0.500492    2.423591
 H    3.288496   -1.063643    2.203879
 H   -1.235557    1.209262    0.642361
 H   -3.079524    2.903265    0.870308
