55 
4aqc_ligand_xtb.xyz
 O   -2.549609   -4.640214   -1.117244
 S   -3.354598   -4.141512   -0.035065
 O   -4.696364   -4.640954    0.100448
 C   -2.470071   -4.463088    1.522646
 C   -3.395336   -2.352401   -0.104764
 C   -2.346336   -1.672121   -0.692142
 C   -2.352081   -0.290368   -0.700232
 C   -4.452470   -1.677424    0.473388
 C   -4.460338   -0.295426    0.464435
 C   -3.408975    0.414449   -0.120367
 C   -3.411651    1.879896   -0.123187
 C   -2.199557    2.593033   -0.059747
 N   -0.937251    2.191450    0.006506
 C   -0.231224    3.336296    0.067391
 N   -0.982206    4.447022    0.045679
 N   -2.224972    3.980915   -0.033598
 C   -3.357454    4.695938   -0.088444
 C   -4.547983    4.025275   -0.170487
 C   -4.574320    2.626328   -0.183545
 N    1.110394    3.437828    0.138785
 C    2.071145    2.431880    0.120914
 C    1.752395    1.078775    0.122735
 C    2.751428    0.125010    0.098673
 C    4.100638    0.482462    0.065448
 C    4.408078    1.846933    0.067672
 C    3.415491    2.800955    0.100267
 N    5.128548   -0.452841   -0.042219
 C    4.815425   -1.834922   -0.337256
 C    6.062358   -2.494871   -0.937040
 O    7.171334   -2.406561   -0.074381
 C    7.462647   -1.059656    0.215906
 C    6.261104   -0.366133    0.859976
 H   -2.381396   -5.535993    1.638746
 H   -1.492613   -4.004257    1.453081
 H   -3.050031   -4.038280    2.331316
 H   -1.549237   -2.237365   -1.149041
 H   -1.540598    0.255986   -1.152128
 H   -5.257850   -2.246189    0.911328
 H   -5.274128    0.236028    0.933897
 H   -3.257775    5.768701   -0.068443
 H   -5.468099    4.582863   -0.226041
 H   -5.524770    2.123551   -0.266485
 H    1.448914    4.389238    0.151029
 H    0.717467    0.782377    0.153318
 H    2.463589   -0.914254    0.118294
 H    5.437796    2.166853    0.022223
 H    3.681968    3.848838    0.096811
 H    4.012005   -1.877511   -1.072981
 H    4.514172   -2.388370    0.567407
 H    6.297493   -2.006418   -1.895272
 H    5.889332   -3.558979   -1.105706
 H    7.735938   -0.528631   -0.708948
 H    8.315865   -1.069484    0.896166
 H    6.031549   -0.872419    1.812999
 H    6.502023    0.674214    1.069386
