52 
4ara_ligand_xtb.xyz
 O    1.557476   -0.811071   -0.634302
 C    0.979526    0.286794   -0.505743
 C   -0.461794    0.335468   -0.292811
 C   -1.270530    1.501595   -0.174444
 O   -0.643146    2.706717   -0.212727
 C   -1.395779    3.899974   -0.086430
 C   -2.636441    1.378945   -0.051582
 C   -3.305629    0.133064   -0.025795
 N   -4.644153    0.071454   -0.091452
 C   -5.355264   -1.083548   -0.583400
 C   -5.470431    1.220822    0.198314
 C   -2.467389   -1.016443    0.001219
 N   -2.925628   -2.317815    0.392946
 O   -2.327604   -3.281065   -0.037294
 O   -3.840448   -2.366945    1.192432
 C   -1.105223   -0.892682   -0.177089
 N    1.685319    1.435308   -0.535370
 C    3.047644    1.515614   -1.028721
 C    4.104554    0.951307   -0.065650
 C    3.919034    1.405447    1.392171
 C    3.473488    0.146659    2.138354
 C    4.173039   -0.961037    1.366574
 N    4.022686   -0.539387   -0.039468
 C    4.920433   -1.222519   -0.985338
 C    4.560322   -2.693388   -1.119360
 H   -1.931266    3.932439    0.865022
 H   -0.666580    4.707693   -0.116414
 H   -2.096520    4.017508   -0.916164
 H   -3.234162    2.271859   -0.026084
 H   -6.226665   -0.742804   -1.141491
 H   -5.684684   -1.734931    0.231894
 H   -4.725128   -1.663505   -1.258257
 H   -6.456237    0.869647    0.496239
 H   -5.582561    1.871782   -0.673940
 H   -5.056738    1.792690    1.027426
 H   -0.507028   -1.792759   -0.194773
 H    1.159810    2.292833   -0.446983
 H    3.270943    2.566696   -1.211560
 H    3.120552    0.981312   -1.984779
 H    5.090756    1.240182   -0.440551
 H    3.186824    2.205153    1.472916
 H    4.863217    1.768080    1.795680
 H    2.392285    0.021275    2.077508
 H    3.759142    0.162522    3.186459
 H    3.721869   -1.938880    1.522191
 H    5.235449   -1.003318    1.620773
 H    2.974241   -0.763204   -0.344385
 H    5.954326   -1.105624   -0.646248
 H    4.818790   -0.735639   -1.957662
 H    3.506824   -2.805782   -1.363844
 H    5.145294   -3.137255   -1.919376
 H    4.772098   -3.242400   -0.206663
