52 
4ara_ligand_dft.xyz
 O    1.550281   -0.790941   -0.745383
 C    0.966807    0.298810   -0.577877
 C   -0.491859    0.335151   -0.370309
 C   -1.308231    1.487680   -0.227950
 O   -0.692129    2.692306   -0.300626
 C   -1.454614    3.884979   -0.164794
 C   -2.676505    1.371770   -0.057481
 C   -3.330918    0.116149   -0.003629
 N   -4.682950    0.054243    0.040124
 C   -5.446625   -1.063344   -0.500928
 C   -5.465589    1.227401    0.391171
 C   -2.481293   -1.024408   -0.050387
 N   -2.934199   -2.365028    0.310689
 O   -2.403266   -3.313838   -0.247409
 O   -3.771979   -2.455545    1.196604
 C   -1.125505   -0.900442   -0.268495
 N    1.676647    1.455656   -0.558859
 C    3.053904    1.522809   -1.011789
 C    4.098597    0.992517   -0.018612
 C    3.888963    1.421671    1.445270
 C    3.426290    0.151895    2.171377
 C    4.166319   -0.955265    1.436086
 N    4.074231   -0.527959    0.004682
 C    5.050350   -1.168974   -0.922842
 C    4.835678   -2.670310   -1.018578
 H   -1.957968    3.917418    0.806542
 H   -0.737055    4.701793   -0.232221
 H   -2.186232    3.974078   -0.973989
 H   -3.281621    2.265735   -0.036388
 H   -6.276243   -0.656997   -1.087002
 H   -5.837091   -1.712013    0.287375
 H   -4.830130   -1.658941   -1.177121
 H   -6.455796    0.896927    0.710112
 H   -5.586343    1.918208   -0.454959
 H   -5.009089    1.756782    1.231136
 H   -0.524474   -1.800094   -0.324545
 H    1.143357    2.312221   -0.483824
 H    3.283269    2.575129   -1.193550
 H    3.157465    1.000173   -1.971463
 H    5.088040    1.281337   -0.384251
 H    3.156025    2.227227    1.522081
 H    4.830765    1.782249    1.867452
 H    2.346292    0.012611    2.061756
 H    3.661010    0.160573    3.237100
 H    3.722842   -1.945396    1.545315
 H    5.225291   -0.996592    1.709942
 H    3.101549   -0.780345   -0.330713
 H    6.054368   -0.919391   -0.565282
 H    4.907147   -0.697497   -1.899052
 H    3.808028   -2.902219   -1.315095
 H    5.507038   -3.078915   -1.777665
 H    5.055595   -3.176836   -0.075036
