52 
4ara_ligand_ani.xyz
 O    1.543166   -0.885702   -0.852076
 C    0.995557    0.209547   -0.636298
 C   -0.477300    0.267111   -0.376574
 C   -1.289739    1.420485   -0.297486
 O   -0.703697    2.646182   -0.471253
 C   -1.531945    3.791921   -0.521851
 C   -2.654642    1.301969   -0.037040
 C   -3.268395    0.053951    0.132414
 N   -4.649443   -0.019954    0.431034
 C   -5.499453   -0.067027   -0.748161
 C   -5.135083    0.903982    1.435529
 C   -2.458824   -1.084077    0.002589
 N   -2.982401   -2.448023    0.122932
 O   -2.226386   -3.295624    0.567139
 O   -4.121839   -2.680002   -0.245927
 C   -1.096605   -0.969530   -0.218509
 N    1.703254    1.351961   -0.591930
 C    3.068243    1.464152   -1.088351
 C    4.142612    0.967390   -0.114391
 C    4.062386    1.571168    1.299632
 C    3.541090    0.434199    2.184346
 C    4.120030   -0.809932    1.521085
 N    4.030215   -0.522233    0.060044
 C    4.971426   -1.314012   -0.764871
 C    4.491179   -2.754301   -0.889466
 H   -2.035112    3.963844    0.437517
 H   -0.868924    4.632545   -0.732888
 H   -2.277129    3.712581   -1.322793
 H   -3.273927    2.187454    0.041930
 H   -5.439923    0.853442   -1.355075
 H   -6.537619   -0.204247   -0.425294
 H   -5.212768   -0.921802   -1.362476
 H   -6.121614    0.564468    1.768671
 H   -5.237284    1.946826    1.084745
 H   -4.461475    0.886737    2.296135
 H   -0.492139   -1.864222   -0.278548
 H    1.165351    2.197372   -0.478463
 H    3.249033    2.516456   -1.324648
 H    3.166013    0.891338   -2.020017
 H    5.118883    1.182324   -0.563476
 H    3.428870    2.462893    1.329054
 H    5.063764    1.876760    1.623608
 H    2.446576    0.396748    2.168072
 H    3.855258    0.529401    3.227711
 H    3.578264   -1.728167    1.767626
 H    5.174268   -0.942147    1.796612
 H    3.074050   -0.798235   -0.269644
 H    5.975019   -1.266487   -0.318592
 H    5.039613   -0.847980   -1.754286
 H    3.450392   -2.770664   -1.235336
 H    5.104512   -3.310204   -1.605369
 H    4.543500   -3.280106    0.072025
