83 
4as9_ligand_xtb.xyz
 C   -3.956401    0.255309    3.558547
 O   -4.315217    0.429367    2.212073
 C   -3.333835   -0.044386    1.312929
 C   -3.256727   -1.542153    1.263420
 C   -2.117287   -2.198892    1.129562
 C   -2.019592   -3.684884    0.931583
 C   -1.469235   -3.979530   -0.440454
 C   -2.191327   -4.586061   -1.379055
 C   -0.110559   -3.495834   -0.812893
 O    0.295326   -3.456688   -1.951048
 N    0.679168   -3.124640    0.265992
 C    1.821224   -2.355086    0.215598
 C    1.803828   -1.186633   -0.712167
 O    0.773526   -0.853970   -1.274186
 C    2.834976   -2.544327    1.093157
 C    2.803484   -3.640935    2.116396
 C    4.038257   -1.709875    1.061407
 O    4.964066   -1.910636    1.833131
 C    4.085180   -0.641074    0.022927
 O    5.153408    0.159977   -0.135282
 C    6.320070    0.050818    0.654678
 C    3.033187   -0.419161   -0.813347
 C    3.079338    0.682930   -1.830897
 C    2.798286    2.075872   -1.232517
 C    2.959223    3.122577   -2.332038
 C    1.392180    2.090465   -0.625330
 C    0.958429    3.435362   -0.041361
 O    1.918879    3.803020    0.947380
 C    2.020822    5.180935    1.196819
 C   -0.432131    3.334912    0.634767
 O   -0.321612    2.508180    1.776088
 C   -1.543283    2.783765   -0.268353
 C   -5.012893    2.456926   -0.714815
 C   -2.883999    2.839945    0.485944
 C   -3.930228    1.961457   -0.135144
 C   -1.664002    3.550456   -1.581009
 C   -3.726181    0.463978   -0.096513
 O   -2.699453    0.082570   -1.010956
 C   -2.914450   -1.022990   -1.766230
 O   -3.937551   -1.662182   -1.767744
 N   -1.842956   -1.259585   -2.551689
 H   -3.835838   -0.805258    3.810931
 H   -4.765531    0.679640    4.149522
 H   -3.019633    0.778752    3.788886
 H   -2.344960    0.367345    1.570160
 H   -4.208989   -2.053384    1.273660
 H   -1.187617   -1.645095    1.099396
 H   -1.392484   -4.134025    1.711133
 H   -3.013520   -4.126057    1.010529
 H   -1.777702   -4.755004   -2.359509
 H   -3.197191   -4.923143   -1.203757
 H    0.462659   -3.541295    1.161175
 H    3.760480   -3.671595    2.631195
 H    2.023616   -3.460688    2.858128
 H    2.621913   -4.607012    1.646943
 H    6.111597    0.228348    1.711416
 H    6.984588    0.826877    0.274663
 H    6.794171   -0.926712    0.547220
 H    2.334476    0.476289   -2.600770
 H    4.071493    0.694585   -2.285162
 H    3.528269    2.275205   -0.443628
 H    3.925763    3.012049   -2.818411
 H    2.181130    3.009124   -3.084331
 H    2.906041    4.127825   -1.923605
 H    1.345600    1.355581    0.179830
 H    0.676480    1.794998   -1.390838
 H    0.923878    4.206036   -0.820376
 H    1.104927    5.592807    1.635055
 H    2.248982    5.734325    0.278056
 H    2.840304    5.303962    1.903250
 H   -0.721508    4.352024    0.959929
 H    0.564861    2.663571    2.133703
 H   -1.318265    1.737108   -0.474324
 H   -5.765177    1.825714   -1.155985
 H   -5.192013    3.517972   -0.764117
 H   -3.244363    3.870569    0.501927
 H   -2.715479    2.528019    1.516205
 H   -0.794260    3.405586   -2.215562
 H   -1.783435    4.616343   -1.392631
 H   -2.539147    3.195028   -2.118739
 H   -4.654995   -0.037786   -0.395544
 H   -0.956846   -0.853171   -2.289507
 H   -1.804880   -2.146312   -3.025531
