48 
4asd_ligand_ani.xyz
 C    4.651626    0.132215    0.219377
 C    4.533390   -1.251078    0.142138
 C    5.665736   -2.023230   -0.119425
 C    6.894950   -1.415095   -0.321682
 C    2.054816   -1.368608    0.105149
 C   -0.343835   -2.058089    0.140248
 C   -1.238709   -2.888892    0.821747
 C   -2.607522   -2.756533    0.633416
 C   -3.086870   -1.791140   -0.241459
 C   -2.206029   -0.966191   -0.932024
 C   -0.836109   -1.090686   -0.740677
 O   -4.451800   -1.710628   -0.452222
 C   -4.632904    0.201431    1.045729
 C   -5.444299    1.245188    1.481424
 C   -7.124572    0.666358    0.059326
 C   -6.410245   -0.407884   -0.449791
 N   -9.123684    2.015091    0.058704
 C  -10.432968    2.428149   -0.392044
 C    7.009729   -0.030651   -0.246737
 C    5.885068    0.749109    0.032546
 C    5.948767    2.255701    0.135792
 F    6.364815    2.823521   -1.007739
 F    6.779715    2.660708    1.109844
 F    4.737216    2.776849    0.412828
Cl    8.574533    0.675977   -0.506996
 N    3.305716   -1.908102    0.356002
 N    1.035040   -2.272300    0.346025
 O    1.876332   -0.228796   -0.283091
 C   -5.132216   -0.633961    0.048133
 N   -6.663994    1.489296    1.006651
 C   -8.512814    0.940303   -0.481273
 O   -9.014192    0.227137   -1.338093
 H    3.771175    0.726809    0.420574
 H    5.588051   -3.105658   -0.177029
 H    7.775417   -2.010479   -0.536119
 H   -0.863893   -3.643694    1.509326
 H   -3.313962   -3.394219    1.156244
 H   -2.595618   -0.216509   -1.615830
 H   -0.148027   -0.439073   -1.262639
 H   -3.644749    0.051107    1.467431
 H   -5.088838    1.922511    2.255467
 H   -6.839695   -1.050033   -1.211901
 H   -8.614477    2.545792    0.749376
 H  -10.400862    2.804689   -1.420490
 H  -11.126017    1.582370   -0.363369
 H  -10.797966    3.216711    0.268781
 H    3.375087   -2.910151    0.456311
 H    1.257389   -3.109583    0.864494
