45 
4asj_ligand_xtb.xyz
 C   -4.183749   -1.906962   -0.414462
 C   -5.461297   -2.099379    0.082287
 C   -6.243057   -1.010493    0.427452
 C   -5.746110    0.272210    0.266487
 C   -4.472282    0.466044   -0.235935
 C   -3.678391   -0.622819   -0.576417
 C   -2.292926   -0.404880   -1.127077
 N   -1.514831    0.551339   -0.343928
 C   -1.032662    0.161709    0.895855
 N   -1.459317   -0.801842    1.587281
 C   -1.278011    1.784446   -0.896125
 O   -1.787453    2.163803   -1.919506
 N   -0.451738    2.627580   -0.157507
 C    0.491356    2.212975    0.744539
 O    1.451537    2.881242    1.028440
 C    0.180172    0.890171    1.425687
 N    1.351397    0.037629    1.267067
 C    1.469900   -1.066774    2.190532
 S    1.601589   -0.409156   -0.340097
 O    0.952634   -1.653705   -0.649193
 O    1.247176    0.729577   -1.137711
 C    3.373221   -0.600739   -0.341525
 C    3.960019   -1.789049   -0.728350
 C    5.342758   -1.886553   -0.721889
 C    6.108698   -0.799636   -0.330684
 C    5.503525    0.387952    0.054140
 C    4.122633    0.492919    0.048930
 H   -3.573589   -2.758759   -0.681148
 H   -5.844481   -3.101784    0.202699
 H   -7.238119   -1.160708    0.818661
 H   -6.354471    1.124958    0.528828
 H   -4.089027    1.466309   -0.374081
 H   -1.727179   -1.341266   -1.169771
 H   -2.358154    0.015283   -2.135141
 H   -2.225180   -1.335184    1.189389
 H   -0.240088    3.496427   -0.639566
 H    0.057822    1.076140    2.499216
 H    0.552272   -1.662332    2.220166
 H    1.689617   -0.675910    3.183576
 H    2.297029   -1.687003    1.852027
 H    3.328601   -2.611171   -1.027199
 H    5.819669   -2.807024   -1.022173
 H    7.185707   -0.877901   -0.327090
 H    6.106732    1.230106    0.356408
 H    3.614901    1.399174    0.339461
