44 
4asy_ligand_ani.xyz
 C   -4.488063    0.057630   -0.550666
 C   -5.776727   -0.154104   -0.072775
 C   -6.140131   -1.389145    0.456400
 C   -5.206854   -2.419227    0.495058
 C   -3.914384   -2.204402    0.022241
 C   -3.533418   -0.960756   -0.486179
 C   -2.122350   -0.727136   -1.003408
 N   -1.389973    0.368429   -0.341070
 C   -0.664316    0.112469    0.843366
 N   -0.863734   -0.860648    1.633351
 C   -1.442234    1.620311   -0.957741
 O   -2.141920    1.850532   -1.922834
 N   -0.645726    2.598696   -0.387257
 C    0.353876    2.455142    0.551755
 O    1.092740    3.371480    0.842475
 C    0.433085    1.099910    1.240339
 N    1.776370    0.513994    1.132132
 O    1.471702    0.412541   -1.109282
 C    2.163643    0.145858   -0.137933
 C    3.465340   -0.588480   -0.279330
 C    3.882106   -1.562971    0.629025
 C    5.090801   -2.225718    0.435361
 C    5.886649   -1.918232   -0.664946
 C    5.461893   -0.962131   -1.585253
 C    2.710897    0.938291    2.168346
 C    4.247402   -0.311862   -1.401108
 H   -4.218928    1.014227   -0.991433
 H   -6.504110    0.652264   -0.119208
 H   -7.148417   -1.549504    0.829232
 H   -5.478713   -3.390970    0.898921
 H   -3.196270   -3.023547    0.043610
 H   -2.152070   -0.462718   -2.063028
 H   -1.524892   -1.638522   -0.903097
 H   -1.650880   -1.440855    1.333490
 H   -0.669355    3.489620   -0.867772
 H    0.280712    1.276303    2.306916
 H    3.257341   -1.804391    1.485664
 H    5.416475   -2.972611    1.153040
 H    6.834461   -2.430246   -0.809683
 H    6.075879   -0.728730   -2.451718
 H    2.796487    2.032988    2.183613
 H    3.697236    0.509400    1.993830
 H    2.337630    0.595924    3.138931
 H    3.885372    0.418980   -2.119586
