42 
4at3_ligand_dft.xyz
 C    0.834607    2.849717   -1.571436
 C    0.256067    1.754909   -2.198916
 C    1.870739    2.650444   -0.665292
 C    0.726469    0.479968   -1.908337
 C   -1.084052   -0.373212    0.931197
 C    2.351047    1.375996   -0.356021
 C    1.764706    0.267676   -0.995814
 C   -0.266914   -1.477690    0.506422
 C   -2.315500   -0.467243    0.296293
 C   -0.799376    0.766921    1.838595
 C   -4.538096    0.295123   -0.229817
 C    3.457104    1.256841    0.669954
 C    4.725624    0.525483    0.211107
 C    4.595830   -0.996566    0.197890
 C    3.620461   -1.552429   -0.838938
 C    2.140336   -1.171028   -0.718028
 N   -0.800537   -2.321903   -0.335713
 N    0.372808    0.774462    2.505488
 N   -5.432711    1.298804    0.017424
 N   -3.339625    0.421695    0.447076
 O   -1.627716    1.672219    2.006007
 O   -4.747299   -0.627214   -1.001652
 S   -2.359430   -1.859322   -0.721308
 S    1.452564   -1.748666    0.915560
 H    0.482569    3.855581   -1.779631
 H   -0.556442    1.885293   -2.906981
 H    2.319850    3.511371   -0.176018
 H    0.263399   -0.380505   -2.385126
 H    3.729835    2.269092    0.987747
 H    3.077906    0.750996    1.568385
 H    5.540780    0.795840    0.892870
 H    5.015702    0.886154   -0.784403
 H    4.309978   -1.341794    1.201372
 H    5.579956   -1.437020   -0.002131
 H    3.938858   -1.231356   -1.839699
 H    3.680459   -2.646971   -0.826247
 H    1.602371   -1.795179   -1.436164
 H    1.099111    0.102798    2.290382
 H    0.586243    1.598788    3.045057
 H   -5.349201    1.869090    0.844662
 H   -6.363997    1.139995   -0.333838
 H   -3.081263    1.214728    1.043812
