44 
4at4_ligand_ani.xyz
 C    5.142389    1.687396   -0.767940
 C    5.468180    0.506208   -0.054418
 C    6.787835    0.452417    0.407917
 N    7.696243    1.424657    0.287742
 N    6.031863    2.669958   -0.890921
 N    3.917616    1.901302   -1.328299
 C    7.241932    2.487304   -0.359019
 C    4.718157   -0.695657    0.270083
 C    3.275864   -0.916778    0.028614
 C    2.824587   -2.093428   -0.574457
 C    1.471866   -2.309093   -0.774996
 C    2.323577    0.020170    0.438157
 C    0.964330   -0.185661    0.250457
 C    0.526550   -1.364418   -0.358634
 N   -0.829953   -1.677951   -0.557765
 C   -1.928276   -0.876932   -0.300630
 O   -1.856970    0.294165    0.025303
 N   -3.123989   -1.557254   -0.460179
 C   -4.401674   -1.043755   -0.206149
 C   -4.701669    0.306557   -0.056425
 C   -5.451623   -1.965533   -0.119919
 C   -6.756751   -1.597077    0.122143
 C   -7.042699   -0.242495    0.278885
 C   -6.016215    0.690910    0.185797
 C   -6.350619    2.146857    0.343569
 F   -7.163940    2.574583   -0.641736
 F   -5.258532    2.930611    0.327882
 F   -6.996431    2.380348    1.502620
 F   -5.138758   -3.271198   -0.283730
 S    7.126703   -1.071970    1.180844
 C    5.506023   -1.605623    0.894268
 H    3.377226    1.090517   -1.592086
 H    3.890440    2.677378   -1.974065
 H    7.942062    3.314310   -0.480111
 H    3.536570   -2.845384   -0.908207
 H    1.142814   -3.228256   -1.253657
 H    2.651736    0.943373    0.908986
 H    0.247060    0.553858    0.570996
 H   -0.990473   -2.591555   -0.954268
 H   -3.112991   -2.560995   -0.575141
 H   -3.906332    1.035823   -0.126025
 H   -7.525653   -2.359346    0.184889
 H   -8.056807    0.088609    0.471005
 H    5.198796   -2.582437    1.248551
