26 
4au8_ligand_dft.xyz
 C    5.821499    0.624399   -0.066150
 C    5.834078   -0.778336   -0.025491
 C    4.652696   -1.503589    0.013576
 C    3.451064   -0.795949    0.011127
 C    3.424783    0.611443   -0.029256
 C    4.627853    1.325167   -0.068344
 N    2.164548    1.181321   -0.026792
 C    1.246135    0.272676    0.014063
 S    1.816824   -1.398106    0.054383
 C   -0.184784    0.578557    0.027023
 C   -1.244034   -0.377291    0.052177
 C   -2.468980    0.220142    0.056750
 S   -2.365285    1.945507    0.044610
 C   -0.657607    1.867155    0.017619
 S   -4.002340   -0.645148    0.107843
 O   -3.664877   -2.051785    0.243446
 O   -4.890245    0.033389    1.033938
 N   -4.636636   -0.361852   -1.412410
 H    6.761992    1.165504   -0.095926
 H    6.782672   -1.306050   -0.024214
 H    4.665724   -2.588041    0.045515
 H    4.601530    2.409125   -0.099142
 H   -1.122892   -1.454315    0.072190
 H   -0.057125    2.766546    0.004333
 H   -4.464502   -1.141396   -2.039665
 H   -5.625212   -0.142775   -1.335700
