49 
4av5_ligand_ani.xyz
 O    5.904905   -1.825880   -0.986416
 C    4.569755   -1.695600   -0.555518
 C    4.541452   -1.302867    0.913173
 O    5.317151   -2.255491    1.615126
 C    5.143012    0.083129    1.089025
 O    5.054799    0.373076    2.467167
 C    4.390323    1.087500    0.214500
 O    4.450052    0.664782   -1.148698
 C    5.015436    2.472376    0.217402
 O    5.036956    2.958838    1.557008
 C    3.912260   -0.610066   -1.401590
 O    2.537532   -0.654466   -1.134643
 C    1.789780    0.252380   -1.933964
 C    0.379611    0.160131   -1.557533
 C   -0.785772    0.104779   -1.246773
 C   -2.173515    0.055228   -0.875526
 C   -3.152864    0.620764   -1.702999
 C   -4.487216    0.593940   -1.331697
 C   -4.890542   -0.010918   -0.137035
 C   -3.912078   -0.588489    0.678276
 C   -2.573315   -0.550015    0.323159
 C   -6.320749   -0.034775    0.256795
 C   -7.113249    1.111397    0.138614
 C   -8.451196    1.094897    0.515411
 C   -9.025579   -0.076100    1.002483
 C   -8.249440   -1.226245    1.117447
 C   -6.907328   -1.201992    0.755584
 H    6.342604   -2.340859   -0.291935
 H    4.006843   -2.631050   -0.696466
 H    3.504312   -1.294351    1.281229
 H    5.491846   -1.870169    2.487151
 H    6.193533    0.049556    0.752045
 H    5.149075    1.336269    2.559784
 H    3.347634    1.152645    0.566545
 H    4.428533    3.133079   -0.433181
 H    6.031216    2.386318   -0.191625
 H    5.638826    3.709340    1.608210
 H    4.091191   -0.808175   -2.467228
 H    1.931485    0.012830   -2.999711
 H    2.149882    1.280754   -1.789318
 H   -2.861214    1.092347   -2.636222
 H   -5.235555    1.033027   -1.987153
 H   -4.205172   -1.054566    1.616049
 H   -1.828580   -0.997312    0.974105
 H   -6.665760    2.030142   -0.234995
 H   -9.048309    1.998094    0.420516
 H  -10.073059   -0.092032    1.291389
 H   -8.687741   -2.145050    1.498216
 H   -6.305465   -2.104431    0.840832
