43 
4avh_ligand_xtb.xyz
 O   -3.995703    2.733695   -0.690724
 C   -3.307463    2.220614    0.433023
 C   -2.574879    0.936536    0.035276
 O   -1.800287    0.573014    1.163927
 C   -3.546996   -0.188498   -0.341183
 O   -4.293286    0.095060   -1.501188
 C   -2.746688   -1.468713   -0.611627
 O   -3.611488   -2.554645   -0.851139
 C   -1.885031   -1.811771    0.606932
 O   -2.680030   -2.186229    1.697284
 C   -1.038831   -0.592828    0.999778
 O   -0.049867   -0.448628    0.025749
 C    0.957421    0.494469    0.365626
 C    1.915966    0.606669   -0.813190
 C    3.042635    1.590958   -0.545756
 C    4.799895   -0.427969    0.434757
 C    5.721671   -0.350747   -0.771389
 C    6.431394   -1.680262   -1.000379
 S    4.073685    1.178773    0.903084
 H   -4.424894    3.559367   -0.443786
 H   -2.564922    2.937498    0.802462
 H   -4.003615    1.989595    1.249159
 H   -1.926141    1.140532   -0.830798
 H   -4.220494   -0.369470    0.513882
 H   -4.468676    1.046972   -1.516643
 H   -2.092065   -1.297920   -1.478661
 H   -4.272641   -2.245456   -1.482947
 H   -1.195562   -2.625881    0.335075
 H   -3.361530   -2.775119    1.341570
 H   -0.600520   -0.762759    1.995691
 H    1.489106    0.155552    1.265587
 H    0.502615    1.468607    0.586218
 H    2.312865   -0.385217   -1.034301
 H    1.358636    0.938445   -1.691926
 H    2.644846    2.577112   -0.307002
 H    3.698690    1.677699   -1.411367
 H    5.357745   -0.726965    1.322333
 H    3.988624   -1.138862    0.277561
 H    5.145416   -0.094476   -1.663040
 H    6.458225    0.438502   -0.606793
 H    7.041844   -1.940834   -0.138886
 H    5.708213   -2.476988   -1.161635
 H    7.076013   -1.619174   -1.873576
