54 
4avi_ligand_xtb.xyz
 C   -6.715540   -0.242577    0.205405
 O   -8.659452    1.194597    0.094173
 C   -8.119746    0.157099   -0.180698
 O   -8.711346   -0.816780   -0.890262
 C  -10.042453   -0.560514   -1.316878
 C   -6.040366    0.825334    1.061167
 C   -4.676445    0.389456    1.593517
 C   -3.624162    0.227847    0.498193
 C   -2.246292   -0.089097    1.075936
 C   -1.191848   -0.240801   -0.018052
 C    0.184959   -0.562169    0.556573
 C    1.232731   -0.697363   -0.540647
 O    2.473030   -1.050240    0.057456
 C    3.525381   -1.155886   -0.851288
 C    4.696305   -1.826461   -0.119690
 O    5.642412   -2.247141   -1.063305
 C    5.314393   -0.843948    0.878710
 O    6.473389   -1.440641    1.413183
 C    5.661110    0.471576    0.170212
 O    6.197887    1.343403    1.137027
 C    4.396387    1.022461   -0.499855
 O    3.868253    0.081498   -1.417617
 C    4.681801    2.284617   -1.317890
 O    5.079089    3.325830   -0.447554
 H   -6.771900   -1.191774    0.742785
 H   -6.159728   -0.422031   -0.716380
 H  -10.684522   -0.361271   -0.456569
 H  -10.067417    0.305957   -1.980802
 H  -10.371036   -1.453755   -1.841510
 H   -5.932308    1.738160    0.473073
 H   -6.697063    1.058604    1.901254
 H   -4.327108    1.141002    2.304881
 H   -4.781948   -0.552599    2.136444
 H   -3.566636    1.150983   -0.082943
 H   -3.914441   -0.575924   -0.180545
 H   -2.300953   -1.013153    1.655349
 H   -1.946827    0.710009    1.757374
 H   -1.491870   -1.038283   -0.701615
 H   -1.135544    0.684687   -0.595731
 H    0.149160   -1.497283    1.116936
 H    0.496396    0.224679    1.245079
 H    0.942904   -1.480146   -1.257282
 H    1.340537    0.245668   -1.092254
 H    3.245683   -1.772608   -1.720280
 H    4.294935   -2.688885    0.434409
 H    6.454174   -2.424125   -0.565780
 H    4.585214   -0.633765    1.674630
 H    6.951977   -0.742661    1.877712
 H    6.408950    0.262106   -0.613826
 H    6.035211    2.251072    0.842231
 H    3.658594    1.254615    0.283758
 H    5.470026    2.059769   -2.047569
 H    3.769480    2.552696   -1.863432
 H    5.222662    4.126611   -0.962492
