54 
4avi_ligand_dft.xyz
 C   -6.670485   -0.225443    0.202475
 O   -8.681243    1.128681    0.279009
 C   -8.082643    0.175160   -0.158655
 O   -8.611583   -0.683326   -1.049045
 C   -9.950703   -0.399134   -1.448790
 C   -6.003859    0.754018    1.164552
 C   -4.630700    0.283336    1.651234
 C   -3.576627    0.159125    0.549261
 C   -2.197381   -0.226091    1.083869
 C   -1.140083   -0.344050   -0.013642
 C    0.235974   -0.736254    0.523520
 C    1.279641   -0.821546   -0.574922
 O    2.518057   -1.182211    0.011962
 C    3.585415   -1.217956   -0.887184
 C    4.781407   -1.785715   -0.121591
 O    5.789810   -2.095370   -1.054350
 C    5.283884   -0.761026    0.889553
 O    6.491260   -1.265175    1.431691
 C    5.523913    0.583144    0.218823
 O    5.919136    1.469946    1.244195
 C    4.257924    1.036011   -0.516732
 O    3.849927    0.045869   -1.447464
 C    4.486112    2.280621   -1.363297
 O    4.925993    3.328477   -0.508155
 H   -6.712050   -1.232694    0.637795
 H   -6.107804   -0.329554   -0.732096
 H  -10.623716   -0.420037   -0.587746
 H  -10.012538    0.584874   -1.920471
 H  -10.218306   -1.179830   -2.160461
 H   -5.910716    1.732067    0.677176
 H   -6.665350    0.906556    2.023623
 H   -4.268075    0.990457    2.408562
 H   -4.736312   -0.684591    2.161997
 H   -3.504402    1.114287    0.009305
 H   -3.890493   -0.589643   -0.190492
 H   -2.270500   -1.181446    1.622188
 H   -1.871390    0.518504    1.823288
 H   -1.469578   -1.084293   -0.756283
 H   -1.065546    0.614255   -0.546978
 H    0.179083   -1.704105    1.036309
 H    0.571888   -0.002992    1.267328
 H    0.994437   -1.574033   -1.327748
 H    1.374919    0.142909   -1.091748
 H    3.358191   -1.853025   -1.753240
 H    4.444785   -2.686789    0.410153
 H    6.602144   -2.163929   -0.531038
 H    4.528255   -0.625136    1.675522
 H    6.912323   -0.519815    1.882274
 H    6.322797    0.456306   -0.529276
 H    5.902167    2.363183    0.865384
 H    3.468313    1.231367    0.222949
 H    5.239699    2.045608   -2.127617
 H    3.550037    2.548084   -1.870653
 H    5.176159    4.083138   -1.051598
