54 
4avi_ligand_ani.xyz
 C   -6.723309   -0.253165    0.201136
 O   -8.675597    1.179300    0.099612
 C   -8.131584    0.139980   -0.189985
 O   -8.724954   -0.825927   -0.911017
 C  -10.065128   -0.541098   -1.317147
 C   -6.063292    0.825141    1.055168
 C   -4.685588    0.432925    1.590163
 C   -3.624463    0.230265    0.509283
 C   -2.241239   -0.076992    1.081478
 C   -1.172512   -0.245350    0.003796
 C    0.209443   -0.579519    0.563486
 C    1.256183   -0.692522   -0.531804
 O    2.486976   -1.085900    0.062906
 C    3.540068   -1.192207   -0.849913
 C    4.716521   -1.818990   -0.108368
 O    5.693231   -2.160339   -1.065542
 C    5.300794   -0.828776    0.886330
 O    6.487830   -1.403042    1.399219
 C    5.622551    0.479785    0.181372
 O    6.134423    1.340600    1.175453
 C    4.364285    1.024503   -0.497552
 O    3.867295    0.052858   -1.418286
 C    4.629997    2.261949   -1.338921
 O    5.154319    3.281476   -0.491506
 H   -6.775248   -1.208490    0.739628
 H   -6.158198   -0.452319   -0.718630
 H  -10.701563   -0.360544   -0.447227
 H  -10.092599    0.341071   -1.961872
 H  -10.400181   -1.424073   -1.861185
 H   -5.991618    1.746743    0.464893
 H   -6.734159    1.057073    1.888955
 H   -4.341785    1.215137    2.280735
 H   -4.774200   -0.486188    2.188709
 H   -3.566364    1.134888   -0.114537
 H   -3.920200   -0.587082   -0.163023
 H   -2.293902   -0.991238    1.691249
 H   -1.940901    0.729202    1.767356
 H   -1.481135   -1.039601   -0.693207
 H   -1.111347    0.678162   -0.592401
 H    0.172513   -1.527224    1.115602
 H    0.525372    0.191868    1.278296
 H    0.955704   -1.446168   -1.279917
 H    1.372160    0.263482   -1.064013
 H    3.248337   -1.837767   -1.689480
 H    4.351759   -2.707675    0.429104
 H    6.495438   -2.336792   -0.551183
 H    4.579007   -0.634093    1.693901
 H    6.973551   -0.681587    1.827161
 H    6.376202    0.274941   -0.598923
 H    6.058689    2.246933    0.831839
 H    3.614635    1.255943    0.275770
 H    5.349320    1.990290   -2.123705
 H    3.695987    2.586749   -1.814176
 H    5.530183    3.980590   -1.037563
