50 
4avj_ligand_dft.xyz
 O   -1.128846    3.214053   -0.712783
 C   -1.491217    2.838067    0.594654
 C   -2.650398    1.897546    0.506928
 N   -3.487390    1.620963    1.541103
 N   -4.374595    0.749857    1.150140
 C   -3.048148    1.160720   -0.578752
 N   -4.127349    0.476118   -0.139054
 C   -4.818062   -0.612727   -0.800663
 C   -4.374252   -1.980006   -0.242126
 C   -2.878419   -2.040645   -0.054090
 C   -2.323220   -1.801216    1.205281
 C   -0.950832   -1.721338    1.378013
 C   -0.103358   -1.875967    0.283858
 C   -0.630875   -2.111916   -0.983498
 C   -2.013030   -2.198689   -1.134864
 O    1.237407   -1.790392    0.570717
 C    2.163261   -1.653049   -0.475094
 C    3.534040   -1.635811    0.220522
 O    4.591552   -1.691863   -0.721236
 C    3.718106   -0.321276    0.974580
 O    5.027716   -0.192495    1.485864
 C    3.396222    0.855012    0.057917
 O    3.462049    2.069254    0.785123
 C    1.998139    0.712947   -0.541129
 O    1.935369   -0.518976   -1.254058
 C    1.678164    1.813619   -1.547341
 O    1.597643    3.083366   -0.930239
 H   -0.174931    3.408528   -0.714153
 H   -1.774436    3.704841    1.210690
 H   -0.654856    2.339547    1.110709
 H   -2.662538    1.081962   -1.581468
 H   -4.583538   -0.533337   -1.865382
 H   -5.894074   -0.471662   -0.673970
 H   -4.725358   -2.760175   -0.927454
 H   -4.871785   -2.139117    0.718906
 H   -2.977865   -1.637315    2.056011
 H   -0.516951   -1.527465    2.353252
 H    0.008817   -2.197580   -1.853572
 H   -2.420677   -2.372615   -2.128542
 H    2.099179   -2.496439   -1.174677
 H    3.584721   -2.475529    0.924344
 H    4.689399   -2.597616   -1.035128
 H    3.035939   -0.295511    1.829251
 H    5.611071   -0.521271    0.784338
 H    4.120858    0.863612   -0.771170
 H    4.296530    2.050233    1.275333
 H    1.247472    0.733640    0.260436
 H    2.436545    1.805999   -2.343409
 H    0.701674    1.615967   -1.995632
 H    2.330283    3.157551   -0.296317
