22 
4avs_ligand_ani.xyz
 O    1.118876   -0.826305    1.430592
 C    1.467390   -0.877668    0.131227
 O    2.371815   -1.561208   -0.279044
 C    0.680063    0.092842   -0.736698
 N   -0.669513    0.337581   -0.262278
 C   -1.558471   -0.695765   -0.234771
 O   -1.222290   -1.813131   -0.600774
 C   -2.949408   -0.387312    0.278119
 C   -0.875998    1.696737    0.229882
 C    0.548761    2.234007    0.375919
 C    1.324940    1.491801   -0.717336
 H    1.695986   -1.463029    1.884243
 H    0.681548   -0.342482   -1.738381
 H   -2.930701   -0.187566    1.356402
 H   -3.577580   -1.259869    0.097513
 H   -3.386078    0.486879   -0.215785
 H   -1.458899    2.286901   -0.491539
 H   -1.422893    1.691889    1.178869
 H    0.597563    3.320069    0.265945
 H    0.943979    1.969197    1.360209
 H    1.170128    1.969511   -1.690511
 H    2.402655    1.442731   -0.535281
