24 
4avu_ligand_xtb.xyz
 O    1.414319    2.854201   -0.002984
 C   -3.639268   -0.172937    0.006121
 C    3.392413   -0.850600    0.008004
 C   -3.108568   -1.457211    0.003084
 C    2.616655   -2.004236   -0.000360
 C   -2.796912    0.916429    0.003286
 C    2.772611    0.378462    0.006970
 C   -1.743412   -1.643127   -0.002339
 C    1.240911   -1.925292   -0.007122
 N   -0.586691    1.832943   -0.003634
 C    0.784762    1.813159   -0.002231
 C   -1.413327    0.735874   -0.001936
 C    1.380694    0.471055   -0.000225
 C   -0.861574   -0.558340   -0.004589
 C    0.585748   -0.688647   -0.005113
 H   -4.708875   -0.028048    0.011219
 H    4.469476   -0.920388    0.014903
 H   -3.767556   -2.311973    0.005669
 H    3.094960   -2.972908   -0.000842
 H   -3.196480    1.920507    0.006163
 H    3.337826    1.298289    0.012257
 H   -1.355718   -2.649083   -0.003799
 H    0.668951   -2.839509   -0.013852
 H   -1.014708    2.751368   -0.003706
