21 
4avw_ligand_ani.xyz
 C    0.707760   -0.714860   -0.001663
 C    1.383520    0.517956    0.001875
 C    2.776295    0.563821    0.006494
 C    3.515026   -0.600550    0.003955
 C    2.851198   -1.836216   -0.003302
 C    1.475909   -1.896338   -0.006055
 C   -2.958488   -1.402258    0.003445
 C   -1.668455   -1.808878    0.002619
 C   -0.742702   -0.718147   -0.000521
 C   -1.392540    0.493629   -0.001336
 N   -0.733392    1.698677   -0.002821
 S   -3.105992    0.330719    0.000333
 C    0.653992    1.813995   -0.000993
 O    1.179695    2.910510   -0.002200
 H    3.253680    1.539892    0.011598
 H    4.600619   -0.565390    0.006719
 H    3.429623   -2.756561   -0.006658
 H    0.975070   -2.860954   -0.012270
 H   -3.851104   -2.014820    0.005963
 H   -1.388849   -2.859614    0.005032
 H   -1.236070    2.578194   -0.005479
