42 
4aw8_ligand_dft.xyz
 C   -4.508415   -1.826090    0.153652
 O   -3.312713   -1.819556   -0.580564
 C   -2.178486   -1.823405    0.251734
 C   -0.956444   -1.732369   -0.646068
 O    0.165965   -1.470555    0.169366
 C    1.277293   -0.916949   -0.519015
 C    2.554337   -1.610509   -0.032502
 O    3.063985   -1.063721    1.172478
 C    4.293585   -0.387929    1.050361
 C    4.176662    0.997085    0.425266
 O    3.680476    0.912496   -0.896441
 C    2.357702    1.361883   -1.077399
 C    1.285647    0.599810   -0.290107
 O    0.049728    1.157140   -0.702375
 C   -0.812527    1.529538    0.352351
 C   -2.203171    1.710130   -0.230417
 O   -3.069149    2.005223    0.837897
 C   -4.387777    2.218687    0.410077
 H   -4.607485   -2.739733    0.760247
 H   -5.330637   -1.785418   -0.564424
 H   -4.569784   -0.955702    0.825925
 H   -2.144122   -2.734436    0.870483
 H   -2.197624   -0.960220    0.934476
 H   -0.821836   -2.671631   -1.203895
 H   -1.113333   -0.925706   -1.370078
 H    1.174817   -1.115824   -1.596896
 H    3.313745   -1.568584   -0.819738
 H    2.300323   -2.659132    0.158117
 H    4.697713   -0.292772    2.064163
 H    5.002022   -0.986722    0.457884
 H    5.174194    1.453716    0.383062
 H    3.539773    1.641892    1.046013
 H    2.150101    1.257472   -2.146724
 H    2.265315    2.428561   -0.821722
 H    1.426281    0.757405    0.785769
 H   -0.477212    2.467503    0.819860
 H   -0.838853    0.754230    1.125884
 H   -2.198499    2.522952   -0.974532
 H   -2.520828    0.788848   -0.743384
 H   -4.986460    2.435060    1.297856
 H   -4.455471    3.070662   -0.284507
 H   -4.798908    1.330052   -0.094319
