42 
4aw8_ligand_ani.xyz
 C   -4.221365   -3.405545    0.392682
 O   -3.294434   -2.689099   -0.381929
 C   -2.064284   -2.529772    0.280859
 C   -1.137346   -1.749889   -0.630829
 O    0.093726   -1.623116    0.057493
 C    1.115277   -0.941736   -0.642822
 C    2.429841   -1.646720   -0.316733
 O    2.885542   -1.298001    0.978200
 C    4.106632   -0.597318    1.012396
 C    3.973453    0.856450    0.582457
 O    3.508997    0.943246   -0.748455
 C    2.184509    1.402489   -0.906009
 C    1.109022    0.539644   -0.229480
 O   -0.149446    1.064720   -0.610224
 C   -0.635162    2.117003    0.200422
 C   -2.085484    2.346219   -0.183959
 O   -2.586462    3.374099    0.632369
 C   -3.913966    3.704959    0.315112
 H   -3.859545   -4.421108    0.617544
 H   -5.146939   -3.477273   -0.183085
 H   -4.430934   -2.893973    1.345330
 H   -1.610605   -3.507034    0.513792
 H   -2.196310   -1.986602    1.231225
 H   -1.000526   -2.298619   -1.576203
 H   -1.572877   -0.770333   -0.862300
 H    0.932456   -1.001973   -1.729990
 H    3.182323   -1.410414   -1.079286
 H    2.244274   -2.728245   -0.331443
 H    4.461146   -0.646735    2.048205
 H    4.855478   -1.091895    0.374031
 H    4.964369    1.328482    0.620296
 H    3.311058    1.402051    1.270528
 H    1.994109    1.414485   -1.984119
 H    2.088946    2.437422   -0.538853
 H    1.208122    0.569336    0.864878
 H   -0.058859    3.043720    0.048629
 H   -0.572401    1.849255    1.265380
 H   -2.150823    2.618813   -1.249702
 H   -2.656517    1.410826   -0.041937
 H   -4.218711    4.517089    0.979135
 H   -4.005882    4.043733   -0.728791
 H   -4.591491    2.849503    0.462528
