56 
4awk_ligand_xtb.xyz
 O   -2.554113    0.344591   -2.994294
 S   -1.948412    0.210033   -1.699755
 O   -1.171762   -0.969924   -1.434571
 C   -3.234741    0.394484   -0.418544
 C   -3.711628   -0.985875   -0.123672
 C   -3.367041   -1.622221    1.061197
 C   -3.770261   -2.924638    1.298468
 C   -4.512565   -3.604983    0.348887
 C   -4.850479   -2.979392   -0.840145
 C   -4.451802   -1.676641   -1.076814
 N   -0.918399    1.478277   -1.360174
 C   -1.388082    2.831623   -1.521207
 C   -0.707196    3.691681   -0.457443
 C    0.812685    3.564581   -0.564759
 C    0.495206    1.336287   -1.613482
 C    1.256144    2.088073   -0.515791
 C    0.957347    1.540876    0.875202
 O    1.058034    2.241041    1.855743
 C    0.572305    0.084591    1.011517
 C    0.005299   -0.192426    2.377886
 O    0.118707   -1.217979    2.988216
 C   -0.828268    0.985522    2.915197
 O   -0.543626    1.277437    4.166496
 O   -1.687360    1.527049    2.261440
 C    2.789792    2.023465   -0.738907
 C    3.367488    0.642360   -0.627863
 C    3.428705   -0.199900   -1.731987
 C    3.952805   -1.475471   -1.626744
 C    3.856342    0.179634    0.590028
 C    4.386815   -1.091975    0.710216
 C    4.429484   -1.917246   -0.402724
Cl    5.091703   -3.505791   -0.264481
 H   -2.772996    0.872292    0.440958
 H   -4.010416    1.017380   -0.854539
 H   -2.785854   -1.093406    1.802284
 H   -3.497203   -3.408988    2.223916
 H   -4.823555   -4.622636    0.532282
 H   -5.422528   -3.510065   -1.586620
 H   -4.698128   -1.189503   -2.008552
 H   -1.155533    3.206833   -2.528865
 H   -2.469920    2.835033   -1.395125
 H   -1.000965    4.734854   -0.577751
 H   -1.032641    3.351019    0.526257
 H    1.281715    4.108457    0.256051
 H    1.150769    4.001873   -1.506658
 H    0.756547    1.768264   -2.591615
 H    0.729472    0.273347   -1.634577
 H   -0.182704   -0.211413    0.272007
 H    1.444139   -0.551334    0.834345
 H   -1.068583    2.029777    4.488215
 H    3.260139    2.673862    0.001267
 H    2.997536    2.427561   -1.731697
 H    3.072006    0.145357   -2.690511
 H    3.995771   -2.122738   -2.488082
 H    3.823356    0.823170    1.457257
 H    4.764845   -1.441202    1.657873
