56 
4awk_ligand_ani.xyz
 O   -3.588878    0.984024   -1.956717
 S   -2.524958    0.317581   -1.216858
 O   -2.020047   -0.975686   -1.648898
 C   -3.069248    0.162302    0.500260
 C   -4.128534   -0.900462    0.636666
 C   -3.853341   -2.090438    1.308395
 C   -4.835180   -3.069106    1.444668
 C   -6.101515   -2.861838    0.908755
 C   -6.381530   -1.676450    0.233403
 C   -5.400330   -0.701139    0.096064
 N   -1.228449    1.392358   -1.077769
 C   -1.553594    2.778060   -1.470235
 C   -0.444674    3.716208   -1.022615
 C    0.903304    3.255143   -1.570665
 C    0.040808    0.923219   -1.663678
 C    1.220121    1.793015   -1.204039
 C    1.445090    1.690231    0.312686
 O    1.945630    2.608858    0.925783
 C    1.091667    0.404751    1.074302
 C    1.830925    0.419325    2.389990
 O    2.846523   -0.199300    2.599420
 C    1.229347    1.373216    3.434626
 O    2.131013    1.784329    4.323822
 O    0.067459    1.699591    3.427249
 C    2.530346    1.373337   -1.939659
 C    3.079314    0.015271   -1.565509
 C    2.624577   -1.146959   -2.193947
 C    3.061012   -2.407002   -1.799097
 C    4.012785   -0.122769   -0.532686
 C    4.437457   -1.373727   -0.103251
 C    3.960600   -2.510980   -0.745934
Cl    4.496474   -4.084700   -0.229829
 H   -2.179808   -0.079839    1.091252
 H   -3.437600    1.153488    0.792233
 H   -2.862880   -2.256899    1.729627
 H   -4.609082   -3.992587    1.972375
 H   -6.870606   -3.623492    1.015506
 H   -7.368727   -1.508435   -0.188862
 H   -5.612128    0.215895   -0.448010
 H   -1.693124    2.831427   -2.559718
 H   -2.503184    3.054461   -1.008601
 H   -0.669495    4.729379   -1.373230
 H   -0.417177    3.754195    0.072751
 H    1.707536    3.894955   -1.197922
 H    0.900583    3.334321   -2.667807
 H   -0.030482    0.957209   -2.763135
 H    0.175530   -0.120476   -1.379199
 H    0.006646    0.401963    1.221748
 H    1.377130   -0.474753    0.493454
 H    1.667933    2.388903    4.929072
 H    3.286458    2.141690   -1.736475
 H    2.328522    1.410170   -3.017514
 H    1.897980   -1.068668   -3.002840
 H    2.701442   -3.301506   -2.297382
 H    4.397554    0.763304   -0.031220
 H    5.115332   -1.466391    0.738834
