51 
4awm_ligand_xtb.xyz
 O   -2.825844    0.292419    1.944587
 C   -2.095450    1.288276    1.339495
 C   -2.782548    2.434163    0.954162
 O   -4.132524    2.570426    1.175361
 C   -2.098001    3.476304    0.324384
 O   -2.761100    4.600418   -0.037277
 C   -0.741448    3.349843    0.063753
 C   -0.064689    2.200990    0.439226
 C    1.364391    1.983297    0.011850
 C    3.111550    0.484488    0.634761
 C    3.793036   -0.145902    1.674325
 C    4.915044   -0.909463    1.403981
 C    5.363993   -1.046981    0.095072
 C    4.676345   -0.427068   -0.934301
 C    3.540713    0.344475   -0.679254
 C    1.356720    1.279013   -1.368077
 C   -0.671827    0.096262   -1.563639
 C   -1.411623   -1.083410   -1.060258
 C   -0.794346   -2.076196   -0.307689
 C   -2.782327   -1.128284   -1.300716
 C    2.779778    0.974955   -1.810284
 O    2.023384    1.212893    0.997432
 O    5.612294   -1.539175    2.386570
 O    5.078700   -0.545452   -2.229464
 C   -0.738264    1.177175    1.091133
 O    0.627182    0.063051   -1.235090
 O   -1.187691    0.990161   -2.191689
 C   -3.538928   -2.165570   -0.790860
 O   -4.891790   -2.278339   -0.979445
 C   -2.927088   -3.165052   -0.032592
 O   -3.646286   -4.202247    0.495442
 C   -1.549427   -3.118750    0.207693
 O   -0.962876   -4.084876    0.955957
 H   -2.242000   -0.450078    2.132998
 H   -4.426215    1.766659    1.622099
 H   -3.690878    4.484398    0.204380
 H   -0.239090    4.154159   -0.447660
 H    1.883311    2.946448   -0.106233
 H    3.428449   -0.021635    2.682804
 H    6.242814   -1.642914   -0.098398
 H    0.837525    1.922512   -2.088340
 H    0.265466   -2.048346   -0.118464
 H   -3.234256   -0.336953   -1.879630
 H    2.768645    0.292688   -2.661870
 H    3.264394    1.900585   -2.132416
 H    5.195335   -1.365492    3.238903
 H    5.858031   -1.112635   -2.269051
 H   -0.204255    0.289625    1.394559
 H   -5.199701   -1.534856   -1.509170
 H   -4.566482   -4.083203    0.226301
 H   -1.642321   -4.730569    1.197133
