71 
4awp_ligand_ani.xyz
 C   -5.643700    2.912130   -1.068739
 C   -6.160262    1.572526   -0.618205
 C   -7.282896    1.018486   -1.222639
 C   -7.805231   -0.223316   -0.852858
 C   -9.019407   -0.755656   -1.557181
 O   -9.176726   -1.932474   -1.832441
 N   -9.948191    0.192947   -1.899744
 C   -7.176152   -0.976726    0.150911
 C   -7.665266   -2.329793    0.591575
 C   -6.052171   -0.423478    0.755280
 C   -5.547549    0.830206    0.402583
 C   -4.360151    1.390816    1.131454
 O   -4.285517    2.547558    1.521874
 N   -3.339545    0.501885    1.307334
 C   -2.088754    0.913430    1.923979
 C   -1.192932    1.724910    0.970438
 C   -1.337855   -0.301147    2.484259
 C   -0.413448   -0.985797    1.472598
 C   -1.112961   -1.452203    0.181368
 C   -1.073211   -0.204171   -0.738418
 C   -0.303739    0.848568    0.091734
 N    0.530205    0.035762    0.995827
 C    1.789817   -0.361263    0.568378
 C    2.674077    0.597784    0.027446
 C    3.952411    0.208253   -0.305112
 N    2.151240   -1.638778    0.743713
 C    3.379497   -1.997817    0.385051
 C    4.335314   -1.124835   -0.119222
 C    5.692144   -1.660262   -0.434194
 O    5.883170   -2.839561   -0.692640
 N    6.710700   -0.753198   -0.396890
 C    8.079432   -1.240560   -0.491054
 C    9.063359   -0.097418   -0.528659
 C    9.909669    0.158004    0.549963
 C   10.799632    1.228405    0.517496
 C   10.853521    2.054320   -0.600742
 C   10.012668    1.806313   -1.682923
 C    9.121025    0.738995   -1.643940
 H   -5.649582    3.635839   -0.248702
 H   -4.605924    2.833512   -1.410510
 H   -6.248990    3.298978   -1.893468
 H   -7.765783    1.562017   -2.032193
 H  -10.827134   -0.160988   -2.247090
 H   -9.963880    1.081557   -1.424910
 H   -7.038835   -2.709935    1.403960
 H   -7.654450   -3.045731   -0.234907
 H   -8.698403   -2.277853    0.949013
 H   -5.561368   -0.984437    1.549137
 H   -3.361518   -0.363193    0.790669
 H   -2.377244    1.576032    2.742087
 H   -1.824984    2.382242    0.362159
 H   -0.534786    2.362764    1.572644
 H   -0.708057    0.026914    3.319914
 H   -2.063908   -1.016527    2.890363
 H    0.129698   -1.796149    1.960873
 H   -0.528596   -2.267225   -0.255760
 H   -2.116201   -1.851243    0.363033
 H   -2.063354    0.153677   -1.035798
 H   -0.519560   -0.424112   -1.657038
 H    0.311372    1.490957   -0.544529
 H    2.360084    1.631721   -0.078330
 H    4.633718    0.935295   -0.744499
 H    3.641769   -3.044229    0.513821
 H    6.556078    0.131525    0.063110
 H    8.303562   -1.919725    0.342077
 H    8.142600   -1.843881   -1.402459
 H    9.867982   -0.488325    1.425347
 H   11.452689    1.415068    1.367053
 H   11.548492    2.890187   -0.630100
 H   10.048848    2.448612   -2.559658
 H    8.456104    0.549918   -2.485090
