73 
4ax9_ligand_ani.xyz
 N    0.925878    2.755464    0.018668
 C    0.437056    3.400055    1.208748
 C    0.350057    1.650692   -0.551146
 C    2.257294    3.089517   -0.455632
 C    0.358666    4.899893    1.174987
 C   -0.891033    4.080665    1.118141
 C   -1.015320    1.140989   -0.057204
 O    0.904486    1.081185   -1.488844
 C    3.326887    2.121166    0.035320
 N   -2.004702    1.760302   -0.941205
 C   -1.064004   -0.397256   -0.130954
 O    4.458030    2.269884   -0.638567
 O    3.167831    1.340255    0.952241
 S   -3.588120    2.009759   -0.495483
 C   -0.052034   -1.090454    0.773666
 C   -4.405590    0.428766   -0.546201
 O   -4.154950    2.832451   -1.549527
 O   -3.569078    2.436447    0.894585
 N    1.181460   -1.263706    0.229657
 O   -0.336865   -1.477661    1.898260
 C   -4.645124   -0.260227    0.612783
 C   -4.803148   -0.083950   -1.803370
 C    2.254191   -1.806299    1.040964
 C   -5.268959   -1.539043    0.562761
 C   -5.403270   -1.312219   -1.872191
 C    3.548890   -1.874570    0.237828
 C   -5.649118   -2.072985   -0.695184
 C   -5.524537   -2.292289    1.738047
 C    4.748662   -2.210789    1.132776
 C    3.501342   -2.884695   -0.916103
 C   -6.271665   -3.350837   -0.739081
 C   -6.126523   -3.521434    1.667371
 N    6.002017   -2.133851    0.384814
 C    4.835481   -2.915431   -1.665879
 C   -6.503828   -4.056654    0.411359
 C    6.006601   -3.126006   -0.701618
 C    6.504294   -0.864140    0.117936
 N    7.641501   -0.857010   -0.681759
 N    6.011295    0.265277    0.502941
 H    0.719287    2.924537    2.150564
 H    2.520793    4.088523   -0.094646
 H    2.273884    3.103470   -1.549320
 H    0.577896    5.453319    2.085373
 H    0.675371    5.395549    0.261143
 H   -1.403876    4.009635    0.163443
 H   -1.537561    4.059533    1.990635
 H   -1.230133    1.484117    0.953511
 H   -1.889608    1.585950   -1.933389
 H   -2.049554   -0.738569    0.189906
 H   -0.911017   -0.699843   -1.173066
 H    5.140898    1.622360   -0.297566
 H    1.416843   -0.710643   -0.587303
 H   -4.346372    0.153303    1.570130
 H   -4.643403    0.513008   -2.696737
 H    1.953465   -2.796690    1.403401
 H    2.396168   -1.180340    1.930867
 H   -5.706923   -1.721744   -2.831942
 H    3.719894   -0.875537   -0.188733
 H   -5.231256   -1.869096    2.696736
 H    4.650831   -3.237649    1.511307
 H    4.802908   -1.561789    2.014716
 H    3.282451   -3.883607   -0.507996
 H    2.682512   -2.639995   -1.603288
 H   -6.560945   -3.756094   -1.706238
 H   -6.318428   -4.092069    2.572122
 H    4.986501   -1.968919   -2.200976
 H    4.834389   -3.708524   -2.422669
 H   -6.980598   -5.032756    0.369077
 H    5.927610   -4.112566   -0.229552
 H    6.959592   -3.093003   -1.232166
 H    8.043338    0.072021   -0.715936
 H    8.328717   -1.560495   -0.438907
 H    5.236886    0.157851    1.149471
