56 
4axm_ligand_ani.xyz
 C   -2.394687   -3.558823    1.801036
 N   -3.569216   -3.785158    2.211011
 C   -1.993756   -2.385330    0.979564
 N   -0.707792   -2.316275    0.646099
 C   -0.380001   -1.224344   -0.076404
 N    0.914500   -1.063561   -0.455993
 C    1.885652   -2.111673   -0.122376
 C    3.297367   -1.550481    0.069635
 C    4.288411   -2.647150    0.462785
 C    4.305112   -3.756957   -0.592112
 C    2.901669   -4.332896   -0.799746
 C    1.888257   -3.243636   -1.163223
 C    1.275346    0.022449   -1.365145
 C    1.805102    1.275372   -0.683506
 C    3.093472    1.745050   -0.943818
 C    3.591742    2.885994   -0.321980
 C    2.782338    3.570910    0.574043
Cl    3.391279    4.996232    1.367934
 C    1.489815    3.136679    0.840177
 C    1.006524    1.997834    0.206598
 N   -1.256648   -0.279095   -0.441883
 C   -2.524226   -0.470755   -0.061943
 N   -3.425900    0.482815   -0.407789
 C   -4.853245    0.249849   -0.253337
 C   -5.539103    1.573817    0.054345
 O   -5.235560    2.542883   -0.927863
 C   -3.847556    2.801962   -0.974389
 C   -3.065137    1.547010   -1.333740
 N   -2.955849   -1.523397    0.660743
 H   -1.581167   -4.245848    2.045388
 H   -4.186114   -3.028422    1.881130
 H    1.559268   -2.532558    0.833960
 H    3.272440   -0.750392    0.818298
 H    3.644424   -1.106236   -0.871860
 H    4.001481   -3.069726    1.436893
 H    5.290447   -2.220098    0.589479
 H    5.009212   -4.549873   -0.311736
 H    4.665106   -3.337475   -1.542947
 H    2.575347   -4.826636    0.127986
 H    2.913213   -5.107451   -1.575868
 H    2.134301   -2.816966   -2.147525
 H    0.880959   -3.670435   -1.233067
 H    0.387162    0.270556   -1.954538
 H    2.030486   -0.354638   -2.062992
 H    3.731428    1.213104   -1.648176
 H    4.597204    3.239993   -0.527276
 H    0.868079    3.690154    1.536987
 H   -0.013841    1.672677    0.394906
 H   -5.009395   -0.466724    0.553969
 H   -5.272862   -0.175276   -1.177463
 H   -5.230092    1.930479    1.049496
 H   -6.626490    1.451747    0.052982
 H   -3.501008    3.190905   -0.003897
 H   -3.695069    3.577598   -1.730838
 H   -3.292514    1.248816   -2.367877
 H   -1.991493    1.737116   -1.261467
