26 
4ayq_ligand_xtb.xyz
 C   -0.723647    1.017560    0.198784
 N    0.576036    0.695456    0.394296
 C   -1.224416   -1.372420   -0.216115
 C   -0.004479   -1.659329    0.671061
 C    1.124914   -0.633602    0.450711
 C    1.951129   -0.921845   -0.812497
 C    0.343977    2.857109    0.212180
 C    1.269773    1.874674    0.405103
 N   -0.895462    2.311506    0.085730
 O   -0.852738   -1.417840   -1.567603
 O   -2.758782    0.344362   -0.855276
 O   -0.466496   -1.643297    1.999630
 C   -1.813732    0.003677    0.138054
 O    3.192413   -0.266481   -0.671544
 H   -1.984790   -2.140284   -0.006482
 H    0.380501   -2.655757    0.407552
 H    1.820684   -0.683172    1.301511
 H    1.405191   -0.567638   -1.692998
 H    2.097417   -2.005999   -0.908383
 H    0.481950    3.917821    0.158592
 H    2.331179    1.898516    0.533522
 H   -1.558271   -0.952826   -2.043718
 H   -2.826176    1.308465   -0.852752
 H    0.254453   -1.887514    2.591592
 H   -2.305795   -0.067479    1.121771
 H    3.683356   -0.341765   -1.495720
