79 
4ayy_ligand_ani.xyz
 C    4.063247   -2.445974    0.821779
 C    5.205410   -1.520242    0.384158
 C    4.719614   -0.082491    0.189341
 C    6.326874   -1.576737    1.426617
 N    5.844817    0.809717   -0.076379
 C    7.446829   -0.591304    1.108043
 C    6.870287    0.808347    0.968453
 C    5.567812    1.988607   -0.731921
 N    6.691516    2.691328   -1.145655
 N    4.355649    2.388797   -0.909674
 N   -1.766610   -3.031288   -0.726977
 C   -0.754706   -2.000560   -0.485343
 C   -1.097907   -0.818372   -1.409674
 O   -1.375214   -1.052809   -2.577079
 C    0.636291   -2.560319   -0.824075
 C    1.722465   -2.103293    0.141106
 O    1.500265   -1.385657    1.106067
 N    2.973600   -2.570166   -0.129314
 S   -3.108328   -3.122108    0.257654
 O   -3.969386   -4.110664   -0.364317
 O   -2.615956   -3.261577    1.615497
 C   -3.774133   -0.631408    1.172014
 C   -3.926817   -1.544151    0.157002
 C   -4.735948   -1.263639   -0.960214
 C   -5.370225   -0.049427   -1.049927
 C   -5.869181    2.200521   -0.092554
 C   -5.706809    3.129253    0.906594
 C   -4.914049    2.826563    2.032666
 C   -4.297884    1.602306    2.128121
 C   -4.428973    0.628624    1.101954
 C   -5.233649    0.929470   -0.027712
 N   -1.127141    0.458193   -0.900762
 C   -0.194887    0.894941    0.135863
 C   -0.737049    2.124428    0.867093
 C   -1.122745    3.248589   -0.092800
 C   -2.106230    2.689795   -1.118245
 C   -1.519171    1.504530   -1.859247
 C    1.208296    1.084235   -0.462584
 O    2.025973    1.765225    0.325359
 O    1.521688    0.630797   -1.544055
 C   -1.714499    4.443769    0.653997
 H    4.473085   -3.442008    1.032847
 H    3.626506   -2.059385    1.747033
 H    5.604738   -1.865293   -0.580395
 H    4.163292    0.257545    1.082055
 H    4.036796   -0.027887   -0.661009
 H    6.719348   -2.599973    1.489179
 H    5.902322   -1.340740    2.415580
 H    8.213317   -0.601468    1.891907
 H    7.937085   -0.872555    0.167636
 H    6.433691    1.126934    1.932304
 H    7.644049    1.536690    0.719754
 H    6.494818    3.438332   -1.798486
 H    7.455098    2.107132   -1.463451
 H    4.320728    3.264023   -1.426167
 H   -2.030677   -3.080849   -1.709839
 H   -0.799605   -1.732863    0.571553
 H    0.915511   -2.306962   -1.854655
 H    0.568171   -3.654757   -0.772314
 H    3.101100   -3.170037   -0.929036
 H   -3.168169   -0.867022    2.039345
 H   -4.866614   -2.018098   -1.732449
 H   -5.994608    0.180585   -1.908047
 H   -6.478052    2.425759   -0.963451
 H   -6.190667    4.098685    0.834594
 H   -4.772251    3.569359    2.812842
 H   -3.686282    1.362760    2.993466
 H   -0.083876    0.096432    0.870433
 H    0.001727    2.467625    1.597156
 H   -1.628174    1.806129    1.421960
 H   -0.214796    3.575167   -0.625388
 H   -2.391966    3.469363   -1.835387
 H   -3.023611    2.363917   -0.608244
 H   -0.654952    1.802798   -2.468701
 H   -2.255740    1.058235   -2.528102
 H    2.896734    1.937150   -0.168086
 H   -1.002241    4.848694    1.381161
 H   -2.621945    4.148746    1.196743
 H   -1.986003    5.246599   -0.040312
