46 
4az0_ligand_dft.xyz
 C    3.962284    0.848423    2.368953
 C    3.649290    1.554455    1.073079
 C    4.011394    2.893247    0.905845
 C    3.743822    3.582745   -0.271703
 C    3.098144    2.934163   -1.317556
 C    2.735295    1.600594   -1.168526
 C    3.003305    0.900970    0.010624
 C    2.562341   -0.548606    0.114426
 C    3.183830   -1.442745   -0.969532
 C    4.676876   -1.561434   -0.820545
 O    5.311185   -1.339791    0.184939
 O    5.260962   -1.988199   -1.955745
 N    1.107323   -0.606246    0.044555
 C    0.415053   -1.703561    0.435273
 O    0.941193   -2.754565    0.779095
 C   -1.066079   -1.544523    0.416124
 N   -1.627916   -0.386003    0.101029
 C   -2.012665   -2.546635    0.703051
 C   -3.221565   -1.918205    0.547178
 O   -4.456504   -2.381464    0.785678
 N   -2.959913   -0.617447    0.181279
 C   -3.859650    0.460730    0.032316
 C   -3.552314    1.705397    0.582322
 C   -4.424933    2.774799    0.429686
 C   -5.622933    2.613403   -0.262957
 C   -5.941589    1.381188   -0.822617
 C   -5.049226    0.335021   -0.677890
 F   -5.351212   -0.855734   -1.256637
 H    3.053546    0.473137    2.853183
 H    4.455364    1.527818    3.069764
 H    4.624414   -0.004823    2.192414
 H    4.515288    3.404863    1.722064
 H    4.038590    4.623453   -0.370107
 H    2.881673    3.457362   -2.244024
 H    2.231172    1.093659   -1.988744
 H    2.864657   -0.968327    1.076098
 H    2.761384   -2.449023   -0.866016
 H    2.943572   -1.091325   -1.976704
 H    6.208132   -2.068485   -1.758362
 H    0.586992    0.233218   -0.169617
 H   -1.829829   -3.572007    0.979421
 H   -5.049883   -2.106101    0.070920
 H   -2.616556    1.810758    1.118866
 H   -4.172843    3.735843    0.864904
 H   -6.311608    3.444648   -0.370926
 H   -6.858361    1.220429   -1.378490
