46 
4az0_ligand_xtb.xyz
 C    4.336917    0.416124    2.242054
 C    3.794946    1.293047    1.155887
 C    4.158184    2.634642    1.111359
 C    3.686912    3.481871    0.125893
 C    2.830908    2.993519   -0.844750
 C    2.462551    1.661570   -0.816500
 C    2.935180    0.802773    0.169921
 C    2.490999   -0.639653    0.135584
 C    3.005453   -1.354912   -1.131159
 C    4.507199   -1.380390   -1.184299
 O    5.250124   -1.460809   -0.243432
 O    4.956444   -1.312281   -2.444307
 N    1.044897   -0.703681    0.188844
 C    0.371282   -1.841156    0.461269
 O    0.906866   -2.908849    0.690937
 C   -1.095479   -1.647876    0.454365
 N   -1.638426   -0.478960    0.158894
 C   -2.086430   -2.607456    0.732237
 C   -3.278090   -1.939205    0.578610
 O   -4.507332   -2.405684    0.818587
 N   -2.972137   -0.648738    0.225246
 C   -3.775728    0.482090    0.022797
 C   -3.289447    1.716659    0.454176
 C   -4.016758    2.873776    0.260993
 C   -5.250760    2.829892   -0.368199
 C   -5.747209    1.620262   -0.818088
 C   -5.005761    0.470735   -0.628734
 F   -5.509707   -0.697183   -1.110198
 H    3.530391   -0.016411    2.832472
 H    4.979155    0.989031    2.905977
 H    4.919310   -0.396056    1.810451
 H    4.825710    3.021680    1.867966
 H    3.986461    4.519524    0.115774
 H    2.454182    3.643512   -1.620565
 H    1.796015    1.282725   -1.578871
 H    2.878787   -1.195237    0.994062
 H    2.653916   -2.390016   -1.091587
 H    2.625125   -0.891785   -2.041157
 H    5.925796   -1.355441   -2.462000
 H    0.505055    0.118994   -0.031850
 H   -1.943235   -3.629128    1.008222
 H   -5.185151   -1.936014    0.317849
 H   -2.325527    1.735711    0.936552
 H   -3.619421    3.815000    0.606854
 H   -5.822783    3.731835   -0.516158
 H   -6.694781    1.549474   -1.327873
