65 
4az3_ligand_ani.xyz
 C    5.396619   -0.567107    2.620170
 C    5.509427    0.386784    1.455973
 C    6.360499    1.488457    1.549411
 C    6.481314    2.408473    0.511986
 C    5.735042    2.235786   -0.647419
 C    4.882744    1.141796   -0.754432
 C    4.771041    0.205231    0.273076
 C    3.857327   -0.992963    0.070924
 C    4.308069   -1.869405   -1.104395
 C    5.637805   -2.536869   -0.856262
 O    6.164623   -2.694462    0.221667
 O    6.189370   -2.989120   -1.996888
 N    2.499066   -0.512368   -0.142856
 C    1.422726   -1.323499   -0.019795
 O    1.490110   -2.535931    0.146842
 C    0.117878   -0.618451   -0.110592
 N    0.045605    0.699191   -0.230924
 C   -1.150964   -1.230971   -0.090015
 C   -2.015620   -0.169699   -0.214579
 O   -3.340421   -0.088375   -0.346039
 C   -4.051263   -1.308477   -0.117093
 C   -5.526875   -0.930372   -0.142548
 C   -6.503500   -2.100959    0.088560
 C   -6.334615   -3.151967   -1.014868
 C   -6.275598   -2.744731    1.461944
 C   -7.927386   -1.533772    0.029394
 O   -5.764211    0.046563    0.851702
 N   -1.280973    0.980049   -0.250274
 C   -1.702556    2.321571   -0.363216
 C   -1.006335    3.180456   -1.207422
 C   -1.419913    4.497552   -1.359634
 C   -2.514260    4.974221   -0.642210
 C   -3.192331    4.137760    0.238232
 C   -2.773333    2.826685    0.370252
 F   -3.408104    2.029357    1.255974
 H    6.000071   -0.215012    3.461894
 H    4.361213   -0.651957    2.971978
 H    5.745149   -1.566654    2.342296
 H    6.937291    1.625449    2.462111
 H    7.151716    3.258388    0.612022
 H    5.808154    2.951030   -1.462418
 H    4.289667    1.018745   -1.661085
 H    3.865873   -1.634254    0.957206
 H    3.561997   -2.659005   -1.245493
 H    4.350358   -1.298598   -2.035117
 H    7.024984   -3.416418   -1.744972
 H    2.331570    0.485519   -0.214905
 H   -1.344876   -2.291023   -0.003629
 H   -3.801223   -2.028154   -0.902074
 H   -3.766272   -1.710587    0.861845
 H   -5.737700   -0.505909   -1.142434
 H   -5.369680   -3.666830   -0.950623
 H   -6.412380   -2.695892   -2.009429
 H   -7.114690   -3.918206   -0.935063
 H   -6.290486   -1.986523    2.250713
 H   -5.317410   -3.275332    1.510881
 H   -7.062535   -3.479684    1.667982
 H   -8.114698   -1.047476   -0.936090
 H   -8.084257   -0.793578    0.818270
 H   -8.664090   -2.335830    0.150267
 H   -5.063701    0.709624    0.764677
 H   -0.136820    2.792061   -1.729336
 H   -0.878779    5.155136   -2.034083
 H   -2.835140    6.005288   -0.759029
 H   -4.037676    4.480772    0.827309
