30 
4az5_ligand_xtb.xyz
 O    0.717609    1.992908   -1.355649
 C    1.544120    1.210925   -0.499790
 C    0.842756    1.268605    0.878742
 C    1.654985   -0.213449   -1.088374
 O    1.633651    0.930005    1.953365
 C   -0.453795    0.413956    0.816908
 N   -1.453447    1.061437   -0.076818
 C   -0.232497   -0.949966    0.165987
 C   -2.575540    0.129435   -0.393269
 C   -3.765031    0.387806    0.505768
 S   -1.910418   -1.581014   -0.130303
 O    0.374223   -0.822563   -1.092105
 C    2.762265   -1.106530   -0.510106
 O    2.579622   -1.344958    0.873571
 H    1.166418    2.161143   -2.192813
 H    2.540572    1.655825   -0.402020
 H    0.556229    2.317297    1.042999
 H    1.886075   -0.112126   -2.156936
 H    2.063469    0.066148    1.796974
 H   -0.859551    0.292296    1.824823
 H   -0.898254    1.336067   -0.923447
 H   -1.820934    1.922079    0.342023
 H    0.296608   -1.648513    0.820355
 H   -2.845421    0.230808   -1.446363
 H   -3.491266    0.295683    1.553851
 H   -4.535619   -0.350638    0.301293
 H   -4.188069    1.373962    0.323646
 H    2.735042   -2.055206   -1.058308
 H    3.726044   -0.616264   -0.692300
 H    3.305054   -1.890233    1.200159
