40 
4azt_ligand_ani.xyz
 N    2.344231   -0.012463   -0.023556
 C    2.169208    1.294926    0.608520
 C    3.705942   -0.532201    0.009204
 C    1.314562   -0.915665    0.031314
 C    3.235167    2.254596    0.106651
 O    4.532639    1.732717    0.302793
 C    4.692009    0.539849   -0.433352
 C   -3.393076   -2.491328   -0.164302
 C   -2.180046   -3.155085   -0.091242
 C   -3.417948   -1.095000   -0.159902
 C   -0.985473   -2.436708   -0.028607
 C   -1.030806   -1.045565   -0.059794
 C    0.316696   -3.144964    0.085130
 C   -2.248093   -0.344990   -0.116386
 O    0.108467   -0.301460    0.002429
 C   -2.296059    1.142821   -0.101423
 C   -3.123337    1.791302    0.820709
 C   -3.194634    3.178291    0.865227
 C   -1.565263    1.922674   -1.002517
 C   -1.652336    3.309790   -0.974808
 C   -2.460526    3.943445   -0.035548
 C    1.456908   -2.267411    0.111752
 O    0.389825   -4.365933    0.145475
 H    2.241543    1.210903    1.705026
 H    1.179826    1.691077    0.365372
 H    3.790244   -1.374969   -0.683954
 H    3.976816   -0.884054    1.017918
 H    3.186099    3.199888    0.656531
 H    3.073424    2.465877   -0.962098
 H    4.564455    0.740611   -1.508764
 H    5.717583    0.195695   -0.267716
 H   -4.321609   -3.052052   -0.209771
 H   -2.121562   -4.240405   -0.075709
 H   -4.371212   -0.574678   -0.208468
 H   -3.701271    1.195619    1.525064
 H   -3.833740    3.662002    1.599222
 H   -0.926795    1.445663   -1.741346
 H   -1.077233    3.897481   -1.685957
 H   -2.519944    5.028185   -0.007582
 H    2.428947   -2.734847    0.217786
