61 
4b00_ligand_dft.xyz
 C    0.377476    3.843586    2.435699
 C   -0.694766    4.038956    1.370074
 N   -0.542474    3.089028    0.264977
 C   -1.212300    1.899010    0.297659
 C   -1.063360    0.961394   -0.672983
 C   -0.173208    1.271252   -1.749450
 C    0.516770    2.440110   -1.805966
 C    0.370825    3.427890   -0.742397
 O    0.988083    4.487685   -0.695510
 C    1.473097    2.794388   -2.904026
 C   -1.822255   -0.364604   -0.688347
 C   -2.643814   -0.590941    0.576196
 C   -2.206287   -0.864454    1.864167
 C   -3.163967   -1.014762    2.865959
 C   -4.526831   -0.901195    2.587688
 C   -4.929870   -0.639633    1.287458
 C   -3.996457   -0.485467    0.275045
 C   -4.159493   -0.212086   -1.174023
 N   -2.882236   -0.341921   -1.698658
 N   -5.175350    0.081756   -1.883627
 F   -6.238347   -0.534690    1.010688
 C   -0.855838   -1.536322   -0.903379
 C   -1.252065   -2.675112   -1.601917
 C   -0.370298   -3.741761   -1.747818
 C    0.910369   -3.681319   -1.209225
 C    1.321193   -2.547978   -0.501879
 C    0.421530   -1.490823   -0.349836
 C    2.688839   -2.435158    0.057374
 C    3.391644   -1.232304    0.004791
 C    4.674557   -1.154594    0.550977
 C    5.205977   -2.317638    1.126700
 N    4.551987   -3.474185    1.186423
 C    3.325495   -3.521415    0.666662
 C    5.424575    0.063140    0.519994
 C    6.048426    1.096965    0.493604
 C    6.802055    2.346794    0.461825
 H    1.367779    3.987632    1.996530
 H    0.322968    2.839175    2.869072
 H    0.246332    4.573914    3.240110
 H   -0.626156    5.039485    0.941483
 H   -1.697054    3.905164    1.786742
 H   -1.866803    1.759798    1.150613
 H   -0.031887    0.533683   -2.537758
 H    2.479442    2.948246   -2.500081
 H    1.511548    2.010109   -3.664794
 H    1.182658    3.737897   -3.377502
 H   -1.148503   -0.968027    2.083999
 H   -2.850364   -1.228519    3.882865
 H   -5.275406   -1.020898    3.362850
 H   -2.707171    0.098130   -2.591010
 H   -6.012405    0.094450   -1.305704
 H   -2.245800   -2.712563   -2.035725
 H   -0.679473   -4.622552   -2.302512
 H    1.604694   -4.502082   -1.364704
 H    0.731089   -0.610879    0.207028
 H    2.956992   -0.357934   -0.471421
 H    6.204683   -2.297935    1.556191
 H    2.807801   -4.474879    0.754449
 H    6.143043    3.192561    0.240838
 H    7.285868    2.534646    1.425841
 H    7.580978    2.313833   -0.307048
