24 
4b0b_ligand_ani.xyz
 N   -1.465539   -0.248498    0.834203
 C   -1.559943   -0.006649   -0.460135
 C   -2.768560    0.093448   -1.160966
 C   -3.939842   -0.070185   -0.451110
 C   -3.868261   -0.332970    0.921416
 C   -2.615806   -0.411213    1.501567
 N    3.805837   -1.678554    0.140550
 C    2.938266   -0.596383    0.032703
 C    1.667593   -0.758907   -0.535626
 C    0.791630    0.312139   -0.574290
 C    1.131331    1.561010   -0.068821
 C    2.398373    1.718682    0.486689
 C    3.292894    0.659305    0.543155
 O   -0.431499    0.124995   -1.207315
 H   -2.749376    0.288258   -2.229127
 H   -4.902518    0.001113   -0.951707
 H   -4.764519   -0.471890    1.517568
 H   -2.514288   -0.615087    2.565412
 H    3.660509   -2.421691   -0.527878
 H    4.782735   -1.441108    0.235771
 H    1.363822   -1.717711   -0.946374
 H    0.418955    2.378395   -0.110961
 H    2.692461    2.685349    0.886852
 H    4.276078    0.794103    0.988195
