24 
4b0c_ligand_dft.xyz
 C    5.728033  -36.578550  -10.876244
 C    9.517433  -34.397485   -2.925102
 C    5.203181  -36.536329   -9.442420
 C    6.249961  -36.041245   -8.443938
 C    5.724617  -36.006501   -7.007656
 C    6.695632  -35.418606   -5.986852
 N   10.537789  -35.225558   -2.993325
 N   10.168203  -36.030395   -4.020025
 N    8.520813  -34.611172   -3.829374
 S    8.181646  -36.479575   -5.835906
 C    8.967154  -35.653341   -4.505080
 H    4.961005  -36.934494  -11.571451
 H    6.045836  -35.583374  -11.207701
 H    6.592205  -37.247578  -10.958520
 H    9.481382  -33.601637   -2.194809
 H    4.319545  -35.886104   -9.392702
 H    4.865113  -37.537822   -9.144679
 H    7.137358  -36.685749   -8.504698
 H    6.583559  -35.034352   -8.731682
 H    4.817310  -35.389346   -6.972759
 H    5.423841  -37.014680   -6.694672
 H    7.021410  -34.416386   -6.277478
 H    6.240495  -35.351320   -4.996920
 H   10.770475  -36.782400   -4.316008
