52 
4b1d_ligand_dft.xyz
 C   -3.078354   -2.685180   -2.114510
 C   -2.442537   -2.024359   -0.919305
 C   -2.067180   -0.679271   -0.960827
 C   -1.484585   -0.061157    0.137919
 C   -1.280004   -0.798311    1.305833
 C   -1.645141   -2.137374    1.388823
 C   -2.217152   -2.738248    0.259625
 O   -2.602567   -4.057038    0.348037
 C   -1.639483   -4.971429   -0.145102
 C   -1.444937   -2.934350    2.650760
 C   -1.107290    1.420915    0.127894
 N   -1.205203    1.985632   -1.223912
 C   -2.108989    2.885189   -1.225375
 C   -2.787602    3.031115    0.106163
 N   -2.056046    2.200374    0.919250
 N   -3.801011    3.713784    0.468768
 C   -2.487422    3.691929   -2.420834
 C    0.337068    1.618230    0.599183
 C    0.675625    2.584896    1.539473
 C    2.005365    2.744196    1.925738
 C    2.996727    1.940356    1.380757
 C    2.669507    0.967895    0.427565
 C    1.337522    0.823499    0.042217
 C    3.710162    0.088824   -0.147907
 C    3.496106   -1.274019   -0.365763
 N    4.420417   -2.082598   -0.882236
 C    5.589352   -1.514796   -1.178818
 N    5.922292   -0.234601   -1.017958
 C    4.976313    0.553277   -0.508451
 H   -2.323423   -3.135409   -2.770716
 H   -3.634421   -1.956320   -2.711113
 H   -3.763263   -3.477828   -1.802965
 H   -2.226544   -0.113729   -1.873456
 H   -0.813036   -0.324544    2.167251
 H   -1.460396   -4.827410   -1.218109
 H   -2.044538   -5.971260    0.020988
 H   -0.684351   -4.871752    0.386728
 H   -0.693512   -3.720654    2.515342
 H   -1.109820   -2.290505    3.468575
 H   -2.373046   -3.428908    2.951554
 H   -2.492393    1.802457    1.737779
 H   -4.159229    4.254555   -0.317449
 H   -1.879635    3.400588   -3.278738
 H   -3.546097    3.542965   -2.662265
 H   -2.342558    4.759732   -2.222229
 H   -0.102680    3.208310    1.966412
 H    2.264813    3.492652    2.668216
 H    4.025730    2.047185    1.712821
 H    1.068818    0.089719   -0.712495
 H    2.544585   -1.731694   -0.098936
 H    6.353042   -2.166710   -1.595860
 H    5.230913    1.605767   -0.393362
