15 
4b2d_ligand_xtb.xyz
 N   -0.547632    1.554741    0.174244
 C   -0.194778    0.224945    0.734246
 C    1.107748   -0.295180    0.080069
 O    1.786009    0.701371   -0.487063
 C   -1.358235   -0.732263    0.419026
 O   -1.806151   -0.366588   -0.871013
 O    1.437829   -1.434462    0.113522
 H    0.304508    2.023923   -0.167255
 H   -1.052854    2.153903    0.833946
 H   -1.169713    1.314773   -0.632887
 H   -0.015053    0.275680    1.811406
 H    2.620905    0.390493   -0.877577
 H   -0.987044   -1.760766    0.452685
 H   -2.164240   -0.616268    1.154098
 H   -2.372997   -1.052498   -1.237740
