19 
4b33_ligand_dft.xyz
 O   -1.650113   -2.099797    0.000088
 C   -1.356853   -0.771659    0.000057
 C    0.029005   -0.434111    0.000015
 C    1.040639   -1.426595   -0.000039
 C    2.364386   -1.067426   -0.000024
 C   -2.319187    0.208702    0.000028
 C   -1.942699    1.571208   -0.000032
 C   -0.623246    1.935230   -0.000006
 C    0.391157    0.940482    0.000004
 C    1.770508    1.274140    0.000001
 C    2.732781    0.297440    0.000017
 H   -2.608403   -2.208977   -0.000692
 H    0.748420   -2.470887   -0.000065
 H    3.134952   -1.832462   -0.000056
 H   -3.373147   -0.060754    0.000029
 H   -2.719534    2.329931   -0.000066
 H   -0.335925    2.982756   -0.000034
 H    2.051512    2.324210   -0.000001
 H    3.784080    0.570100    0.000062
