16 
4b34_ligand_ani.xyz
 C   -1.611400   -1.325251    0.003873
 N    0.946169    1.304942   -0.009361
 S    1.230424   -1.293487   -0.009399
 C   -2.779252   -0.576196    0.007814
 N    3.181827    0.597631   -0.057580
 C   -2.731487    0.824432    0.006533
 C   -1.519713    1.496854    0.001850
 C   -0.333430    0.758686   -0.001968
 C   -0.398033   -0.644759   -0.001412
 C    1.829634    0.366238   -0.007364
 H   -1.646888   -2.411294    0.004724
 H   -3.741352   -1.081223    0.011914
 H    3.417051    1.563551    0.126817
 H    3.778456   -0.068794    0.409718
 H   -3.657942    1.393081    0.009093
 H   -1.469987    2.582447    0.000744
