22 
4b35_ligand_ani.xyz
 C   23.291713    3.606875   -4.173026
 O   22.129679    4.143481   -3.538657
 C   22.045428    5.485760   -3.558952
 O   22.887740    6.186578   -4.073993
 C   20.812960    5.982492   -2.882214
 C   19.895597    5.105769   -2.315300
 C   18.738978    5.579071   -1.680563
 C   18.466463    6.934927   -1.594084
 C   19.389567    7.813886   -2.164392
 C   20.566007    7.368835   -2.811847
 C   21.260121    8.543785   -3.266871
 C   20.511301    9.620555   -2.894962
 N   19.384245    9.188661   -2.231100
 H   23.208629    2.525106   -4.070597
 H   23.320278    3.893064   -5.227112
 H   24.198552    3.971648   -3.684762
 H   20.085955    4.039768   -2.369686
 H   18.043683    4.864230   -1.248306
 H   17.567903    7.297993   -1.100625
 H   18.665781    9.783641   -1.851829
 H   22.198061    8.541628   -3.801008
 H   20.684361   10.677245   -3.047114
