17 
4b3c_ligand_ani.xyz
 O   27.095374   86.586910    0.254116
 C   26.261645   86.744172   -0.814404
 C   26.347124   87.863052   -1.667845
 C   25.493347   88.005895   -2.748131
 C   24.544436   87.004111   -2.964369
 N   23.579200   86.874886   -3.939178
 C   25.319922   85.749909   -1.028858
 C   24.447884   85.878334   -2.117646
 C   23.376603   85.066168   -2.632240
 C   22.881533   85.704128   -3.730098
 H   27.697985   87.339021    0.292249
 H   27.098638   88.627689   -1.472824
 H   25.563930   88.870887   -3.402961
 H   25.282195   84.900913   -0.351348
 H   23.030213   84.126299   -2.224019
 H   22.076295   85.422593   -4.396257
 H   23.409676   87.529032   -4.685187
