47 
4b4g_ligand_dft.xyz
 C    2.285808   -2.509732    1.217700
 C    3.572160   -2.055050    0.935628
 C    3.833840   -1.425095   -0.276359
 C    2.804002   -1.244583   -1.198323
 C    1.519039   -1.692703   -0.914107
 C    1.253460   -2.336613    0.296906
 C   -0.129033   -2.885259    0.582318
 N   -1.199898   -1.921485    0.331378
 C   -1.328775   -0.819533    1.175195
 N   -0.632275   -0.586118    2.215089
 C   -1.990936   -2.147921   -0.794295
 O   -1.802860   -3.076802   -1.550335
 N   -3.049456   -1.278777   -0.986488
 C   -3.269730   -0.061421   -0.376631
 O   -4.144161    0.685346   -0.738641
 C   -2.389251    0.229491    0.837524
 N   -1.856095    1.575651    0.761378
 C   -1.992026    2.461122    1.909686
 S   -0.697295    1.903819   -0.386403
 O   -0.862828    3.281103   -0.815847
 O   -0.793192    0.795025   -1.333356
 C    0.890408    1.798007    0.449198
 C    2.035216    2.144584   -0.496436
 C    3.385170    2.072908    0.218503
 C    4.553107    2.264804   -0.745954
 H    2.087796   -3.010545    2.163479
 H    4.365934   -2.193926    1.663322
 H    4.834707   -1.068612   -0.501456
 H    3.002499   -0.754420   -2.146889
 H    0.720788   -1.539076   -1.633516
 H   -0.206453   -3.234198    1.618291
 H   -0.335686   -3.736681   -0.066797
 H    0.094195   -1.279907    2.377939
 H   -3.588401   -1.461514   -1.823931
 H   -3.081397    0.236683    1.685760
 H   -1.639144    3.455222    1.628601
 H   -3.052151    2.549766    2.163542
 H   -1.431318    2.087741    2.774074
 H    0.841095    2.490079    1.296305
 H    0.975363    0.779572    0.835414
 H    1.880807    3.145327   -0.914612
 H    2.023162    1.437714   -1.333558
 H    3.422470    2.837195    1.005486
 H    3.479262    1.100708    0.717296
 H    4.490557    3.232504   -1.255865
 H    5.513586    2.221162   -0.222583
 H    4.552697    1.483793   -1.515234
