39 
4b5d_ligand_ani.xyz
 O    0.615610   -2.226753   -0.512232
 C    1.703795   -2.844987    0.180594
 C    3.017265   -2.090848   -0.013660
 C    2.894495   -0.640970    0.390911
 C    3.855425    0.424827   -0.041907
 C    2.473070    0.391388   -0.629050
 C    1.378848    1.342725   -0.295054
 C    1.503646    2.381676    0.626674
 N    0.491251    3.160673    1.009266
 C   -0.710964    2.922948    0.493818
 C   -0.948050    1.920849   -0.447627
 O   -2.209423    1.720939   -0.950228
 C   -3.016984    0.832912   -0.178567
 C   -2.662293   -0.629581   -0.383603
 C   -3.716147   -1.655241    0.097930
 C   -2.571319   -2.350337    0.869967
 N   -1.613436   -1.234648    0.545169
 C    0.121213    1.148254   -0.872593
 H    0.812634   -2.260234   -1.460556
 H    1.802713   -3.895795   -0.125960
 H    1.431358   -2.837031    1.242281
 H    3.347775   -2.168314   -1.058855
 H    3.785748   -2.587946    0.591674
 H    2.467012   -0.505273    1.383210
 H    4.681189    0.135103   -0.687626
 H    4.110055    1.213344    0.661366
 H    2.423878    0.033974   -1.658435
 H    2.470531    2.608105    1.073494
 H   -1.536532    3.554090    0.822738
 H   -2.963886    1.092974    0.888636
 H   -4.038627    1.007855   -0.529455
 H   -2.347492   -0.776641   -1.417373
 H   -4.486026   -1.212340    0.740296
 H   -4.212022   -2.240754   -0.681464
 H   -2.702058   -2.492948    1.941410
 H   -2.232550   -3.284803    0.425918
 H   -0.688801   -1.495807    0.143937
 H   -1.414707   -0.625234    1.361976
 H   -0.036394    0.380319   -1.625583
