13 
4b5t_ligand_dft.xyz
 C   -2.678175   -0.061484    0.000188
 C   -1.301511   -0.711415   -0.000277
 C   -0.177416    0.279119   -0.000097
 O   -0.304508    1.486981   -0.000002
 C    1.263295   -0.285996    0.000016
 O    2.182057    0.674502    0.000003
 O    1.505481   -1.463624    0.000143
 H   -2.815029    0.567584    0.884032
 H   -2.813596    0.571842   -0.880823
 H   -3.457860   -0.827683   -0.002254
 H   -1.155045   -1.368709   -0.867457
 H   -1.154748   -1.369278    0.866428
 H    1.694879    1.522031   -0.000061
