40 
4b6o_ligand_xtb.xyz
 C    6.058594    0.582207   -0.592089
 O    5.283287   -0.343830    0.130628
 C    3.964058   -0.470768   -0.180616
 C    3.296069    0.267792   -1.150166
 C    1.942711    0.065369   -1.362376
 C    3.254407   -1.425932    0.550516
 C    1.909861   -1.620461    0.324395
 C    1.226766   -0.864230   -0.624859
 C   -0.248090   -1.062412   -0.849307
 C   -1.082981   -0.747420    0.407287
 C   -2.476514   -1.311273    0.265470
 O   -2.903395   -2.223811    0.932005
 C   -3.361356   -0.625345   -0.747508
 O   -4.635416   -1.209811   -0.778499
 C   -3.467952    0.879311   -0.387547
 O   -4.194062    1.554697   -1.378076
 C   -2.080634    1.502335   -0.281070
 C   -1.226623    0.762511    0.746287
 C    0.167804    1.398803    0.833251
 O    0.834717    0.939035    1.898396
 O    0.607818    2.226916    0.088822
 O   -1.864873    0.895370    1.999208
 H    5.690822    1.604930   -0.460534
 H    7.064680    0.506299   -0.182838
 H    6.082980    0.339258   -1.659011
 H    3.810769    1.005964   -1.743530
 H    1.439608    0.659142   -2.110601
 H    3.785683   -2.005690    1.288429
 H    1.383461   -2.374400    0.891124
 H   -0.576102   -0.443164   -1.683787
 H   -0.429989   -2.109621   -1.110118
 H   -0.613060   -1.238094    1.267722
 H   -2.918050   -0.703538   -1.750166
 H   -4.662889   -1.859948   -0.056064
 H   -3.979714    0.958036    0.584057
 H   -5.002969    1.051533   -1.537816
 H   -2.189735    2.540003    0.033076
 H   -1.594648    1.500376   -1.255180
 H    1.715970    1.340950    1.949618
 H   -1.288144    0.536505    2.685741
