36 
4b6p_ligand_dft.xyz
 F    1.363293    2.518076    0.542824
 C    1.929957    1.385134    0.114428
 C    3.259041    1.151180    0.434692
 F    3.949253    2.033661    1.149086
 C    3.868899   -0.018892   -0.002647
 F    5.140105   -0.255711    0.294230
 C    3.145308   -0.937794   -0.750705
 F    3.724824   -2.056183   -1.172742
 C    1.815341   -0.673825   -1.054245
 F    1.146776   -1.580583   -1.775783
 C    1.174266    0.485518   -0.631384
 C   -0.281862    0.743095   -0.925385
 C   -1.154209    0.663003    0.351066
 C   -2.689345    0.700643    0.079773
 O   -3.365655    0.825928    1.313376
 C   -2.986179    1.896749   -0.826910
 O   -3.063074    1.867811   -2.028837
 O   -3.088988    3.031909   -0.108758
 C   -0.854877   -0.597987    1.144050
 O   -0.255360   -0.589779    2.198860
 C   -1.360667   -1.900485    0.560291
 O   -1.073123   -2.980777    1.401053
 C   -2.872754   -1.800542    0.307717
 O   -3.326332   -2.953069   -0.359867
 C   -3.197886   -0.592073   -0.561010
 H   -0.392279    1.738630   -1.365090
 H   -0.627477    0.029935   -1.675973
 H   -0.898237    1.509088    0.996162
 H   -3.159427    1.692625    1.688574
 H   -3.248738    3.754978   -0.736559
 H   -0.875443   -2.054911   -0.415910
 H   -0.643150   -2.600484    2.185856
 H   -3.365855   -1.694977    1.284371
 H   -3.055679   -3.706070    0.183248
 H   -2.761476   -0.721044   -1.555652
 H   -4.280451   -0.519648   -0.692579
