39 
4b6q_ligand_ani.xyz
 C    4.122474    0.332608    1.700682
 C    3.138832   -0.261260    0.825031
 C    1.810230   -0.636606    1.102211
 C    1.019873   -1.192647    0.109248
 C    1.558498   -1.386571   -1.176232
 C    2.857816   -1.027726   -1.478902
 C    3.645127   -0.463010   -0.466503
 S    5.298794    0.074127   -0.588623
 C    5.301008    0.559293    1.079704
 O   -3.009056   -2.489601    0.383724
 C   -2.859279   -1.353123   -0.023405
 C   -1.396823    0.749314    0.087224
 C   -0.251144    1.421435   -0.677245
 C   -1.480212   -0.748779   -0.308276
 O   -0.058061    1.278061   -1.858631
 O    0.482923    2.265300    0.077530
 O   -1.215620    0.807165    1.486595
 C   -2.664221    1.528905   -0.324099
 C   -3.917364    0.904116    0.256391
 O   -5.030137    1.693786   -0.100711
 C   -4.094209   -0.507311   -0.295995
 O   -5.236311   -1.080468    0.278972
 C   -0.405035   -1.603123    0.390880
 H    3.938436    0.570650    2.743656
 H    1.400395   -0.476806    2.097363
 H    0.930108   -1.813678   -1.956955
 H    3.256655   -1.178819   -2.478284
 H    6.200636    0.992329    1.501759
 H   -1.350361   -0.785893   -1.399352
 H    1.167755    2.618088   -0.515864
 H   -0.814498    1.662148    1.697264
 H   -2.583026    2.567611    0.017459
 H   -2.724485    1.552271   -1.419670
 H   -3.814535    0.831777    1.350578
 H   -5.811575    1.209047    0.202678
 H   -4.207440   -0.420636   -1.393156
 H   -4.999245   -2.002127    0.474437
 H   -0.563796   -2.641965    0.086149
 H   -0.589046   -1.557061    1.465800
