46 
4b77_ligand_xtb.xyz
 C   -4.142714   -4.360872    0.400853
 O   -3.370132   -3.757064   -0.607994
 C   -2.896820   -2.498442   -0.401165
 C   -2.132614   -1.958006   -1.437696
 C   -1.599250   -0.693674   -1.327538
 C   -3.120007   -1.735784    0.738885
 C   -2.580648   -0.463552    0.836906
 C   -1.808328    0.069117   -0.181731
 C   -1.232563    1.469166   -0.092934
 C   -2.193249    2.480274   -0.754656
 C   -1.524090    3.291405    1.392549
 N   -1.207501    1.967417    1.274443
 N   -1.459822    4.037556    2.406530
 C    0.194289    1.466144   -0.625332
 C    1.053823    0.498201   -0.117862
 C    0.694979    2.392463   -1.529166
 C    2.022573    2.337412   -1.923767
 C    2.868429    1.368666   -1.421942
 C    2.386137    0.433851   -0.507750
 C    3.260428   -0.608459    0.032752
 C   -2.019729    3.767214    0.050982
 C    2.821092   -1.916972    0.249923
 N    3.604888   -2.856972    0.745981
 C    4.850237   -2.513158    1.021338
 N    5.383741   -1.316714    0.853313
 C    4.595234   -0.373583    0.370673
 H   -5.060887   -3.797459    0.596275
 H   -3.575975   -4.468041    1.331440
 H   -4.401113   -5.348467    0.022217
 H   -1.972354   -2.555504   -2.320962
 H   -1.008931   -0.290850   -2.137486
 H   -3.711676   -2.115544    1.556811
 H   -2.770876    0.122114    1.724240
 H   -2.004716    2.597241   -1.818875
 H   -3.210681    2.104427   -0.633433
 H   -0.640813    1.500188    1.964916
 H   -1.088180    3.592341    3.241888
 H    0.677265   -0.218213    0.599253
 H    0.062640    3.162199   -1.940978
 H    2.396741    3.059711   -2.634148
 H    3.895365    1.319522   -1.751691
 H   -1.262227    4.424508   -0.378967
 H   -2.939729    4.338117    0.152725
 H    1.811242   -2.220995    0.001998
 H    5.494180   -3.284720    1.422355
 H    5.039385    0.608454    0.264579
