46 
4b77_ligand_dft.xyz
 C   -4.610270   -4.039430    0.419935
 O   -3.760619   -3.538465   -0.587290
 C   -3.166688   -2.336824   -0.379085
 C   -2.354195   -1.871013   -1.419279
 C   -1.700033   -0.658131   -1.300426
 C   -3.312139   -1.565279    0.772586
 C   -2.650140   -0.340989    0.872944
 C   -1.834551    0.128697   -0.149265
 C   -1.158440    1.494756   -0.068415
 C   -2.046059    2.582802   -0.727023
 C   -1.243306    3.382173    1.388589
 N   -1.117646    2.001252    1.308311
 N   -1.028633    4.154471    2.377846
 C    0.273086    1.415579   -0.623259
 C    1.116611    0.423713   -0.115647
 C    0.792717    2.304104   -1.562352
 C    2.119615    2.201162   -1.977261
 C    2.943755    1.208938   -1.467768
 C    2.443622    0.302791   -0.525150
 C    3.294643   -0.777974    0.018313
 C   -1.714242    3.869939    0.033575
 C    2.812245   -2.072098    0.228155
 N    3.561977   -3.054727    0.724724
 C    4.825383   -2.737961    1.007138
 N    5.408556   -1.550171    0.848035
 C    4.634136   -0.582591    0.359325
 H   -5.450312   -3.359465    0.611917
 H   -4.066554   -4.214053    1.357321
 H   -4.994495   -4.988638    0.044865
 H   -2.250818   -2.480784   -2.310706
 H   -1.065594   -0.317966   -2.114364
 H   -3.933315   -1.897306    1.596563
 H   -2.778311    0.260755    1.767258
 H   -1.901980    2.639774   -1.808150
 H   -3.088830    2.304848   -0.552269
 H   -0.497170    1.541763    1.962306
 H   -0.693676    3.630800    3.189661
 H    0.723427   -0.279009    0.615968
 H    0.172310    3.085745   -1.987006
 H    2.505446    2.897666   -2.715408
 H    3.966506    1.115234   -1.821544
 H   -0.894046    4.429046   -0.429124
 H   -2.559918    4.552450    0.135694
 H    1.784612   -2.326640   -0.027910
 H    5.447345   -3.533624    1.409743
 H    5.096034    0.397163    0.247306
