44 
4b95_ligand_ani.xyz
 O    3.610861   -1.824035    2.631650
 C    2.523178   -1.846923    1.732096
 C    2.740694   -2.717529    0.489258
 C    1.775882   -2.124714   -0.533302
 C    0.368807   -2.756745   -0.395981
 N   -0.450269   -2.595531   -1.472284
 C   -1.869370   -2.865361   -1.311846
 C   -2.612510   -1.690032   -0.705957
 C   -2.961901   -1.674943    0.644711
 C   -3.628803   -0.589148    1.203952
 C   -3.937930    0.498449    0.398131
Cl   -4.748802    1.878874    1.089309
 C   -3.589779    0.517364   -0.949291
 C   -2.913772   -0.571137   -1.486235
 O    0.036182   -3.365199    0.612448
 N    1.756651   -0.697953   -0.171035
 C    1.156401    0.212048   -0.976768
 C    1.086102    1.628605   -0.465012
 C    2.191366    2.482918   -0.409958
Cl    3.738505    1.974387   -1.029613
 C    2.083168    3.768536    0.109013
 C    0.852374    4.217077    0.571560
 C   -0.266819    3.392731    0.502770
 C   -0.145066    2.111847   -0.022091
 O    0.633665   -0.105915   -2.044213
 C    2.337311   -0.449259    1.148659
 H    3.657974   -2.686562    3.060917
 H    1.597284   -2.165248    2.228785
 H    2.540744   -3.774499    0.676938
 H    3.775606   -2.602126    0.146728
 H    2.120491   -2.226460   -1.568241
 H   -0.197355   -1.835464   -2.098053
 H   -1.968397   -3.748354   -0.676014
 H   -2.279537   -3.112390   -2.298132
 H   -2.702472   -2.524642    1.271990
 H   -3.907743   -0.583673    2.253311
 H   -3.832810    1.383256   -1.558917
 H   -2.615901   -0.544409   -2.532974
 H    2.961204    4.405642    0.146334
 H    0.768451    5.219854    0.980740
 H   -1.230766    3.748292    0.857100
 H   -1.015528    1.462527   -0.088199
 H    3.307185    0.053245    1.078704
 H    1.670281    0.178456    1.746051
