111 
4b9h_ligand_ani.xyz
 C    9.150258    0.409387    0.409359
 C    8.268520   -0.758961    0.888778
 C    6.889802   -0.683168    0.227225
 C    6.271602    0.707283    0.488849
 C    7.283195    1.818955    0.160028
 C    6.853727    3.213709    0.613774
 C    9.192581   -2.713617   -0.382018
 C    9.533215   -4.181166   -0.263157
 N    8.898314   -2.072562    0.774562
 O    9.361133    0.463431   -0.963879
 O    6.116768   -1.720214    0.781980
 O    5.132870    0.904552   -0.347346
 O    8.521513    1.591115    0.825871
 O    5.651461    3.639508    0.002708
 O    9.213894   -2.155198   -1.479965
 C    3.874524    0.710657    0.235286
 C    2.802319    1.384828   -0.617439
 C    1.366699    1.033313   -0.170332
 C    1.214587   -0.443614    0.208968
 C    2.397304   -0.968547    1.005932
 C    2.348137   -2.481062    1.180489
 C    2.619553    3.665227   -1.557398
 C    3.231993    5.046206   -1.538244
 N    3.042036    2.823841   -0.584599
 O    0.452767    1.284245   -1.212355
 O    0.083349   -0.662406    1.039862
 O    3.609761   -0.669046    0.313827
 O    2.180338   -3.158225   -0.048416
 O    1.798071    3.328448   -2.412187
 C   -1.151174   -0.475055    0.431606
 C   -2.150541   -1.503339    0.971528
 C   -3.521737   -1.296551    0.314683
 C   -3.944745    0.171511    0.400075
 C   -2.798970    1.126762    0.030566
 C   -3.115866    2.596214    0.332257
 C   -1.210162   -3.386484   -0.341378
 C   -0.588642   -4.761457   -0.236950
 N   -1.685054   -2.874880    0.837255
 O   -4.503448   -2.057940    0.989334
 O   -5.004126    0.449712   -0.510722
 O   -1.640518    0.801796    0.776931
 O   -4.144791    3.108604   -0.491845
 O   -1.335165   -2.790787   -1.401050
 C   -6.277809   -0.000544   -0.141298
 C   -7.294016    1.133267   -0.376592
 C   -8.698520    0.631384   -0.036664
 C   -8.979819   -0.645905   -0.816358
 C   -7.861920   -1.668411   -0.601879
 C   -8.044853   -2.927883   -1.447419
 C   -6.720375    2.359547    1.694467
 C   -6.086912    3.634753    2.211527
 N   -6.959734    2.356281    0.344386
 O   -9.700528    1.554367   -0.418965
 O  -10.201047   -1.230542   -0.408869
 O   -6.615044   -1.089834   -0.965470
 O   -9.074275   -3.745790   -0.949901
 O   -7.033556    1.428848    2.420336
 H   10.118686    0.367646    0.939355
 H    8.119261   -0.613930    1.961621
 H    6.993876   -0.798917   -0.864435
 H    5.990597    0.770827    1.551334
 H    7.439364    1.812174   -0.928261
 H    6.698901    3.203768    1.699955
 H    7.673189    3.908916    0.393916
 H   10.540544   -4.332910   -0.660557
 H    9.488781   -4.564258    0.760320
 H    8.844364   -4.751468   -0.892269
 H    8.795445   -2.662333    1.586992
 H    9.413229   -0.459657   -1.306547
 H    5.199696   -1.576005    0.493463
 H    5.594829    3.193134   -0.857346
 H    3.872367    1.133379    1.255345
 H    2.918552    1.016021   -1.645309
 H    1.116022    1.633167    0.719220
 H    1.116079   -1.017323   -0.722853
 H    2.414874   -0.482426    1.993209
 H    3.262958   -2.813112    1.698453
 H    1.491309   -2.751072    1.802666
 H    3.445770    5.390803   -0.522927
 H    2.549328    5.739458   -2.033222
 H    4.174673    5.047474   -2.097837
 H    3.779773    3.158718    0.025681
 H    0.778208    2.043375   -1.743188
 H    2.941807   -2.940577   -0.602208
 H   -1.062473   -0.566924   -0.664781
 H   -2.255353   -1.307253    2.043049
 H   -3.464971   -1.577811   -0.747394
 H   -4.272699    0.372943    1.429922
 H   -2.579947    1.020778   -1.047679
 H   -2.208959    3.190495    0.174541
 H   -3.393166    2.686999    1.393486
 H    0.072745   -4.839617    0.632085
 H   -1.369847   -5.524501   -0.145617
 H   -0.015511   -4.950932   -1.145660
 H   -1.404212   -3.339120    1.687270
 H   -4.300273   -2.988058    0.827334
 H   -4.605355    2.329358   -0.844726
 H   -6.292859   -0.304486    0.918885
 H   -7.267084    1.373336   -1.446105
 H   -8.758705    0.416446    1.040653
 H   -9.012950   -0.389788   -1.886862
 H   -7.842661   -1.965716    0.463965
 H   -8.215238   -2.637254   -2.498851
 H   -7.118519   -3.507661   -1.412975
 H   -5.320411    4.004085    1.522072
 H   -5.644776    3.431925    3.188663
 H   -6.849620    4.413470    2.328540
 H   -6.447367    3.053253   -0.180089
 H   -9.552935    2.362446    0.089728
 H  -10.884110   -0.551994   -0.497912
 H   -9.841303   -3.168660   -0.815998
