58 
4b9k_ligand_ani.xyz
 N   -0.560225    5.222323   -0.557419
 C   -0.492449    3.852033   -0.295388
 C    0.610472    3.108197   -0.763424
 C    1.637398    3.808832   -1.622910
 C    0.711668    1.766424   -0.389449
 C    1.899859    0.939650   -0.822133
 N    2.660950    0.404547    0.165944
 C    3.731370   -0.549014   -0.173807
 C    3.110479   -1.931139   -0.477568
 N    2.559042   -2.053152   -1.719917
 C    1.536255   -3.070935   -1.920097
 C    0.193497   -2.624944   -1.375753
 C   -0.526072   -1.611809   -2.015169
 C   -1.712629   -1.136948   -1.478387
 C   -2.214209   -1.644074   -0.272886
 C   -3.435265   -1.087208    0.329300
 C   -4.524819   -0.506147   -0.270740
 C   -4.800564   -0.421897   -1.742041
 N   -5.453319    0.020603    0.598972
 C   -5.108647   -0.185945    1.831205
 S   -3.634710   -1.048923    2.046574
 C   -1.485632   -2.650515    0.374462
 C   -0.303040   -3.128445   -0.171848
 O    3.099664   -2.831529    0.349483
 C    4.599575   -0.575387    1.079830
 C    3.627024   -0.226497    2.211808
 O    4.228724    0.358857    3.345972
 C    2.693038    0.797264    1.573815
 O    2.180972    0.753368   -2.010338
 C   -0.288384    1.157211    0.372517
 C   -1.393404    1.888854    0.786106
 C   -1.488195    3.236310    0.466302
 H   -0.098081    5.524416   -1.402071
 H   -1.484394    5.619134   -0.477292
 H    1.171986    4.237747   -2.520625
 H    2.419723    3.128907   -1.963494
 H    2.107557    4.631976   -1.070566
 H    4.263107   -0.186920   -1.061035
 H    2.433496   -1.179003   -2.225245
 H    1.871571   -3.981898   -1.418584
 H    1.475945   -3.277305   -2.994981
 H   -0.154163   -1.175028   -2.940300
 H   -2.235340   -0.330742   -1.983562
 H   -4.386365    0.499521   -2.171244
 H   -5.879561   -0.400076   -1.908689
 H   -4.372468   -1.273525   -2.280117
 H   -5.696062    0.139089    2.681346
 H   -1.851429   -3.056766    1.314489
 H    0.257775   -3.893320    0.361376
 H    5.372048    0.200189    1.023357
 H    5.078674   -1.546324    1.223440
 H    3.052174   -1.124039    2.479487
 H    4.747680   -0.321076    3.792428
 H    1.696071    0.777455    2.021234
 H    3.104245    1.806957    1.702129
 H   -0.206153    0.099208    0.613943
 H   -2.179895    1.405123    1.360498
 H   -2.336774    3.830018    0.802425
