88 
4b9z_ligand_ani.xyz
 C   -5.010788    0.364730    0.807895
 C   -6.375354    1.075537    0.810838
 C   -6.532882    2.041558   -0.352534
 C   -5.418204    3.086028   -0.312004
 C   -4.063240    2.423083   -0.278406
 C   -2.916900    3.275577   -0.739469
 C   -3.926295    1.169002    0.156420
 O   -7.380431    0.075093    0.765138
 O   -7.813332    2.645287   -0.208676
 O   -5.491901    3.942822   -1.440064
 O   -1.663182    2.746436   -0.292599
 C   -1.389620   -2.778614    0.159996
 C   -2.292482   -3.046147   -1.049912
 C   -3.368381   -1.978082   -1.019285
 C   -4.136831   -2.018530    0.305445
 C   -3.173244   -1.900430    1.500435
 C   -3.836292   -2.242135    2.824403
 N   -5.226205   -1.016293    0.228246
 O   -1.589669   -2.929197   -2.268680
 O   -4.333248   -2.124909   -2.045547
 O   -2.123203   -2.871257    1.345618
 C    2.969745   -0.017289   -0.782662
 C    2.737317   -1.477104   -1.140215
 C    1.255647   -1.787097   -1.211059
 C    0.577080   -1.381081    0.098880
 C    0.899313    0.097877    0.381465
 C    0.368536    0.625055    1.719474
 O    3.290764   -1.813257   -2.399574
 O    1.074329   -3.178672   -1.448040
 O   -0.827324   -1.494177   -0.006244
 O    2.311266    0.285596    0.424975
 O   -1.019571    0.863359    1.727094
 C    7.602720    0.641364    0.458655
 C    7.072394    1.207249   -0.853857
 C    5.806173    2.022675   -0.599014
 C    4.787557    1.209696    0.200487
 C    5.464792    0.639163    1.461928
 C    4.594137   -0.284305    2.309130
 O    8.707658   -0.153359    0.143794
 O    8.023815    2.099314   -1.410152
 O    6.135508    3.161926    0.168812
 O    4.351069    0.146023   -0.627451
 O    6.618724   -0.132147    1.109000
 O    4.364223   -1.528602    1.690754
 H   -4.718407    0.205471    1.852076
 H   -6.475569    1.657712    1.738175
 H   -6.478720    1.495090   -1.305527
 H   -5.543419    3.680350    0.610539
 H   -3.058483    4.292801   -0.354548
 H   -2.944655    3.346023   -1.834008
 H   -2.963623    0.668120    0.104660
 H   -8.216122    0.552016    0.648533
 H   -8.133480    2.875442   -1.088158
 H   -6.291887    4.471957   -1.330407
 H   -0.976595    3.364161   -0.576270
 H   -0.593947   -3.525841    0.228283
 H   -2.753125   -4.042730   -0.958050
 H   -2.868583   -1.005389   -1.131207
 H   -4.605583   -3.005447    0.378270
 H   -2.722183   -0.899223    1.536429
 H   -4.680392   -1.581913    3.051875
 H   -4.211533   -3.269611    2.787838
 H   -3.109102   -2.168540    3.637604
 H   -6.120324   -1.344196    0.640118
 H   -5.417056   -0.924182   -0.796962
 H   -0.669435   -3.205084   -2.104985
 H   -3.838857   -2.130594   -2.876694
 H    2.603204    0.651775   -1.585282
 H    3.175867   -2.076642   -0.330080
 H    0.790166   -1.219881   -2.032563
 H    0.950102   -2.005483    0.926394
 H    0.471656    0.699079   -0.435886
 H    0.574651   -0.112453    2.506756
 H    0.929097    1.537862    1.969596
 H    4.244630   -1.678129   -2.329260
 H    1.726166   -3.425997   -2.122734
 H   -1.207522    1.581972    1.095898
 H    7.892964    1.467975    1.131144
 H    6.862285    0.371030   -1.533825
 H    5.354676    2.307081   -1.560913
 H    3.953910    1.857433    0.495947
 H    5.783928    1.493275    2.082903
 H    3.620796    0.180180    2.489349
 H    5.097481   -0.419162    3.279157
 H    8.875698   -0.727356    0.901709
 H    8.878953    1.647036   -1.381962
 H    6.955907    3.500500   -0.222045
 H    5.186559   -1.751361    1.232949
