63 
4bah_ligand_ani.xyz
 C   -3.068012   -1.080916    0.004270
 C   -3.395935   -2.203933    0.998028
 C   -4.679580   -2.942178    0.606044
 C   -4.597958   -3.479215   -0.825252
 C   -4.245237   -2.367560   -1.816903
 C   -2.950737   -1.656222   -1.413220
 N   -0.526990   -0.919372    0.365905
 C   -1.861629   -0.243791    0.475245
 C   -1.650530    1.037627   -0.365276
 O   -1.004743    0.919317   -1.413223
 N   -2.120075    2.220232    0.090492
 C   -1.627349    3.575770   -0.231029
 C   -0.101555    3.774002   -0.092798
 O    0.389258    4.444094    0.802785
 N    0.630163    3.159751   -1.061628
 C    2.080100    3.117303   -1.001862
 C    2.614711    1.706546   -0.823496
 C    3.522287    1.394803    0.192481
 C    3.985211    0.094820    0.367403
 C    3.563269   -0.935180   -0.475198
 C    2.665492   -0.623159   -1.500886
 C    2.207219    0.674599   -1.677768
 C    4.040765   -2.341796   -0.274794
 N    4.181793   -2.916204    0.862010
 N    4.261527   -3.048742   -1.440132
 C   -2.418815    4.107614    0.972097
 C   -2.714520    2.643088    1.367669
 C    0.453865   -0.463544    1.381482
 C    1.362434   -1.588726    1.802716
 O    2.159907   -1.517468    2.706996
 O    1.186871   -2.675203    1.026971
 H   -3.918376   -0.382072    0.004934
 H   -2.558770   -2.918560    1.024908
 H   -3.488540   -1.795082    2.011992
 H   -5.528163   -2.247086    0.683162
 H   -4.879529   -3.757661    1.311203
 H   -3.824857   -4.260164   -0.873172
 H   -5.542494   -3.960399   -1.107833
 H   -5.062508   -1.632266   -1.845468
 H   -4.154884   -2.773366   -2.831551
 H   -2.692432   -0.865356   -2.126192
 H   -2.123613   -2.382762   -1.442280
 H   -0.215970   -0.594729   -0.584226
 H   -0.553138   -1.951391    0.392759
 H   -2.025727    0.012633    1.526488
 H   -1.955443    3.915473   -1.223051
 H    0.158767    2.438236   -1.597675
 H    2.490520    3.572212   -1.914393
 H    2.383657    3.744997   -0.158953
 H    3.855534    2.175719    0.874294
 H    4.686611   -0.123507    1.171334
 H    2.296921   -1.418257   -2.145036
 H    1.525345    0.874430   -2.502946
 H    3.951221   -2.272159    1.618297
 H    4.566235   -2.508901   -2.239709
 H    4.760322   -3.919884   -1.309689
 H   -1.814727    4.675933    1.676270
 H   -3.305936    4.675936    0.688668
 H   -3.771002    2.370232    1.478755
 H   -2.151783    2.304944    2.248785
 H    1.081098    0.336706    0.983499
 H   -0.048570   -0.081008    2.269548
 H    1.923998   -3.288117    1.218783
