70 
4baq_ligand_dft.xyz
 C    2.352676   -2.041743    0.027579
 C    3.628578   -1.522581    0.708944
 C    4.758852   -2.551734    0.602703
 C    5.022492   -2.947835   -0.852067
 C    3.748540   -3.467386   -1.522203
 C    2.616004   -2.439526   -1.434397
 N    1.329449    0.124850   -0.726705
 C    1.175916   -1.054892    0.179913
 C   -0.155979   -1.693695   -0.240715
 O   -0.599128   -1.468892   -1.372425
 N   -0.728134   -2.509292    0.638435
 C   -1.938960   -3.336545    0.507887
 C   -3.210042   -2.476128    0.415968
 O   -3.836338   -2.158701    1.412794
 N   -3.540558   -2.103528   -0.846287
 C   -4.526863   -1.048235   -1.057796
 C   -3.903240    0.304520   -0.792042
 C   -3.140074    0.927997   -1.779061
 C   -2.418455    2.079267   -1.493541
 C   -2.442132    2.623924   -0.204979
 C   -3.249687    2.031181    0.769121
 C   -3.976062    0.884296    0.476686
 C   -1.496704    3.718338    0.157776
 N   -0.878800    3.796760    1.288012
 N   -1.157456    4.584343   -0.848247
 C   -1.654103   -3.895950    1.918705
 C   -0.444745   -2.934460    2.018266
 C    0.856420    1.435291   -0.209858
 C    3.296659    5.262768    0.147992
 C    2.132708    2.213357    0.169191
 O    3.205985    1.767359   -0.248776
 C    3.083511    4.196613    1.217612
 N    1.967340    3.309988    0.896317
 H    2.043686   -2.950830    0.561318
 H    3.951740   -0.579905    0.248115
 H    3.419413   -1.299239    1.762883
 H    4.488615   -3.446755    1.180049
 H    5.666066   -2.144446    1.059465
 H    5.394572   -2.074658   -1.405215
 H    5.808101   -3.708319   -0.897965
 H    3.937903   -3.711073   -2.572219
 H    3.429353   -4.397921   -1.033667
 H    2.915621   -1.554255   -2.015617
 H    1.704394   -2.831219   -1.899297
 H    2.336759    0.313511   -0.928866
 H    0.809956   -0.145609   -1.579052
 H    1.134512   -0.684967    1.208793
 H   -1.870678   -4.045628   -0.323131
 H   -2.810186   -2.188206   -1.543518
 H   -4.888107   -1.125638   -2.086373
 H   -5.365467   -1.236730   -0.385660
 H   -3.083990    0.493923   -2.773886
 H   -1.803526    2.531954   -2.266540
 H   -3.317053    2.470591    1.760731
 H   -4.577270    0.410704    1.245645
 H   -1.184358    3.055736    1.915487
 H   -0.614359    5.385253   -0.553411
 H   -1.860649    4.791668   -1.542883
 H   -1.387152   -4.952082    1.933308
 H   -2.458101   -3.690077    2.623799
 H    0.532833   -3.408478    2.141449
 H   -0.559454   -2.123866    2.743930
 H    0.329713    1.960265   -1.009181
 H    0.161662    1.292815    0.617755
 H    3.538507    4.799016   -0.812651
 H    2.400544    5.879663    0.025215
 H    4.124043    5.920146    0.430103
 H    3.977627    3.579776    1.329432
 H    2.863755    4.652980    2.186046
 H    1.012075    3.620865    1.122080
