62 
4bbf_ligand_dft.xyz
 O   -6.357107    0.210079   -0.047945
 C   -5.679844   -0.746814   -0.419731
 C   -6.410654   -2.088591   -0.685103
 C   -6.128846   -3.172188    0.372963
 C   -7.188255   -2.913187    1.450094
 C   -8.427205   -2.572804    0.632737
 N   -7.868164   -1.746953   -0.500854
 N   -4.358100   -0.772229   -0.612563
 C   -3.406656    0.276472   -0.439667
 C   -2.073451   -0.043283   -0.702069
 C   -3.756009    1.560925   -0.029256
 C   -2.755889    2.517632    0.103963
 C   -1.418897    2.220599   -0.162702
 C   -1.089911    0.920235   -0.559715
 C   -0.338153    3.234831   -0.029884
 N    0.898019    2.740555    0.084977
 C    1.898224    3.620573    0.184691
 N    1.774119    4.965154    0.193913
 C    0.539953    5.426311    0.076775
 C   -0.580521    4.604465   -0.045512
 N    3.179590    3.173186    0.284404
 C    3.682714    1.856396    0.239169
 C    2.987774    0.748926    0.736834
 C    3.571316   -0.507491    0.707363
 C    4.857036   -0.714516    0.186845
 C    5.545095    0.401396   -0.300136
 C    4.965052    1.664657   -0.270392
 N    5.415275   -2.010164    0.214501
 C    6.839429   -2.132339   -0.057950
 C    7.305883   -3.533912    0.319328
 O    6.580578   -4.525306   -0.375263
 C    5.204084   -4.421303   -0.092007
 C    4.663379   -3.052455   -0.482772
 H   -6.242715   -2.427476   -1.709475
 H   -5.110449   -3.104444    0.761163
 H   -6.258954   -4.164930   -0.067863
 H   -7.356905   -3.778952    2.092133
 H   -6.903577   -2.067744    2.084424
 H   -8.886550   -3.462949    0.198436
 H   -9.183656   -1.988011    1.156333
 H   -8.411762   -1.836488   -1.360057
 H   -7.822380   -0.728769   -0.240095
 H   -3.961671   -1.643124   -0.941917
 H   -1.798833   -1.047027   -1.020005
 H   -4.784425    1.813086    0.187225
 H   -3.037017    3.508724    0.444350
 H   -0.049663    0.681882   -0.752921
 H    0.432798    6.509058    0.073319
 H   -1.567965    5.029228   -0.172427
 H    3.857896    3.921601    0.278019
 H    2.002472    0.879093    1.164012
 H    3.034787   -1.345559    1.142207
 H    6.537012    0.297283   -0.724842
 H    5.518777    2.512478   -0.666045
 H    7.072876   -1.950214   -1.122583
 H    7.385725   -1.400234    0.544981
 H    7.192117   -3.672788    1.406236
 H    8.356889   -3.670406    0.053875
 H    5.021704   -4.590875    0.981753
 H    4.705187   -5.207787   -0.664579
 H    3.605331   -2.989201   -0.216748
 H    4.746117   -2.927687   -1.577090
