52 
4bbg_ligand_ani.xyz
 C    4.579540    1.580963   -1.076706
 C    3.773861    0.815588   -2.129715
 C    2.865939   -0.225094   -1.511657
 C    3.255021   -1.560164   -1.406780
 C    1.627698    0.153465   -0.981256
 C    0.763228   -0.760855   -0.370828
 C    1.205016   -2.087954   -0.252312
 C    2.428808   -2.486988   -0.779410
 C   -0.582715   -0.347524    0.266787
 C   -1.718808   -2.171744   -1.163015
 C   -2.809361   -2.984765   -1.459407
 C   -3.928730   -2.984895   -0.634227
 C   -3.948700   -2.158190    0.484321
 C   -2.857007   -1.347588    0.776131
 C   -1.716533   -1.353305   -0.029674
 S   -0.321245   -0.426033    2.111159
 C    1.059896    0.735319    2.374745
 C    2.282194    0.119383    3.066266
 N    2.917948   -0.965043    2.265204
 C   -1.741522    2.361522   -2.138210
 C   -1.260620    1.171008   -1.609802
 C   -1.073453    1.028321   -0.231833
 C   -1.430463    2.080890    0.605759
 C   -1.910913    3.275462    0.071589
 C   -2.064172    3.424451   -1.303979
 O   -2.222926    4.264109    0.953274
 H    5.192954    2.363583   -1.535286
 H    3.909789    2.055951   -0.349917
 H    5.246267    0.906225   -0.529134
 H    3.168739    1.523049   -2.710668
 H    4.455001    0.333177   -2.840746
 H    4.213862   -1.873877   -1.812071
 H    1.333494    1.201036   -1.049342
 H    0.584924   -2.811385    0.273526
 H    2.740723   -3.524946   -0.699913
 H   -0.858399   -2.194328   -1.828752
 H   -2.781171   -3.623511   -2.338428
 H   -4.779823   -3.620122   -0.864654
 H   -4.818890   -2.141146    1.134982
 H   -2.901589   -0.698582    1.647449
 H    0.686837    1.549084    3.002282
 H    1.348071    1.177564    1.416146
 H    3.015293    0.908171    3.235416
 H    1.992638   -0.287105    4.033955
 H    3.186951   -0.609236    1.326828
 H    2.230732   -1.728941    2.140529
 H    3.753172   -1.332423    2.743512
 H   -1.866596    2.469465   -3.211680
 H   -1.015356    0.345451   -2.275546
 H   -1.356847    2.013265    1.685427
 H   -2.440339    4.358067   -1.719718
 H   -2.531961    5.036638    0.463909
