52 
4bbg_ligand_xtb.xyz
 C    4.648874    1.357468   -0.679094
 C    3.973682    0.587195   -1.817766
 C    2.975990   -0.396982   -1.280329
 C    3.303949   -1.738687   -1.116118
 C    1.708422    0.040270   -0.898410
 C    0.776466   -0.835604   -0.347941
 C    1.133142   -2.175366   -0.183592
 C    2.378967   -2.623187   -0.582933
 C   -0.534305   -0.346883    0.213283
 C   -1.771755   -2.092951   -1.092411
 C   -2.829946   -2.963702   -1.273049
 C   -3.791295   -3.108134   -0.287047
 C   -3.691000   -2.369770    0.878359
 C   -2.635223   -1.493705    1.059745
 C   -1.658773   -1.356725    0.083115
 S   -0.155796   -0.135563    2.054179
 C    0.975646    1.316930    2.048019
 C    2.338980    0.901529    2.597458
 N    2.693689   -0.404364    1.996141
 C   -1.566321    2.233955   -2.344107
 C   -1.011047    1.107924   -1.766111
 C   -1.064057    0.936094   -0.384563
 C   -1.700539    1.889083    0.391917
 C   -2.255015    3.025496   -0.190717
 C   -2.180455    3.198956   -1.567456
 O   -2.841747    3.921932    0.633329
 H    5.378089    2.052618   -1.084392
 H    3.917455    1.932961   -0.112637
 H    5.171945    0.677274   -0.007702
 H    3.473141    1.296439   -2.478292
 H    4.734748    0.063250   -2.395593
 H    4.272979   -2.094365   -1.430328
 H    1.443921    1.073070   -1.073899
 H    0.421907   -2.866015    0.242359
 H    2.628456   -3.667648   -0.483490
 H   -1.031601   -1.987484   -1.871643
 H   -2.902346   -3.529020   -2.189368
 H   -4.615709   -3.789113   -0.429218
 H   -4.437518   -2.468918    1.650999
 H   -2.579289   -0.919629    1.972630
 H    0.535867    2.091880    2.671710
 H    1.040150    1.683551    1.026669
 H    3.096383    1.652326    2.369866
 H    2.276637    0.777914    3.679676
 H    2.976592   -0.307291    1.002092
 H    1.741060   -0.908969    1.996654
 H    3.404707   -0.916292    2.520833
 H   -1.521950    2.359125   -3.414716
 H   -0.551965    0.358338   -2.391014
 H   -1.803935    1.779103    1.459761
 H   -2.612350    4.076688   -2.026412
 H   -3.232812    4.645074    0.127456
