52 
4bbg_ligand_dft.xyz
 C    4.599207    1.403479   -0.772802
 C    3.906471    0.635176   -1.906058
 C    2.922525   -0.378121   -1.371135
 C    3.269180   -1.721418   -1.217704
 C    1.646351    0.038575   -0.958865
 C    0.726156   -0.843543   -0.390632
 C    1.099989   -2.191892   -0.256937
 C    2.352138   -2.624711   -0.674541
 C   -0.586090   -0.346389    0.226832
 C   -1.830455   -2.143137   -1.082148
 C   -2.932067   -2.963769   -1.297814
 C   -3.980309   -2.985101   -0.383918
 C   -3.926078   -2.163508    0.736825
 C   -2.829294   -1.334415    0.948529
 C   -1.756365   -1.330265    0.053133
 S   -0.236129   -0.280330    2.080625
 C    1.067228    0.995672    2.193423
 C    2.372794    0.444696    2.758017
 N    2.848790   -0.721278    1.946848
 C   -1.644292    2.325198   -2.267466
 C   -1.153989    1.147957   -1.721350
 C   -1.052801    1.008024   -0.330148
 C   -1.465638    2.054771    0.484806
 C   -1.957238    3.239300   -0.071603
 C   -2.043672    3.381240   -1.453379
 O   -2.326287    4.206003    0.802073
 H    5.302138    2.142489   -1.166653
 H    3.866540    1.941648   -0.157519
 H    5.168377    0.721825   -0.127653
 H    3.385359    1.343000   -2.559166
 H    4.659813    0.132165   -2.520399
 H    4.245678   -2.068697   -1.545107
 H    1.373009    1.080021   -1.103004
 H    0.402819   -2.901767    0.177091
 H    2.615658   -3.673903   -0.580453
 H   -1.028801   -2.139118   -1.813787
 H   -2.968071   -3.587026   -2.185790
 H   -4.837639   -3.629488   -0.549406
 H   -4.743897   -2.157169    1.450223
 H   -2.827139   -0.674665    1.810384
 H    0.725901    1.793071    2.858373
 H    1.224000    1.448663    1.211738
 H    3.161833    1.199744    2.747217
 H    2.241789    0.079735    3.778716
 H    3.107945   -0.450663    0.984644
 H    2.069524   -1.391529    1.837253
 H    3.644407   -1.199787    2.373867
 H   -1.724944    2.424689   -3.345214
 H   -0.864316    0.333675   -2.377469
 H   -1.452111    1.975389    1.565700
 H   -2.427597    4.298649   -1.891913
 H   -2.695949    4.958348    0.323408
