78 
4bcc_ligand_dft.xyz
 C    2.295137    3.892999    0.146532
 C    1.766218    4.841863   -0.927338
 C    0.546709    4.293156   -1.695766
 C   -0.452442    3.593540   -0.803119
 C   -0.558741    2.204169   -0.847926
 C   -1.220885    4.289970    0.136307
 C   -1.404323    1.518204    0.019990
 C   -2.065402    3.609259    1.009235
 C   -2.161032    2.218008    0.956515
 C    2.786568    2.556956   -0.390780
 O    3.243547    2.421883   -1.516995
 N    2.777463    1.518475    0.498229
 C    2.143474    1.516147    1.812003
 C    3.339003    0.230703    0.158136
 C    2.317705   -0.624904   -0.617512
 O    1.172651   -0.242480   -0.800736
 C    3.664727   -0.340832    1.545803
 C    2.482717    0.135067    2.402686
 N    1.370726   -0.816612    2.308068
 N    1.642029   -2.132966    2.316922
 N    0.508740   -2.768704    2.306386
 C    0.036648   -0.608694    2.315978
 C   -0.510309   -1.869326    2.303816
 C   -1.946087   -2.291652    2.223210
 N   -2.511697   -2.086484    0.907623
 O   -4.116709   -0.598072    1.571946
 C   -3.531484   -1.219566    0.696587
 O   -3.791087   -1.153503   -0.625429
 C   -4.977885   -0.482989   -1.128315
 C   -4.922259    1.017517   -0.848845
 C   -4.895968   -0.747177   -2.630247
 C   -6.231978   -1.126324   -0.536897
 N    2.730086   -1.836845   -1.070632
 C    1.780595   -2.666526   -1.819122
 C    0.582417   -3.043023   -0.975370
 N   -0.639644   -2.884465   -1.272977
 C    2.620885   -3.898272   -2.204452
 C    4.060682   -3.375531   -2.217356
 C    4.074662   -2.406903   -1.034316
 H    3.150802    4.357117    0.656938
 H    1.522363    3.745866    0.905267
 H    2.561290    5.070691   -1.643263
 H    1.496570    5.780875   -0.429091
 H    0.070112    5.122126   -2.232901
 H    0.902635    3.584063   -2.449027
 H    0.049265    1.639530   -1.545679
 H   -1.151324    5.374852    0.188640
 H   -1.460532    0.435648   -0.045882
 H   -2.659082    4.166422    1.728822
 H   -2.835383    1.678078    1.616027
 H    2.566535    2.296591    2.453525
 H    1.067457    1.690764    1.725780
 H    4.229448    0.379781   -0.458099
 H    3.778982   -1.422904    1.584422
 H    4.579957    0.127287    1.919822
 H    2.752673    0.215616    3.458475
 H   -0.424126    0.365213    2.296948
 H   -2.001625   -3.351181    2.495482
 H   -2.561870   -1.725665    2.925772
 H   -2.030976   -2.488998    0.100122
 H   -3.991211    1.444496   -1.232767
 H   -5.762679    1.510436   -1.350238
 H   -4.983186    1.216693    0.221587
 H   -4.896947   -1.822949   -2.831243
 H   -3.978585   -0.316283   -3.043235
 H   -5.753055   -0.294485   -3.138721
 H   -7.122084   -0.699373   -1.010909
 H   -6.288004   -0.950605    0.538852
 H   -6.227607   -2.205670   -0.722169
 H    1.439853   -2.115279   -2.705657
 H    0.816747   -3.507047   -0.012916
 H   -0.745648   -2.395219   -2.165750
 H    2.300165   -4.324384   -3.157311
 H    2.512915   -4.673979   -1.436676
 H    4.260268   -2.830408   -3.145954
 H    4.805544   -4.168551   -2.117233
 H    4.244679   -2.942339   -0.090986
 H    4.838425   -1.631288   -1.133001
