65 
4bcd_ligand_xtb.xyz
 C    3.026921    2.568789    0.862172
 C    3.377196    3.112661   -0.525277
 C    2.407967    2.596666   -1.596097
 C    0.973657    2.932247   -1.292748
 C    0.561868    4.256912   -1.198834
 C    0.034633    1.926679   -1.095353
 C   -0.751499    4.569926   -0.898789
 C   -1.283158    2.238406   -0.801254
 C   -1.677689    3.560662   -0.695380
 C    3.210858    1.065410    0.883594
 O    4.193159    0.526151    0.399818
 F   -7.048552   -1.147766   -2.368131
 C   -6.033410   -1.045757   -1.480920
 C   -6.327533   -0.876988   -0.139353
 C   -5.285375   -0.771579    0.759769
 C   -4.731418   -1.113886   -1.942807
 C   -3.695312   -1.009885   -1.034646
 C   -3.962507   -0.836612    0.323015
 C   -2.885379   -0.708466    1.287345
 N   -3.107620   -0.497524    2.611180
 N   -1.994755   -0.402983    3.222085
 C   -1.512973   -0.743141    1.103239
 N   -1.006325   -0.548826    2.339480
 C    0.368941   -0.436214    2.734958
 C    1.031799    0.798994    2.094427
 C    1.210250   -1.652001    2.301440
 C    2.323309   -1.125183    1.389279
 C    2.082693   -1.531268   -0.076071
 O    1.014613   -1.269980   -0.615760
 N    2.248726    0.326257    1.477671
 N    3.052063   -2.179465   -0.719369
 C    4.396161   -2.485822   -0.260048
 C    5.118297   -2.966026   -1.519498
 C    3.992957   -3.563842   -2.360607
 C    2.849626   -2.593278   -2.101131
 H    2.009606    2.854998    1.119616
 H    3.710851    2.995440    1.600536
 H    4.389065    2.795469   -0.782052
 H    3.354012    4.203115   -0.494688
 H    2.516203    1.513375   -1.679567
 H    2.687397    3.037121   -2.557267
 H    1.275324    5.051085   -1.367635
 H    0.337666    0.892511   -1.181900
 H   -1.054910    5.604458   -0.827407
 H   -2.006546    1.449340   -0.654405
 H   -2.704008    3.802038   -0.461664
 H   -7.355990   -0.829478    0.182271
 H   -5.473739   -0.636497    1.813069
 H   -4.542729   -1.245213   -2.996716
 H   -2.675397   -1.064301   -1.383510
 H   -0.886310   -0.894606    0.249502
 H    0.343703   -0.344340    3.824311
 H    0.357960    1.237484    1.346908
 H    1.258022    1.555057    2.851247
 H    1.632083   -2.153384    3.170712
 H    0.584981   -2.366782    1.765695
 H    3.312014   -1.448572    1.720862
 H    4.362041   -3.279141    0.496333
 H    4.864573   -1.593033    0.158300
 H    5.557950   -2.114794   -2.038940
 H    5.905282   -3.681631   -1.292001
 H    3.734400   -4.558458   -1.994860
 H    4.244351   -3.632952   -3.416222
 H    2.909735   -1.719549   -2.759231
 H    1.857306   -3.034866   -2.210459
