56 
4bch_ligand_xtb.xyz
 C   -0.504537    4.835193    1.367869
 N   -0.335677    3.566901    0.702704
 C   -1.360600    2.723476    0.521910
 N   -2.617219    2.984208    0.749693
 C   -3.422313    1.934818    0.481444
 C   -4.866782    2.076308    0.805166
 C   -2.772560    0.812287    0.004117
 C   -3.096270   -0.564330   -0.185223
 N   -2.021863   -1.352449   -0.058807
 C   -2.154877   -2.659630   -0.118772
 N   -1.069821   -3.467142    0.025385
 C    0.264299   -3.151097    0.224306
 C    0.734453   -1.853723    0.433228
 C    2.086432   -1.621017    0.586797
 S    2.643655    0.076969    0.761718
 N    3.478535    0.240529   -0.693092
 C    2.619595    0.348183   -1.857068
 C    2.169322    1.793442   -2.095691
 O    3.270200    2.675975   -2.137645
 C    4.017433    2.621065   -0.942339
 C    4.557892    1.210396   -0.700593
 O    1.521585    0.984241    0.824542
 O    3.605577    0.204043    1.818444
 C    3.027234   -2.644420    0.553375
 C    4.490728   -2.384184    0.681785
 C    2.541630   -3.938012    0.377837
 C    1.195435   -4.192592    0.213424
 N   -3.317251   -3.310296   -0.309612
 C   -4.376320   -2.555946   -0.498488
 C   -4.351580   -1.155234   -0.468800
 C   -5.510094   -0.446906   -0.816221
 N   -6.472449    0.077653   -1.160656
 S   -1.042176    1.127630   -0.097130
 H    0.171209    5.566814    0.925320
 H   -1.534782    5.153351    1.226779
 H   -0.298924    4.761121    2.439398
 H    0.573569    3.124678    0.746930
 H   -4.994219    2.944426    1.445814
 H   -5.454056    2.219092   -0.100716
 H   -5.242411    1.188821    1.310001
 H   -1.293146   -4.450524   -0.057520
 H    0.049011   -1.027152    0.473269
 H    1.752269   -0.292534   -1.694803
 H    3.185403   -0.014940   -2.721657
 H    1.479113    2.087538   -1.293812
 H    1.668106    1.886426   -3.060258
 H    3.387621    2.912862   -0.088173
 H    4.831558    3.338102   -1.059566
 H    5.254388    0.934514   -1.499180
 H    5.055355    1.146383    0.266613
 H    4.848414   -1.845532   -0.194386
 H    4.686613   -1.757260    1.547739
 H    5.039755   -3.317829    0.774157
 H    3.239249   -4.762160    0.361082
 H    0.856794   -5.208747    0.069603
 H   -5.304372   -3.079404   -0.690468
