38 
4bcj_ligand_ani.xyz
 C   -2.649905    4.483887   -0.770957
 N   -3.484167    3.375865   -0.367109
 C   -3.073094    2.114601   -0.070631
 N   -3.853918    1.266075    0.541148
 C   -3.247774    0.040953    0.707497
 C   -3.979875   -0.966032    1.530423
 C   -1.999870   -0.057748    0.140742
 C   -1.075912   -1.170873   -0.009408
 N    0.235449   -0.866131    0.058406
 C    1.104257   -1.864399    0.013224
 N    2.451828   -1.623207    0.114390
 C    3.173428   -0.421702    0.202467
 C    4.519567   -0.471025   -0.170289
 C    5.313011    0.667819   -0.099151
 O    6.612459    0.547614   -0.489117
 C    4.773120    1.868846    0.360520
 C    3.437398    1.899605    0.744000
 C    2.624041    0.775015    0.675744
 N    0.806854   -3.174355   -0.139066
 C   -0.469274   -3.461783   -0.298811
 C   -1.481749   -2.490348   -0.270891
 C   -2.814436   -2.907772   -0.603764
 N   -3.857636   -3.316236   -0.898776
 S   -1.493642    1.499173   -0.466244
 H   -1.864248    4.714248   -0.038655
 H   -2.179171    4.296686   -1.742116
 H   -3.289613    5.364626   -0.874128
 H   -4.392524    3.574876    0.024436
 H   -4.428854   -0.462103    2.389906
 H   -4.798481   -1.404406    0.953029
 H   -3.329130   -1.766707    1.887074
 H    2.997171   -2.463460   -0.004184
 H    4.962874   -1.395150   -0.531442
 H    7.052872    1.400600   -0.387144
 H    5.387929    2.764721    0.419997
 H    3.014379    2.833302    1.105697
 H    1.587616    0.813688    0.986117
 H   -0.728685   -4.506936   -0.462995
