38 
4bcj_ligand_xtb.xyz
 C   -1.942289    4.521102   -0.502894
 N   -3.002894    3.612995   -0.155059
 C   -2.801894    2.299771    0.038107
 N   -3.690989    1.506458    0.550480
 C   -3.284923    0.216600    0.580300
 C   -4.186492   -0.767054    1.236445
 C   -2.027846   -0.009356    0.063482
 C   -1.189733   -1.169461   -0.028044
 N    0.115912   -0.914640    0.031922
 C    0.971306   -1.924861    0.003210
 N    2.305583   -1.716713    0.039663
 C    3.047818   -0.542125    0.061033
 C    4.434288   -0.668483    0.083580
 C    5.241897    0.459427    0.100386
 O    6.590367    0.277683    0.121107
 C    4.665115    1.724425    0.094695
 C    3.286970    1.842353    0.073164
 C    2.472439    0.726654    0.056567
 N    0.624007   -3.227119   -0.046553
 C   -0.653323   -3.490745   -0.164210
 C   -1.644520   -2.499676   -0.196063
 C   -2.962258   -2.855217   -0.509277
 N   -4.015479   -3.188205   -0.826379
 S   -1.307698    1.513765   -0.434244
 H   -1.298343    4.749636    0.353423
 H   -1.329209    4.071601   -1.284392
 H   -2.374781    5.445515   -0.879413
 H   -3.830655    3.988928    0.281832
 H   -4.790642   -0.241484    1.971726
 H   -4.854884   -1.221978    0.506371
 H   -3.620703   -1.559217    1.720966
 H    2.837763   -2.577841    0.029920
 H    4.904422   -1.639905    0.086977
 H    7.033243    1.134678    0.127831
 H    5.292984    2.605034    0.106117
 H    2.838167    2.824255    0.068070
 H    1.402275    0.825739    0.038173
 H   -0.921711   -4.536230   -0.249955
