56 
4bcm_ligand_xtb.xyz
 C    0.441972    4.938381    1.109954
 N    0.331816    3.508344    0.986443
 C    1.347334    2.725993    0.609697
 N    2.495351    3.129918    0.135785
 C    3.309317    2.103904   -0.191372
 C    4.622597    2.446013   -0.799843
 C    2.782349    0.847051    0.041988
 C    3.143801   -0.519954   -0.138049
 N    2.075881   -1.324880   -0.031132
 C    2.211180   -2.625763   -0.164762
 N    1.129781   -3.446782   -0.060648
 C   -0.209135   -3.133878    0.111252
 C   -0.657234   -1.891337    0.560263
 C   -2.008975   -1.629891    0.649068
 S   -2.533570    0.018107    1.131384
 N   -3.209623    0.547878   -0.327300
 C   -4.120471    1.667743   -0.174546
 C   -4.775976    1.936675   -1.529121
 O   -3.805456    2.208055   -2.513483
 C   -2.901511    1.137997   -2.649085
 C   -2.197606    0.831709   -1.325137
 O   -3.591220   -0.038609    2.097356
 O   -1.412720    0.862738    1.468064
 C   -2.973192   -2.577138    0.321973
 C   -4.432471   -2.270213    0.368385
 C   -2.512576   -3.832245   -0.068717
 C   -1.164939   -4.111125   -0.176057
 N    3.368602   -3.258958   -0.428669
 C    4.435988   -2.496809   -0.506135
 C    4.416059   -1.103379   -0.356458
 C    5.643761   -0.426879   -0.342255
 N    6.691009    0.043666   -0.299586
 S    1.142599    1.001279    0.673786
 H    1.342651    5.249609    0.585943
 H   -0.428561    5.418593    0.661006
 H    0.513243    5.242676    2.157656
 H   -0.456595    3.030010    1.402045
 H    4.597156    3.486044   -1.112919
 H    5.428508    2.318081   -0.079266
 H    4.834612    1.809255   -1.655468
 H    1.348230   -4.414837   -0.258149
 H    0.044619   -1.126351    0.831327
 H   -3.579387    2.566688    0.155842
 H   -4.856580    1.393824    0.580628
 H   -5.416758    2.817982   -1.480509
 H   -5.373771    1.061296   -1.823828
 H   -2.179204    1.442250   -3.407662
 H   -3.435614    0.237208   -2.987860
 H   -1.555829   -0.045145   -1.421126
 H   -1.582185    1.690257   -1.020000
 H   -4.702215   -1.876144    1.345058
 H   -4.669789   -1.500258   -0.364063
 H   -5.020054   -3.160177    0.157749
 H   -3.230110   -4.603173   -0.307798
 H   -0.845151   -5.092162   -0.497095
 H    5.372128   -3.008587   -0.690221
