40 
4bcn_ligand_dft.xyz
 C    1.393235   -3.483405   -1.503906
 N    0.032197   -2.995611   -1.628883
 C   -0.537742   -2.276963   -0.632676
 N    0.004110   -2.020555    0.497732
 C   -0.919906   -1.359173    1.414505
 C   -1.471348   -2.361482    2.427165
 C   -2.069830   -0.674453    0.602715
 C   -1.769156    0.756603    0.212949
 N   -0.491713    1.048398    0.062045
 C   -0.143590    2.282991   -0.307663
 N    1.175066    2.575010   -0.442081
 C    2.301183    1.770554   -0.151910
 C    2.197742    0.401769    0.077195
 C    3.319813   -0.345724    0.419748
 O    3.185326   -1.666736    0.695631
 C    4.577591    0.253051    0.478953
 C    4.675113    1.615137    0.208876
 C    3.556567    2.385107   -0.096890
 N   -1.006048    3.292704   -0.562785
 C   -2.283538    2.999052   -0.409944
 C   -2.750999    1.733551   -0.011437
 C   -4.143220    1.464741    0.142960
 N   -5.271025    1.227467    0.277275
 S   -2.216164   -1.701595   -0.907548
 H    2.132353   -2.674217   -1.512645
 H    1.594778   -4.167678   -2.330125
 H    1.493509   -4.028860   -0.562746
 H   -0.326214   -2.847256   -2.559058
 H   -0.366880   -0.575535    1.941488
 H   -2.086790   -1.858248    3.180303
 H   -2.080280   -3.122287    1.926889
 H   -0.643290   -2.864623    2.933376
 H   -3.021773   -0.732523    1.136433
 H    1.352994    3.538126   -0.690304
 H    1.245829   -0.095485    0.019869
 H    2.231382   -1.880460    0.715043
 H    5.448363   -0.338018    0.740529
 H    5.647671    2.096165    0.253529
 H    3.659211    3.451787   -0.277202
 H   -2.994441    3.798488   -0.606629
