40 
4bcn_ligand_ani.xyz
 C    2.114354   -3.086092   -1.320928
 N    0.704679   -2.854405   -1.555727
 C   -0.088283   -2.239679   -0.643870
 N    0.258700   -1.918926    0.553760
 C   -0.881961   -1.458244    1.341560
 C   -1.447320   -2.558802    2.241850
 C   -2.001619   -0.918193    0.394959
 C   -1.850868    0.567259    0.141778
 N   -0.609688    1.024170    0.132582
 C   -0.413174    2.333318   -0.030949
 N    0.875090    2.806833    0.000728
 C    2.043319    2.029898    0.085654
 C    2.040179    0.814823    0.761897
 C    3.143115   -0.028044    0.689932
 O    3.033844   -1.287121    1.185678
 C    4.333921    0.404968    0.111484
 C    4.361013    1.671631   -0.466105
 C    3.233671    2.482166   -0.494702
 N   -1.376676    3.250869   -0.235418
 C   -2.616142    2.786450   -0.268397
 C   -2.933159    1.431697   -0.093075
 C   -4.287310    0.965966   -0.144839
 N   -5.378392    0.578092   -0.185172
 S   -1.759724   -1.873790   -1.137481
 H    2.709164   -2.164200   -1.378432
 H    2.486315   -3.794928   -2.064764
 H    2.250413   -3.525658   -0.328863
 H    0.360378   -2.900069   -2.501314
 H   -0.540529   -0.640148    1.986210
 H   -2.246046   -2.141048    2.863436
 H   -1.863138   -3.374999    1.641789
 H   -0.670090   -2.963166    2.895044
 H   -2.996314   -1.138024    0.788287
 H    0.967182    3.779378   -0.253224
 H    1.185912    0.518452    1.355232
 H    2.079124   -1.532369    1.126175
 H    5.203150   -0.245072    0.108851
 H    5.281913    2.027646   -0.921085
 H    3.271335    3.456863   -0.974751
 H   -3.408348    3.513781   -0.441074
