40 
4bcn_ligand_xtb.xyz
 C    1.579706   -3.380513   -1.414158
 N    0.248815   -2.860381   -1.613626
 C   -0.424115   -2.217517   -0.653703
 N   -0.048130   -2.022819    0.537352
 C   -1.050518   -1.438511    1.385132
 C   -1.686668   -2.518577    2.259244
 C   -2.124529   -0.734163    0.509539
 C   -1.806073    0.698102    0.217773
 N   -0.529919    1.000804    0.131597
 C   -0.177000    2.244749   -0.190532
 N    1.124880    2.574756   -0.285687
 C    2.258643    1.791742   -0.062370
 C    2.174797    0.452791    0.291413
 C    3.320748   -0.294604    0.523080
 O    3.219169   -1.598666    0.875764
 C    4.573691    0.296739    0.389934
 C    4.653169    1.629698    0.028745
 C    3.514448    2.382189   -0.197004
 N   -1.049594    3.237830   -0.440600
 C   -2.324256    2.948684   -0.348044
 C   -2.796483    1.670650   -0.012608
 C   -4.166090    1.382920    0.093708
 N   -5.283800    1.141479    0.195973
 S   -2.063083   -1.603439   -1.098510
 H    2.346084   -2.615145   -1.565843
 H    1.748948   -4.197443   -2.113249
 H    1.656425   -3.755986   -0.395793
 H   -0.082772   -2.759528   -2.558718
 H   -0.566689   -0.689727    2.022862
 H   -2.391114   -2.075359    2.958477
 H   -2.208533   -3.241390    1.634930
 H   -0.911409   -3.037239    2.816837
 H   -3.130892   -0.839478    0.915808
 H    1.286464    3.541577   -0.536877
 H    1.215604   -0.022162    0.390046
 H    2.278409   -1.836312    0.931441
 H    5.459522   -0.289408    0.571958
 H    5.622605    2.093000   -0.076447
 H    3.595593    3.422811   -0.474565
 H   -3.014859    3.758183   -0.546775
