59 
4bco_ligand_ani.xyz
 C   -5.696965    4.182407    0.140382
 N   -6.110097    2.985680    0.834805
 C   -5.474625    1.785101    0.841468
 N   -5.803999    0.839487    1.679449
 C   -5.058918   -0.301092    1.480324
 C   -5.229973   -1.405408    2.469954
 C   -4.191327   -0.236012    0.417152
 C   -3.320128   -1.228153   -0.193149
 N   -2.136562   -0.779817   -0.652459
 C   -1.266178   -1.680567   -1.086099
 N   -0.006116   -1.290477   -1.465683
 C    0.617291   -0.034022   -1.365503
 C   -0.076638    1.169840   -1.489306
 C    0.643640    2.356387   -1.413150
 C    2.015218    2.373227   -1.203324
 C    2.725344    1.164648   -1.086720
 N    4.099550    1.165698   -0.886513
 C    4.730165    2.319520   -0.275619
 C    5.982266    2.014627    0.550569
 C    5.820594    0.902541    1.589819
 N    6.026824   -0.433738    1.042400
 C    7.211611   -1.066156    1.332145
 C    7.454422   -2.426698    0.705437
 O    8.044808   -0.566405    2.073518
 C    5.027184   -0.926836    0.110103
 C    4.876970   -0.031805   -1.128742
 C    2.005422   -0.032187   -1.195061
 N   -1.483707   -3.008409   -1.207033
 C   -2.687826   -3.428106   -0.871186
 C   -3.681185   -2.575759   -0.365845
 C   -4.991092   -3.121623   -0.146528
 N   -6.026933   -3.619725   -0.002241
 S   -4.175020    1.377934   -0.243647
 H   -4.709544    4.541373    0.461049
 H   -5.678486    4.029487   -0.944024
 H   -6.431081    4.963945    0.354450
 H   -6.767842    3.069164    1.595122
 H   -5.317361   -0.974691    3.470514
 H   -6.154873   -1.954153    2.273470
 H   -4.393775   -2.107504    2.455995
 H    0.595010   -2.073709   -1.674309
 H   -1.148649    1.171721   -1.645279
 H    0.112984    3.302096   -1.502208
 H    2.536841    3.323213   -1.149523
 H    3.998725    2.788759    0.396551
 H    4.986514    3.074289   -1.037887
 H    6.245409    2.946285    1.067276
 H    6.831100    1.778767   -0.100371
 H    4.819856    0.947212    2.040344
 H    6.559922    1.018696    2.384071
 H    7.466449   -2.368957   -0.387538
 H    8.427097   -2.771899    1.055608
 H    6.689972   -3.149983    1.006633
 H    4.057338   -0.985744    0.624921
 H    5.293129   -1.940262   -0.195797
 H    5.871370    0.262888   -1.485614
 H    4.408946   -0.585169   -1.948989
 H    2.516954   -0.986092   -1.110110
 H   -2.898512   -4.489549   -0.995957
