52 
4bcq_ligand_dft.xyz
 C   -3.987068    4.583930   -0.752358
 N   -4.895802    3.709155   -0.048112
 C   -4.717011    2.372593    0.053961
 N   -5.627037    1.569422    0.544551
 C   -5.190882    0.272062    0.535397
 C   -6.082271   -0.748225    1.173142
 C   -3.934868    0.067949    0.009649
 C   -3.121734   -1.127688   -0.124411
 N   -1.808355   -0.971331    0.094241
 C   -1.024428   -2.043885    0.003007
 C    3.404988   -0.049000    0.832715
 N    0.317070   -1.932065    0.202017
 C    1.131585   -0.833587    0.520783
 C    0.651585    0.441145    0.842095
 C    1.555529    1.448148    1.165127
 C    2.925796    1.220931    1.160230
 C    6.540983    1.432766   -1.666334
 O    6.871012    0.084178   -1.875804
 C    5.491381    1.551748   -0.542281
 N    5.770550    0.542341    0.479657
 C    4.862398   -0.409472    0.879319
 O    5.214817   -1.499500    1.309381
 C    7.176112    0.175218    0.547998
 C    7.605664   -0.455321   -0.787204
 C    2.509439   -1.068191    0.531887
 N   -1.424142   -3.308087   -0.273315
 C   -2.706021   -3.449198   -0.535254
 C   -3.626747   -2.389311   -0.504862
 C   -4.956788   -2.610131   -0.967386
 N   -6.022214   -2.823371   -1.374858
 S   -3.226111    1.611235   -0.442191
 H   -2.985494    4.531087   -0.309730
 H   -3.911607    4.335897   -1.819742
 H   -4.343011    5.610456   -0.654260
 H   -5.838597    4.016777    0.137651
 H   -6.551890   -0.298355    2.051569
 H   -6.873278   -1.061157    0.484558
 H   -5.532284   -1.640244    1.480888
 H    0.792580   -2.816973    0.090241
 H   -0.411843    0.631794    0.844309
 H    1.172386    2.428443    1.432113
 H    3.616331    2.013429    1.430493
 H    6.128921    1.813577   -2.603852
 H    7.438152    2.027428   -1.431421
 H    4.495832    1.376747   -0.951567
 H    5.510342    2.564060   -0.115205
 H    7.316940   -0.529603    1.366564
 H    7.753037    1.081113    0.765548
 H    8.685280   -0.307569   -0.944554
 H    7.391717   -1.526303   -0.782808
 H    2.905700   -2.056934    0.316959
 H   -3.044433   -4.448180   -0.801900
