30 
4bdc_ligand_xtb.xyz
 C    0.632971    1.586186    0.056883
 N   -2.715731   -1.991882   -0.110821
 O    3.592350   -0.514797    0.973915
 C   -0.773682    1.076609    0.020749
 N   -4.755521   -0.078476    0.024296
 O    0.943845    2.586065    0.671741
 C   -1.076702   -0.260960   -0.044655
 N    1.516414    0.865815   -0.672621
 C   -2.422562   -0.674929   -0.042189
 C   -3.978104   -2.322156   -0.108077
 C   -5.006228   -1.357376   -0.040839
 C   -3.459293    0.298132    0.028271
 C   -3.119865    1.664031    0.112172
 C   -1.806830    2.035757    0.115220
 C    2.934248    1.165094   -0.678171
 C    3.741517   -0.022975   -0.274759
 C    4.401066   -1.579949    1.083254
 C    5.076764   -1.791944   -0.077238
 C    4.642877   -0.778665   -0.966912
 H   -0.319344   -1.030450   -0.066273
 H    1.207950    0.051835   -1.179236
 H   -4.203921   -3.378807   -0.163816
 H   -6.048162   -1.648744   -0.043292
 H   -3.918710    2.385698    0.179813
 H   -1.519057    3.073263    0.195613
 H    3.066667    1.987790    0.032459
 H    3.252470    1.490562   -1.674060
 H    4.406969   -2.097133    2.022027
 H    5.788843   -2.565150   -0.279276
 H    4.963540   -0.628340   -1.977422
