30 
4bdc_ligand_ani.xyz
 C    0.791347    1.488968   -0.110031
 N   -2.771826   -1.896563   -0.468940
 O    3.044378   -0.577821    0.770014
 C   -0.628360    1.024286   -0.002428
 N   -4.669830    0.060432    0.302242
 O    1.223712    2.401190    0.576164
 C   -1.030731   -0.262568   -0.279183
 N    1.542973    0.866103   -1.066120
 C   -2.393754   -0.619544   -0.178080
 C   -4.050642   -2.153947   -0.372199
 C   -5.003700   -1.171410    0.012274
 C   -3.342971    0.357938    0.211765
 C   -2.902469    1.671776    0.521723
 C   -1.575163    1.988013    0.427324
 C    2.977382    1.001252   -1.069556
 C    3.661912   -0.123008   -0.353256
 C    3.827289   -1.560503    1.280468
 C    4.923719   -1.748378    0.506477
 C    4.815215   -0.804155   -0.566067
 H   -0.342830   -1.061867   -0.542632
 H    1.138070    0.088628   -1.560846
 H   -4.378446   -3.168079   -0.600448
 H   -6.059434   -1.434324    0.075340
 H   -3.650203    2.394678    0.831384
 H   -1.211856    2.981534    0.674179
 H    3.198159    1.951544   -0.572392
 H    3.348308    1.061407   -2.095387
 H    3.465472   -2.020563    2.187992
 H    5.715664   -2.465442    0.671339
 H    5.508711   -0.656587   -1.383617
