34 
4bdd_ligand_ani.xyz
 O   -1.533798   -1.122935   -0.037668
 C   -1.746081    0.080645   -0.015298
 N   -3.005880    0.636010   -0.051606
 C   -4.236007   -0.175632   -0.001707
 C   -5.402316    0.812115   -0.025337
 C   -4.310288   -1.088928   -1.229881
 C   -4.296885   -1.025860    1.274515
 N   -0.745951    1.039572    0.026782
 C    0.647270    0.839567    0.015250
 C    1.448057    2.016955   -0.003408
 C    2.813175    1.940232   -0.010773
 C    3.456303    0.673945   -0.003943
 C    2.658269   -0.492242    0.015631
 C    1.247737   -0.398022    0.029858
 N    4.816793    0.608443   -0.017652
 C    5.333645   -0.593982   -0.014011
 C    4.534531   -1.769377    0.003840
 N    3.227260   -1.732462    0.019107
 H   -3.099801    1.587360    0.278372
 H   -6.362645    0.284680   -0.033614
 H   -5.385641    1.458187    0.860430
 H   -5.352138    1.442176   -0.920741
 H   -3.485832   -1.804946   -1.221795
 H   -5.258793   -1.639139   -1.231973
 H   -4.248613   -0.494500   -2.147802
 H   -5.243292   -1.578204    1.309672
 H   -3.469676   -1.739247    1.293029
 H   -4.233040   -0.390355    2.165559
 H   -1.028000    2.000775   -0.091477
 H    0.963946    2.991525   -0.006387
 H    3.438354    2.827115   -0.023854
 H    0.675502   -1.314061    0.047492
 H    6.420434   -0.675009   -0.025522
 H    5.009610   -2.750318    0.005121
