21 
4bde_ligand_xtb.xyz
 N   -1.489429   -1.759106    0.001817
 C   -2.562684   -1.026363    0.007357
 N   -2.640418    0.306619    0.004588
 C   -1.505802    0.983702   -0.001224
 C    1.015718    0.945029    0.001040
 C    2.179151    0.210544   -0.000004
 C    2.100010   -1.191826   -0.005648
 C    0.894057   -1.837809   -0.006687
 C   -0.237299    0.315152   -0.001205
 C   -0.304640   -1.101967   -0.002503
 C    3.511229    0.899580    0.007559
 N   -1.608163    2.328104   -0.007696
 H   -3.513626   -1.545326    0.014504
 H    1.080908    2.025011    0.005156
 H    3.016350   -1.765140   -0.008568
 H    0.827364   -2.914133   -0.009707
 H    3.604303    1.560990   -0.853179
 H    3.620811    1.505917    0.906407
 H    4.322647    0.177345   -0.021835
 H   -2.529302    2.727481   -0.004931
 H   -0.801832    2.922286   -0.010918
