22 
4bdf_ligand_xtb.xyz
 C  -36.541020   35.005056    7.677543
 C  -35.875348   35.688038    8.818076
 C  -37.347098   33.854421    7.710316
 C  -39.207365   32.803736    4.585583
 C  -38.736162   31.380968    6.460547
 C  -39.997035   31.811877    4.035868
 C  -39.526150   30.392677    5.906617
 C  -40.157911   30.602774    4.691658
 C  -37.727968   33.630873    6.397534
 N  -37.148844   34.627401    5.681028
 C  -38.562268   32.601006    5.806300
 N  -36.427134   35.450652    6.436610
 H  -35.282237   36.518104    8.445601
 H  -36.618059   36.066744    9.519254
 H  -35.228015   34.993669    9.351593
 H  -37.623182   33.288862    8.576420
 H  -39.109607   33.749454    4.071695
 H  -40.492634   31.984304    3.091504
 H  -38.236926   31.209857    7.401999
 H  -39.648593   29.451768    6.422854
 H  -40.774677   29.829240    4.259076
 H  -37.174768   34.760519    4.683324
