20 
4bdg_ligand_ani.xyz
 C  -36.438451   35.088428    7.164893
 C  -36.994299   33.972698    7.752441
 N  -35.647161   36.139510    7.642137
 N  -36.748498   35.014350    5.850919
 C  -38.561636   31.329847    7.936546
 C  -38.374305   32.012098    6.732223
 C  -37.621717   33.279691    6.683613
 N  -39.227733   30.184547    8.054056
 C  -39.746182   29.664260    6.939926
 C  -39.622696   30.256492    5.686663
 C  -38.925594   31.450551    5.579355
 N  -37.458488   33.912455    5.531462
 H  -36.946567   33.704062    8.798177
 H  -36.033016   37.052658    7.430110
 H  -35.503403   36.065020    8.640491
 H  -36.394678   35.607544    5.117383
 H  -38.148638   31.735270    8.858572
 H  -38.804526   31.948970    4.621509
 H  -40.286900   28.727384    7.057876
 H  -40.065515   29.789166    4.811647
