28 
4bdj_ligand_ani.xyz
 C   46.950255   14.630327   -3.485495
 N   47.439140   16.965528   -9.598520
 O   47.311513   14.069612   -4.666297
 C   47.666672   15.075855   -5.507655
 N   48.247968   16.012035  -10.085088
 C   48.133736   14.677332   -6.832468
 N   49.276940   13.964182   -9.368553
 C   47.932157   15.476515   -7.965779
 C   47.212515   16.664404   -8.334759
 C   48.554000   15.063367   -9.163265
 C   49.398987   13.198559   -8.285045
 C   48.853278   13.499857   -7.028880
 C   46.283074   17.464375   -7.504254
 C   46.588657   18.901823   -7.144766
 C   45.493143   18.590556   -8.111656
 C   47.571175   16.268028   -4.852243
 C   47.095126   15.977212   -3.533241
 H   46.619910   13.942527   -2.720832
 H   48.504770   16.011045  -11.059055
 H   49.972321   12.283217   -8.411861
 H   49.012946   12.818560   -6.199053
 H   45.787268   16.874651   -6.735510
 H   46.303883   19.231175   -6.148898
 H   47.502841   19.337493   -7.537571
 H   45.686831   18.793637   -9.160918
 H   44.462266   18.717363   -7.794893
 H   47.822762   17.235814   -5.258128
 H   46.894863   16.674955   -2.731309
