37 
4bdk_ligand_ani.xyz
 O    0.467789    2.907359   -0.121303
 C    0.649999    1.758741    0.255310
 C    1.943792    1.045222    0.002747
 C    2.755133    1.562501   -1.038456
 C    3.945668    0.970593   -1.357597
 C    2.367364   -0.041965    0.731450
 C    3.595021   -0.669818    0.426700
 N    3.987704   -1.753046    1.155130
 C    5.130303   -2.290718    0.813978
 C    5.927356   -1.787593   -0.250413
 N    5.576784   -0.748582   -0.965149
 C    4.390334   -0.166852   -0.632884
 N   -0.305377    1.036332    0.906685
 C   -1.609506    1.591830    1.210174
 C   -2.740738    0.788437    0.609088
 C   -3.776024    0.298741    1.396031
 C   -4.824359   -0.439943    0.847167
 C   -4.840437   -0.691008   -0.522524
 O   -5.809627   -1.396644   -1.165562
 C   -6.856368   -1.924229   -0.380348
 C   -3.806837   -0.199816   -1.327443
 C   -2.771386    0.525033   -0.763226
 H    2.398085    2.440538   -1.568512
 H    4.581756    1.340997   -2.154970
 H    1.822134   -0.444882    1.580608
 H    5.467074   -3.158682    1.380813
 H    6.872382   -2.271408   -0.496672
 H   -0.165041    0.049082    1.047030
 H   -1.590928    2.611730    0.813134
 H   -1.734887    1.662762    2.298590
 H   -3.770303    0.494625    2.467404
 H   -5.612838   -0.807367    1.495455
 H   -6.477838   -2.626018    0.374475
 H   -7.422052   -1.128654    0.122344
 H   -7.513664   -2.454834   -1.070516
 H   -3.841302   -0.406713   -2.393002
 H   -1.967554    0.895244   -1.396463
