37 
4bdk_ligand_dft.xyz
 O    0.114310    2.554334   -0.535017
 C    0.467081    1.587785    0.127321
 C    1.773885    0.895272   -0.147537
 C    2.307405    1.024056   -1.457618
 C    3.492983    0.430063   -1.793516
 C    2.465524    0.195171    0.811857
 C    3.698645   -0.422325    0.491923
 N    4.365454   -1.110969    1.460873
 C    5.497414   -1.661015    1.098913
 C    6.013214   -1.553770   -0.220659
 N    5.396625   -0.895813   -1.170447
 C    4.215389   -0.310626   -0.824517
 N   -0.272087    1.075542    1.151254
 C   -1.596802    1.593722    1.467203
 C   -2.711647    0.821052    0.799827
 C   -3.566297    0.006935    1.531780
 C   -4.582827   -0.726683    0.916691
 C   -4.743988   -0.644771   -0.465015
 O   -5.691962   -1.309551   -1.173415
 C   -6.583452   -2.141023   -0.466872
 C   -3.888389    0.172729   -1.215215
 C   -2.889267    0.894519   -0.589113
 H    1.747244    1.610804   -2.177479
 H    3.912478    0.509727   -2.790877
 H    2.120761    0.114998    1.838293
 H    6.048434   -2.217289    1.854319
 H    6.958280   -2.029774   -0.474071
 H   -0.061427    0.138413    1.460982
 H   -1.600254    2.637059    1.144435
 H   -1.720398    1.576410    2.555173
 H   -3.450226   -0.063465    2.611254
 H   -5.230769   -1.348190    1.523918
 H   -6.054324   -2.950879    0.052223
 H   -7.174514   -1.571258    0.261964
 H   -7.251881   -2.570245   -1.214159
 H   -4.034706    0.226658   -2.289023
 H   -2.230647    1.530895   -1.173970
