25 
4bds_ligand_ani.xyz
 C    2.502373    1.145789   -0.081380
 C    3.647985    0.393188   -0.079100
 C    3.576432   -1.019809   -0.010077
 C    2.365617   -1.651422    0.039163
 C   -2.365842   -1.651214    0.024731
 C   -3.576833   -1.019909   -0.020242
 C   -3.648700    0.393961   -0.070597
 C   -2.503389    1.146946   -0.065673
 C    0.000336    1.239481    0.031297
 N   -0.000502   -1.600095    0.049790
 C   -1.147648   -0.909147    0.023158
 C   -1.221358    0.523010   -0.006142
 C    1.221160    0.521844   -0.010393
 C    1.147178   -0.909856    0.026634
 N    0.003101    2.618063    0.058560
 H    2.573099    2.228232   -0.161610
 H    4.618861    0.878889   -0.126337
 H    4.494549   -1.602050   -0.001784
 H    2.276512   -2.732308    0.081801
 H   -2.276279   -2.732418    0.056707
 H   -4.494782   -1.602471   -0.022400
 H   -4.619940    0.879970   -0.109520
 H   -2.576247    2.230481   -0.129567
 H   -0.834552    3.056809    0.415059
 H    0.836712    3.051910    0.430928
