32 
4bek_ligand_xtb.xyz
 N   -2.788258   -2.037991   -1.358946
 C   -2.417563   -1.107713   -0.592364
 N   -1.987905    0.061018   -1.122678
 S   -2.538936   -1.243349    1.197364
 C   -1.724649    0.261558    1.832444
 C   -1.880718    1.421128    0.871289
 C   -1.218980    1.108764   -0.482137
 C   -1.306324    2.331549   -1.403541
 C    0.244194    0.722755   -0.286532
 C    1.127929    1.614635    0.318190
 C    2.451100    1.285134    0.506711
 C    2.939528    0.043670    0.095295
 O    4.260119   -0.184450    0.330220
 C    4.808575   -1.419494   -0.062077
 C    2.066446   -0.850509   -0.509948
 C    0.737276   -0.506104   -0.695765
 H   -3.165965   -2.857846   -0.903639
 H   -1.911632    0.012304   -2.129463
 H   -2.205624    0.467180    2.788360
 H   -0.672507    0.026243    2.000076
 H   -2.941049    1.623206    0.703054
 H   -1.425632    2.309433    1.310849
 H   -2.347925    2.588767   -1.581688
 H   -0.805469    3.185903   -0.959009
 H   -0.829766    2.113129   -2.356928
 H    0.781830    2.581466    0.651381
 H    3.134512    1.975264    0.975572
 H    4.730148   -1.568593   -1.143801
 H    4.328203   -2.255575    0.456248
 H    5.859447   -1.377975    0.219711
 H    2.400777   -1.820369   -0.842324
 H    0.084921   -1.226777   -1.165983
