32 
4bek_ligand_dft.xyz
 N   -2.582757   -2.154902   -1.336752
 C   -2.377447   -1.143298   -0.585058
 N   -1.974891    0.043423   -1.155082
 S   -2.725573   -1.179237    1.168128
 C   -1.860258    0.295189    1.806702
 C   -1.886954    1.451916    0.821079
 C   -1.204436    1.105030   -0.513973
 C   -1.284635    2.315810   -1.454815
 C    0.265419    0.714773   -0.288935
 C    1.159709    1.627075    0.291524
 C    2.488404    1.306342    0.501267
 C    2.973668    0.046947    0.130220
 O    4.290032   -0.174579    0.373024
 C    4.827473   -1.424219    0.002155
 C    2.103173   -0.873598   -0.446652
 C    0.764341   -0.532937   -0.649328
 H   -2.932225   -2.951756   -0.808664
 H   -1.776969   -0.096875   -2.139658
 H   -2.380441    0.560316    2.730675
 H   -0.829836    0.027640    2.055369
 H   -2.920597    1.751333    0.616303
 H   -1.374855    2.307561    1.274691
 H   -2.330643    2.583923   -1.631779
 H   -0.766422    3.179102   -1.028701
 H   -0.811668    2.086418   -2.415922
 H    0.815464    2.614932    0.587865
 H    3.175514    2.017052    0.948665
 H    4.731801   -1.598365   -1.077278
 H    4.344796   -2.247916    0.543876
 H    5.884444   -1.388459    0.268463
 H    2.442145   -1.859496   -0.743357
 H    0.111199   -1.274814   -1.097059
