44 
4bfd_ligand_xtb.xyz
Cl    6.991841   -2.263561    0.041011
 C    5.737216   -1.085676    0.048159
 C    4.404866   -1.479006   -0.054398
 N    3.413087   -0.614910   -0.051752
 C    6.035916    0.266620    0.156384
 C    4.987560    1.168979    0.157433
 C    3.687598    0.684133    0.051391
 C    2.530009    1.637738    0.054933
 O    2.684683    2.838776    0.144109
 N    1.345977    0.983060   -0.050011
 C    0.053547    1.496870   -0.065024
 C   -0.214909    2.858674    0.036652
 C   -1.528331    3.282575    0.049824
 C   -2.556647    2.365156   -0.058126
 F   -3.819773    2.850327    0.006759
 C   -0.999996    0.590921   -0.180800
 C   -2.326012    0.998992   -0.204781
 C   -3.463172   -0.006124   -0.317011
 C   -4.471374    0.409771   -1.401839
 C   -4.129598   -0.103803    1.070680
 C   -5.089950   -1.270498    1.167772
 C   -4.601538   -2.548768    1.775601
 C   -4.835313   -2.462847    0.290129
 C   -3.668836   -2.449135   -0.633951
 N   -2.915627   -1.309789   -0.657927
 N   -3.295475   -3.417505   -1.370714
 H    4.133829   -2.522019   -0.140551
 H    7.060058    0.596520    0.237370
 H    5.147234    2.232545    0.238373
 H    1.442948   -0.026427   -0.116647
 H    0.594092    3.564071    0.118362
 H   -1.771835    4.328256    0.150437
 H   -0.770376   -0.462070   -0.234882
 H   -5.213132   -0.376474   -1.522599
 H   -4.986373    1.329218   -1.147293
 H   -3.956259    0.546605   -2.351155
 H   -4.653730    0.828823    1.275965
 H   -3.336827   -0.214328    1.815355
 H   -6.123844   -1.001311    1.342134
 H   -3.577614   -2.584216    2.117094
 H   -5.281596   -3.148396    2.361778
 H   -5.685726   -3.011345   -0.100450
 H   -2.275495   -1.314171   -1.441228
 H   -3.848110   -4.261338   -1.258299
