61 
4bfp_ligand_dft.xyz
 O   -2.495228    1.313113   -0.272969
 C   -3.492156    0.614824   -0.339330
 C   -4.820946    1.096809    0.111088
 C   -5.949794    0.247442    0.044077
 C   -4.943730    2.375993    0.603892
 C   -6.196592    2.850896    1.042293
 C   -7.305126    2.041415    0.985080
 C   -7.212203    0.717574    0.485510
 C   -8.325563   -0.157356    0.408612
 C   -8.184985   -1.432872   -0.081892
 C   -6.926320   -1.894104   -0.518584
 C   -5.826784   -1.068756   -0.457962
 C   -4.511108   -1.570015   -0.923889
 O   -4.359939   -2.694844   -1.363689
 N   -3.427218   -0.687188   -0.841721
 C   -2.131659   -1.184009   -1.329577
 C   -1.393699   -2.031077   -0.295744
 C   -0.909689   -1.263100    0.931221
 S    0.387135   -0.023088    0.575469
 C    1.761560   -1.111823    0.500224
 N    1.755260   -2.413977    0.648168
 N    3.049642   -2.843804    0.527634
 C    3.808932   -1.801237    0.304839
 C    5.263893   -1.877387    0.118354
 C    5.947591   -2.967198    0.664426
 C    7.319358   -3.061007    0.473824
 N    8.043939   -2.164546   -0.202440
 C    7.380301   -1.133429   -0.726260
 C    6.008007   -0.941449   -0.603247
 N    3.034131   -0.659079    0.270762
 C    3.442120    0.704510    0.170479
 C    4.184391    1.283562    1.200786
 C    4.598336    2.597904    1.094507
 C    4.260826    3.354764   -0.035431
 O    4.709465    4.630017   -0.038871
 C    4.389247    5.447803   -1.144366
 C    3.508582    2.776271   -1.060150
 C    3.106685    1.447250   -0.952701
 H   -4.060974    3.005159    0.647373
 H   -6.279458    3.861949    1.427524
 H   -8.270407    2.407668    1.324473
 H   -9.295976    0.197417    0.745537
 H   -9.043877   -2.093848   -0.135441
 H   -6.803444   -2.899468   -0.907467
 H   -1.540977   -0.312121   -1.612997
 H   -2.336824   -1.785644   -2.215567
 H   -0.534923   -2.510907   -0.775435
 H   -2.055168   -2.838733    0.037676
 H   -0.504618   -1.952567    1.674337
 H   -1.714396   -0.687119    1.395117
 H    5.404693   -3.722689    1.220898
 H    7.869649   -3.901153    0.891567
 H    7.977586   -0.414142   -1.282638
 H    5.542460   -0.082808   -1.072243
 H    4.439404    0.693311    2.074903
 H    5.181105    3.068175    1.878773
 H    4.809785    5.046630   -2.075066
 H    3.303981    5.564428   -1.255107
 H    4.837147    6.419778   -0.936855
 H    3.230673    3.340049   -1.942331
 H    2.528879    0.986714   -1.747608
