48 
4bfr_ligand_dft.xyz
 C    3.013059    0.294877   -0.525795
 N    3.899668   -0.748169   -0.678525
 C    3.484599   -2.116539   -0.378231
 C    3.837730   -2.448751    1.071049
 O    5.213844   -2.246668    1.329885
 C    5.613165   -0.918674    1.052136
 C    5.318085   -0.570000   -0.405182
 N    1.689898   -0.065466   -0.681149
 C    0.801978    0.880610   -0.615507
 N    1.095685    2.176400   -0.408883
 C    2.414510    2.643211   -0.193426
 C    3.391373    1.597220   -0.274453
 O    2.603259    3.826203    0.040287
 C   -0.632136    0.479245   -0.885406
 C   -1.708550    1.278598   -0.165959
 O   -1.540544    2.451665    0.156680
 N   -2.883737    0.651640    0.122019
 C   -4.603865    0.148676    1.665610
 C   -3.868505    1.330411    0.999494
 C   -4.396102   -0.975251    0.682269
 C   -3.365701   -0.639212   -0.202764
 C   -3.022820   -1.485123   -1.251998
 C   -3.688959   -2.707412   -1.358608
 C   -4.689631   -3.063342   -0.461600
 C   -5.055737   -2.185304    0.560765
 C   -4.790101    2.228616    0.181087
 H    4.025175   -2.791087   -1.052632
 H    2.415365   -2.217689   -0.556274
 H    3.227779   -1.822054    1.743052
 H    3.634341   -3.500235    1.291500
 H    5.085424   -0.212803    1.713988
 H    6.684539   -0.865364    1.262717
 H    5.870609   -1.260027   -1.053868
 H    5.638203    0.441504   -0.656284
 H    0.325143    2.827397   -0.270501
 H    4.414050    1.897370   -0.099066
 H   -0.701381   -0.584990   -0.659509
 H   -0.804409    0.589114   -1.964959
 H   -4.156296   -0.097122    2.636151
 H   -5.660739    0.375308    1.833334
 H   -3.310645    1.932240    1.717749
 H   -2.283179   -1.214758   -1.994588
 H   -3.425489   -3.379876   -2.169023
 H   -5.199075   -4.015664   -0.567528
 H   -5.853277   -2.444957    1.251164
 H   -5.506035    2.730734    0.839889
 H   -4.206953    2.990944   -0.341051
 H   -5.350571    1.640445   -0.554193
