61 
4bgx_ligand_ani.xyz
 C   -0.452028   -0.146867    2.277818
 C   -0.184120   -0.687526    0.850987
 C   -0.769213   -2.064383    0.598054
 C   -2.287807   -2.079685    0.519748
 C   -2.821438   -0.937645   -0.378142
 C   -2.147829    0.391082   -0.034378
 C   -2.370522    1.555346   -1.012995
 C   -3.760111    2.204136   -1.084308
 C   -4.247932    2.753585    0.256957
 C   -5.151172   -1.567007   -0.899238
 C   -6.599594   -1.167939   -0.724598
 N   -4.257790   -0.809816   -0.219656
 O   -0.820987   -1.097879    3.145953
 O   -0.341489    1.014390    2.587551
 O   -2.657090   -3.342692    0.020430
 O   -0.716434    0.231772   -0.068356
 O   -1.492626    2.612116   -0.640889
 O   -3.698616    3.268614   -2.018120
 O   -4.730963    1.682585    1.064098
 O   -4.806120   -2.523288   -1.595263
 C    4.854574   -1.371005   -0.765941
 C    5.894897   -0.262501   -0.827863
 C    5.812565    0.615836    0.408018
 C    4.385034    1.131585    0.576829
 C    3.404245   -0.041649    0.537777
 C    1.953469    0.407046    0.582784
 O    4.927592   -2.092152   -1.958615
 O    7.210995   -0.772991   -0.892287
 O    6.655163    1.744297    0.272683
 O    4.074207    2.020284   -0.470503
 O    3.563728   -0.819128   -0.642486
 O    1.193579   -0.787315    0.683946
 H   -0.379270   -2.409811   -0.365015
 H   -0.433215   -2.766685    1.362988
 H   -2.701694   -1.933020    1.531963
 H   -2.592410   -1.201887   -1.418341
 H   -2.450185    0.711881    0.970841
 H   -2.114712    1.207184   -2.027956
 H   -4.491758    1.493305   -1.475139
 H   -3.411203    3.270914    0.747691
 H   -5.047826    3.477545    0.052634
 H   -7.004520   -1.625655    0.184685
 H   -6.715225   -0.081780   -0.639467
 H   -7.170114   -1.537135   -1.578586
 H   -4.589673   -0.054827    0.373564
 H   -0.956060   -0.646339    3.995813
 H   -3.423638   -3.248180   -0.576796
 H   -0.693640    2.179875   -0.300641
 H   -2.901995    3.771442   -1.788993
 H   -4.936798    2.024729    1.941951
 H    5.051134   -2.030292    0.103951
 H    5.660808    0.359885   -1.703581
 H    6.099184    0.023051    1.292603
 H    4.300839    1.634287    1.557131
 H    3.591711   -0.685182    1.415321
 H    1.716178    0.956141   -0.336227
 H    1.772504    1.064543    1.444981
 H    4.058269   -2.492746   -2.088753
 H    7.260424   -1.312935   -1.692449
 H    7.494948    1.417472   -0.083268
 H    4.846827    2.599571   -0.557513
