88 
4bh3_ligand_ani.xyz
 C   -1.243200   -0.765641    1.097469
 C   -1.661787   -1.169412   -0.337824
 C   -2.564444   -2.408365   -0.374274
 C   -3.991928   -2.097635    0.061047
 C   -4.526586   -0.936766   -0.779402
 C   -3.617246    0.282580   -0.589426
 C   -4.061030    1.451754   -1.480130
 C   -3.105594    2.662452   -1.476563
 C   -2.871877    3.328432   -0.112407
 C   -6.372247   -0.359533    0.769169
 C   -7.878228   -0.336023    0.925158
 N   -5.915507   -0.632082   -0.489373
 O   -1.118495    0.393336    1.450055
 O   -0.955002   -1.779490    1.891423
 O   -4.849752   -3.201502   -0.173327
 O   -2.268021   -0.062456   -0.948024
 O   -4.208076    1.043963   -2.827492
 O   -1.903212    2.336434   -2.142957
 O   -1.773673    2.826638    0.614344
 O   -5.626058   -0.125940    1.707921
 C    3.604341   -1.370052   -0.126788
 C    4.371762   -2.677655   -0.261112
 C    3.936386   -3.420276   -1.513110
 C    2.426295   -3.642625   -1.482990
 C    1.696667   -2.320790   -1.233188
 C    0.218476   -2.554637   -0.963275
 O    5.766695   -2.465749   -0.367372
 O    4.544442   -4.697352   -1.565870
 O    2.103770   -4.534710   -0.439458
 O    2.224522   -1.648609   -0.094605
 O   -0.468671   -1.308864   -1.062217
 C    1.378866    2.468670    1.205054
 C    2.765836    2.802538    0.648096
 C    3.483197    1.492559    0.256910
 C    3.423393    0.481565    1.415532
 C    2.004248    0.362006    1.981065
 C    1.914526   -0.503856    3.229910
 C    3.454905    4.304186   -1.251324
 C    2.952084    5.413451   -2.147878
 N    2.518979    3.698724   -0.478836
 O    0.702530    3.641654    1.507388
 O    4.837686    1.652272   -0.030366
 O    3.983384   -0.785091    1.085398
 O    1.517761    1.653193    2.340741
 O    0.579461   -0.517861    3.714764
 O    4.648595    4.003051   -1.251442
 H   -2.146454   -3.205238    0.247509
 H   -2.603168   -2.765286   -1.409657
 H   -4.015786   -1.809461    1.120792
 H   -4.481108   -1.226668   -1.832103
 H   -3.661486    0.585060    0.467862
 H   -5.045688    1.783861   -1.131671
 H   -3.599719    3.405498   -2.114807
 H   -2.671747    4.390555   -0.288721
 H   -3.795903    3.266963    0.484235
 H   -8.175711   -1.142690    1.601959
 H   -8.418148   -0.444272   -0.020188
 H   -8.162260    0.608381    1.397106
 H   -6.591107   -0.989603   -1.146807
 H   -0.496062   -1.400876    2.691027
 H   -4.737817   -3.825715    0.553956
 H   -3.322886    1.145567   -3.217396
 H   -1.559991    1.545064   -1.689271
 H   -1.795427    1.855525    0.697485
 H    3.850022   -0.707112   -0.975275
 H    4.125544   -3.300893    0.609560
 H    4.207917   -2.827882   -2.402596
 H    2.103371   -4.048289   -2.458077
 H    1.798547   -1.673202   -2.119838
 H   -0.190202   -3.259724   -1.702151
 H    0.117930   -2.994967    0.035804
 H    6.034059   -1.984045    0.426631
 H    5.473057   -4.568916   -1.320554
 H    2.756188   -5.249626   -0.498126
 H    0.817316    1.906159    0.433730
 H    3.346103    3.306742    1.433732
 H    2.933227    1.096096   -0.620379
 H    4.069254    0.883319    2.204952
 H    1.338881   -0.058327    1.222581
 H    2.190821   -1.534602    2.992166
 H    2.596854   -0.132733    4.007686
 H    3.327461    5.236268   -3.158970
 H    3.379631    6.360941   -1.804899
 H    1.862417    5.503570   -2.176697
 H    1.620930    4.164522   -0.424337
 H   -0.253182    3.441659    1.465241
 H    4.944919    2.485382   -0.542011
 H    0.281129    0.407614    3.708417
