88 
4bh3_ligand_xtb.xyz
 C   -1.098674   -1.115532    0.996172
 C   -1.392324   -1.424169   -0.490825
 C   -2.179319   -2.723357   -0.694713
 C   -3.639770   -2.551024   -0.267461
 C   -4.243265   -1.332112   -0.985427
 C   -3.388361   -0.102156   -0.640408
 C   -3.888372    1.153753   -1.386045
 C   -3.188638    2.450412   -0.909966
 C   -3.483351    2.785063    0.584100
 C   -6.070571   -0.788267    0.602103
 C   -7.571909   -0.889416    0.755075
 N   -5.633941   -1.154402   -0.628580
 O   -1.291618   -0.011468    1.456499
 O   -0.544939   -2.093293    1.659898
 O   -4.415907   -3.673790   -0.619245
 O   -2.044299   -0.320998   -1.063154
 O   -3.735246    0.997346   -2.769612
 O   -1.812265    2.421552   -1.191623
 O   -2.401921    2.557058    1.449121
 O   -5.335811   -0.387354    1.481188
 C    3.763457   -0.893087    0.019924
 C    4.740729   -2.074749    0.040163
 C    4.528406   -2.904045   -1.231527
 C    3.056232   -3.331025   -1.346303
 C    2.137133   -2.107343   -1.187512
 C    0.680926   -2.551150   -1.047754
 O    6.076661   -1.646600    0.070319
 O    5.307742   -4.075002   -1.203695
 O    2.745433   -4.283944   -0.366206
 O    2.438241   -1.366866   -0.026715
 O   -0.146357   -1.405175   -1.155092
 C    0.855790    2.607216    1.155480
 C    2.184362    3.107212    0.548416
 C    3.071598    1.898916    0.191703
 C    3.187057    0.980874    1.422222
 C    1.788935    0.624928    1.949771
 C    1.842151   -0.244629    3.204662
 C    2.371724    4.195836   -1.754704
 C    1.543271    5.107553   -2.631984
 N    1.774962    3.922881   -0.583314
 O    0.096856    3.698895    1.498375
 O    4.370962    2.246268   -0.170896
 O    3.972858   -0.179718    1.193773
 O    1.077472    1.797017    2.286200
 O    0.545867   -0.652411    3.594246
 O    3.459371    3.766698   -2.106785
 H   -1.710349   -3.528077   -0.126656
 H   -2.154794   -2.970989   -1.758704
 H   -3.696267   -2.373420    0.818528
 H   -4.197966   -1.494498   -2.066596
 H   -3.441131    0.059920    0.440510
 H   -4.963360    1.249572   -1.205286
 H   -3.589165    3.262812   -1.528496
 H   -3.690944    3.853242    0.675837
 H   -4.368479    2.227320    0.914928
 H   -7.872464   -1.934618    0.723696
 H   -8.071508   -0.356727   -0.050132
 H   -7.864764   -0.463825    1.710110
 H   -6.293581   -1.603501   -1.243138
 H   -0.154347   -1.728674    2.521175
 H   -4.062321   -4.453032   -0.176655
 H   -2.784507    1.002469   -2.950122
 H   -1.461988    1.569633   -0.889550
 H   -2.165325    1.615878    1.463817
 H    3.978098   -0.274843   -0.873414
 H    4.508631   -2.690099    0.923772
 H    4.803166   -2.283276   -2.098316
 H    2.897042   -3.762800   -2.348453
 H    2.247737   -1.462194   -2.073497
 H    0.442172   -3.267774   -1.841689
 H    0.586376   -3.032528   -0.072287
 H    6.121035   -0.864710    0.634800
 H    6.200062   -3.812671   -0.944790
 H    3.512956   -4.872843   -0.310367
 H    0.354365    1.988925    0.380962
 H    2.702604    3.730135    1.290331
 H    2.556951    1.355115   -0.620813
 H    3.742485    1.520760    2.197044
 H    1.256215    0.086562    1.153047
 H    2.422390   -1.145344    3.004002
 H    2.309535    0.325891    4.014781
 H    2.042713    5.235614   -3.587937
 H    1.430946    6.078127   -2.154295
 H    0.556600    4.678361   -2.788628
 H    0.885528    4.370308   -0.397149
 H   -0.836109    3.420399    1.617401
 H    4.299063    2.841271   -0.956343
 H   -0.012552    0.140858    3.558094
