88 
4bh4_ligand_xtb.xyz
 C   -3.044513    2.295181   -1.233633
 C   -2.990764    1.186155   -0.162785
 C   -4.163045    1.468196    0.799149
 C   -5.477125    0.927697    0.245657
 C   -5.343556   -0.547616   -0.222849
 C   -3.894995   -1.040939   -0.244492
 C   -3.283272   -1.569973    1.079813
 C   -4.232281   -2.408282    1.957518
 C   -5.023575   -1.576908    2.981429
 C   -7.238523   -0.486592   -1.730968
 C   -7.704884   -0.633770   -3.157541
 N   -5.914631   -0.693745   -1.549625
 O   -2.542229    3.377727   -1.112017
 O   -3.780238    1.944730   -2.282340
 O   -6.464369    1.040355    1.234301
 O   -3.069288   -0.045991   -0.830216
 O   -2.139625   -2.333459    0.764606
 O   -5.092374   -3.162933    1.136813
 O   -5.935754   -2.472450    3.588434
 O   -7.977281   -0.221301   -0.799462
 C    1.746195    0.427460   -0.263280
 C    0.299666    0.145340    0.171741
 C   -0.569946    1.396675   -0.068699
 C    0.098585    2.674105    0.476298
 C    1.533845    2.778507   -0.044778
 C    2.290378    3.958785    0.579723
 O   -0.127497   -0.934635   -0.604734
 O   -1.825538    1.273210    0.612003
 O    0.123004    2.650760    1.879915
 O    2.262383    1.614739    0.291492
 O    3.560612    4.125915    0.017004
 C    6.299869   -2.189301   -0.281504
 C    6.269313   -0.695572    0.110536
 C    4.889648   -0.359404    0.672534
 C    3.828090   -0.711133   -0.383331
 C    4.019173   -2.149934   -0.899357
 C    3.120936   -2.391509   -2.120851
 C    8.547230   -0.008596    0.612217
 C    9.444081    0.572403    1.676627
 N    7.309585   -0.341425    1.049032
 O    7.526213   -2.620112   -0.709100
 O    4.855170    0.997486    1.031637
 O    2.528994   -0.620101    0.186509
 O    5.346461   -2.377411   -1.316441
 O    3.487100   -1.559557   -3.187803
 O    8.890954   -0.188237   -0.540835
 H   -3.956047    1.012282    1.765758
 H   -4.239944    2.544411    0.956845
 H   -5.757080    1.530934   -0.633426
 H   -5.944688   -1.178412    0.437525
 H   -3.841052   -1.873028   -0.958334
 H   -2.890676   -0.740042    1.671362
 H   -3.593156   -3.098373    2.535554
 H   -4.326363   -1.167566    3.723855
 H   -5.560973   -0.750526    2.504773
 H   -7.244924    0.131236   -3.779376
 H   -7.424890   -1.611017   -3.542833
 H   -8.784565   -0.524641   -3.196023
 H   -5.283908   -0.726831   -2.334351
 H   -3.813552    2.673495   -2.926435
 H   -7.292071    0.717457    0.831094
 H   -2.417151   -3.139301    0.309998
 H   -5.780561   -3.515466    1.718719
 H   -6.499809   -1.983319    4.194704
 H    1.764149    0.498184   -1.369277
 H    0.305668   -0.093978    1.242295
 H   -0.730967    1.483615   -1.147906
 H   -0.480275    3.541212    0.122171
 H    1.509336    2.887621   -1.140971
 H    1.739996    4.880717    0.385768
 H    2.344662    3.790527    1.661378
 H   -0.895770   -1.352490   -0.175920
 H   -0.746151    2.343178    2.168235
 H    4.074808    3.322048    0.168329
 H    6.011386   -2.817660    0.581283
 H    6.439106   -0.119997   -0.812009
 H    4.697238   -0.984884    1.562637
 H    3.924696   -0.017565   -1.228283
 H    3.742881   -2.842998   -0.090161
 H    3.196345   -3.448054   -2.409098
 H    2.086815   -2.154568   -1.862113
 H   10.439907    0.716792    1.268680
 H    9.494828   -0.097654    2.531233
 H    9.048395    1.531333    2.004861
 H    7.015475   -0.075247    1.974832
 H    8.017698   -1.880070   -1.111346
 H    3.919396    1.261938    1.069046
 H    4.430350   -1.702829   -3.342114
