29 
4bhf_ligand_ani.xyz
 N    1.740511   -0.355937    0.011108
 C    1.271607   -1.761241    0.155484
 O   -3.787120   -0.113004   -0.352271
 C   -2.489338   -0.294143   -0.047879
 O   -1.918035   -1.341547   -0.252672
 C   -1.867702    0.938269    0.567747
 C    0.522978    0.581932   -0.272536
 C    2.500202    0.024671    1.235013
 C    2.689347   -0.349812   -1.136247
 C   -0.404698    0.710747    0.944595
 C    0.940358    1.957066   -0.788656
 H    0.702409   -2.042625   -0.732892
 H    0.637584   -1.878506    1.034588
 H    2.140780   -2.418717    0.259743
 H   -4.099030   -0.951216   -0.733361
 H   -2.462848    1.196760    1.451109
 H   -1.991053    1.771759   -0.136183
 H   -0.002779    0.047443   -1.067565
 H    3.326112   -0.681768    1.370068
 H    1.855159   -0.019742    2.112139
 H    2.909102    1.032048    1.135287
 H    3.461627   -1.105437   -0.962798
 H    2.150880   -0.588358   -2.058402
 H    3.167497    0.625076   -1.229537
 H   -0.055382    1.534887    1.580257
 H   -0.355148   -0.196162    1.550316
 H    1.624937    2.457374   -0.094027
 H    0.057808    2.595896   -0.889177
 H    1.413486    1.904323   -1.772910
