19 
4bhz_ligand_ani.xyz
 C   -0.827074   -0.429061   -0.005130
 C   -1.370861    0.867846    0.000861
 C   -2.778075    0.988643    0.010272
 C   -3.540249   -0.146640    0.007889
 C   -1.722542   -1.521688   -0.011686
 C    2.764257   -1.354839    0.008622
 C    1.450528   -1.679655    0.005661
 C    0.598062   -0.532424   -0.002772
 C    1.318057    0.656908   -0.004478
 N    0.811350    1.912988   -0.006383
 S    3.036180    0.359192    0.000137
 C   -0.494284    1.995471   -0.002670
 N   -3.033683   -1.402432   -0.004962
 H   -3.239108    1.972721    0.019867
 H   -4.626769   -0.083550    0.015824
 H   -1.326864   -2.536519   -0.023600
 H    3.612095   -2.028679    0.016724
 H    1.100009   -2.708036    0.011447
 H   -0.928826    2.995728   -0.002447
