20 
4bi0_ligand_ani.xyz
 C    1.535391   45.264039   16.578507
 N    1.451128   44.781359   15.321876
 C    0.673244   43.727715   15.119938
 C   -0.020832   43.160633   16.189980
 N    0.931343   44.816874   17.665082
 C    0.146195   43.750327   17.451860
 C   -0.657628   43.002985   18.385004
 C   -0.888291   43.119635   19.755441
 C   -1.281255   41.983016   17.637209
 C   -2.143614   41.064009   18.243551
 C   -2.361264   41.194567   19.605675
 C   -1.744666   42.207960   20.360515
 N   -0.886338   42.089720   16.314965
 H    2.181873   46.128355   16.707697
 H   -1.195382   41.490249   15.568113
 H    0.603943   43.335800   14.105154
 H   -0.407515   43.906329   20.333834
 H   -1.941127   42.276837   21.426645
 H   -2.624145   40.277433   17.666967
 H   -3.027061   40.494157   20.103988
