21 
4bio_ligand_xtb.xyz
 O    3.484792   -0.509444   -0.536510
 O    2.811813    1.268491    0.588776
 O   -2.641711   -2.053916    0.040987
 C   -1.130209    2.592794   -0.105014
 C   -2.345504    1.890215   -0.103676
 C   -0.282054   -2.320316    0.109614
 C    0.981513   -1.729743    0.103241
 C    0.047612    1.894037   -0.057135
 N   -2.416439    0.587970   -0.061633
 C    2.528013    0.221496    0.072057
 C   -1.409259   -1.532400    0.045616
 C    1.159691   -0.360730    0.045393
 C    0.015133    0.483660    0.001978
 C   -1.267821   -0.116266   -0.008691
 H    3.132199   -1.304086   -0.958142
 H   -3.262530   -1.302611   -0.001193
 H   -1.134908    3.670624   -0.145045
 H   -3.291224    2.415155   -0.141295
 H   -0.386391   -3.391489    0.168656
 H    1.838558   -2.385111    0.191056
 H    0.997533    2.404197   -0.048914
