21 
4bis_ligand_ani.xyz
 O   -3.579276    0.050874   -0.666399
 O   -2.733359   -1.348320    0.835392
 O    3.469549    0.665496    0.135887
 C   -1.300339    1.778646   -0.024296
 C   -0.068290    2.462905    0.045103
 C    2.499270   -1.487157   -0.100080
 C    1.333780   -2.271140   -0.235538
 C   -1.307276    0.407408   -0.029322
 N    1.090775    1.849045    0.077607
 C    2.386569   -0.125881    0.019026
 C    0.079956   -1.709937   -0.226837
 C   -2.637878   -0.296131   -0.007240
 C   -0.067402   -0.302877   -0.077920
 C    1.096790    0.492558    0.006508
 H   -1.935644   -1.402657    1.383422
 H    3.119817    1.576141    0.179990
 H   -2.237764    2.324839   -0.053476
 H   -0.052523    3.550165    0.077354
 H    3.483673   -1.944620   -0.098878
 H    1.440462   -3.348020   -0.335255
 H   -0.799833   -2.333929   -0.351878
