67 
4bj9_ligand_xtb.xyz
 C    7.846254    1.228170   -0.925402
 C    6.850115    2.184619   -1.037473
 C    5.540484    1.899952   -0.682154
 C    5.191962    0.639883   -0.200916
 C    6.184158   -0.323463   -0.081457
 C    7.493319   -0.019570   -0.443912
 C    8.346607   -1.218508   -0.217602
 C    6.124216   -1.745061    0.405374
 N    7.494198   -2.165504    0.268701
 O    9.526605   -1.354903   -0.410429
 N    3.866747    0.294214    0.166226
 C    2.794082    1.077110    0.208647
 O    2.715815    2.267660   -0.053836
 C    1.477862    0.385446    0.663184
 N    0.444505    1.425599    0.548319
 C   -0.488953    1.223729   -0.585286
 C   -1.341720    2.480144   -0.765209
 N   -2.061981    2.734860    0.456413
 C   -1.178123    2.942811    1.581707
 C   -0.315370    1.699204    1.786783
 C   -3.355014    2.398351    0.706309
 C   -4.201190    2.050579   -0.521179
 C   -5.658710    1.781631   -0.130032
 C   -5.667823    0.247602    0.015409
 C   -4.674124   -0.148472   -1.096538
 O   -3.691461    0.852595   -1.123533
 O   -3.807443    2.401908    1.828831
 O   -6.511537    2.193034   -1.156779
 O   -6.915174   -0.321954   -0.250327
 N   -4.103316   -1.448842   -0.898536
 C   -3.074591   -3.265792   -0.181365
 C   -3.052627   -1.859576   -0.125734
 C   -4.695573   -2.602267   -1.358639
 N   -4.117611   -3.686411   -0.959829
 N   -1.187942   -3.244418    1.221856
 C   -1.271651   -1.931730    1.188444
 N   -2.132040   -1.153530    0.548773
 C   -2.085969   -3.965001    0.535295
 N   -2.000687   -5.297191    0.541806
 H    8.868597    1.432614   -1.198786
 H    7.087595    3.169540   -1.407077
 H    4.785880    2.662012   -0.778356
 H    5.459239   -2.368349   -0.209069
 H    5.795219   -1.810089    1.452043
 H    7.805799   -3.088936    0.518685
 H    3.755615   -0.675215    0.433475
 H    1.242271   -0.475055    0.035895
 H    1.578584    0.050981    1.697445
 H    1.052038    2.274828    0.312578
 H    0.085530    1.025972   -1.490490
 H   -1.148793    0.374796   -0.350878
 H   -0.707413    3.346649   -0.987968
 H   -2.025968    2.318824   -1.594019
 H   -0.554814    3.823042    1.395773
 H   -1.794434    3.116768    2.466274
 H   -0.962851    0.843088    1.991341
 H    0.378329    1.852999    2.614611
 H   -4.172918    2.864233   -1.255623
 H   -5.906909    2.290101    0.810646
 H   -5.264881   -0.047476    0.992375
 H   -5.223598   -0.178711   -2.052484
 H   -7.209347    1.527012   -1.258652
 H   -7.488432   -0.231893    0.520166
 H   -5.565891   -2.574288   -1.983147
 H   -0.519611   -1.419052    1.777438
 H   -2.708585   -5.833186    0.070946
 H   -1.313519   -5.748109    1.119826
