54 
4bjx_ligand_xtb.xyz
 C    2.673027    2.385567    1.840287
 C    2.693027    2.859668    0.387107
 C    2.892796    1.726930   -0.623253
 C    1.751642    0.701557   -0.571331
 N    2.010261   -0.328490    0.414100
 C    2.723135   -1.474812    0.189659
 C    2.714386   -2.479569    1.165352
 C    3.441663   -3.638723    1.003827
 C    4.192594   -3.819998   -0.147235
Cl    5.107533   -5.277080   -0.358245
 C    4.216754   -2.842678   -1.126672
 C    3.493219   -1.677609   -0.959259
 C    0.429084    1.356988   -0.257933
 C   -0.702306    0.554142   -0.249919
 C   -1.961067    1.059299    0.051949
 C   -2.060122    2.412529    0.373812
 C   -0.945261    3.221697    0.379516
 C    0.311468    2.716536    0.046001
 N    1.450044    3.546460    0.063937
 C    1.374680    4.853224   -0.344637
 C    2.627688    5.691902   -0.191115
 O    0.360025    5.330894   -0.804624
 C   -3.143960    0.191010    0.034798
 C   -4.362798    0.664938   -0.452624
 C   -5.477823   -0.146399   -0.479467
 C   -5.396926   -1.456832   -0.013044
 C   -4.184269   -1.937131    0.478991
 C   -3.072724   -1.122865    0.500824
 C   -6.562091   -2.362993   -0.025117
 O   -6.550241   -3.503774    0.368594
 O   -7.674721   -1.799560   -0.526690
 H    1.773133    1.815722    2.051615
 H    3.539657    1.762219    2.041132
 H    2.694855    3.242412    2.510378
 H    3.523691    3.555479    0.267656
 H    3.839883    1.223592   -0.428304
 H    2.934127    2.166555   -1.622394
 H    1.668118    0.221382   -1.557434
 H    1.418565   -0.329383    1.228908
 H    2.125943   -2.339053    2.060952
 H    3.425394   -4.402799    1.764930
 H    4.803597   -2.989459   -2.019831
 H    3.533222   -0.926155   -1.731436
 H   -0.594911   -0.487670   -0.517625
 H   -3.016325    2.828561    0.651689
 H   -1.044685    4.261314    0.641204
 H    3.029375    5.630389    0.817133
 H    2.352795    6.722236   -0.402365
 H    3.389603    5.389566   -0.906801
 H   -4.425160    1.673120   -0.834063
 H   -6.415539    0.224055   -0.862927
 H   -4.139338   -2.953411    0.840234
 H   -2.142194   -1.499291    0.899257
 H   -8.399397   -2.443557   -0.509334
