54 
4bjx_ligand_ani.xyz
 C    2.693652    2.484120    1.874619
 C    2.658390    2.856438    0.395795
 C    2.860613    1.676993   -0.557510
 C    1.710581    0.664989   -0.536077
 N    1.933363   -0.382145    0.456675
 C    2.747997   -1.482573    0.209710
 C    2.748569   -2.539293    1.132238
 C    3.564168   -3.645995    0.954968
 C    4.393137   -3.721646   -0.158073
Cl    5.416077   -5.110689   -0.387255
 C    4.405246   -2.691141   -1.087992
 C    3.591489   -1.579321   -0.906054
 C    0.371552    1.338652   -0.275531
 C   -0.776697    0.553974   -0.296380
 C   -2.041744    1.056227    0.002099
 C   -2.133280    2.412987    0.332096
 C   -1.017656    3.226423    0.333885
 C    0.246011    2.708457    0.006804
 N    1.400620    3.528143    0.038966
 C    1.325232    4.861522   -0.336480
 C    2.555638    5.716016   -0.100337
 O    0.323607    5.335207   -0.841847
 C   -3.232100    0.173664    0.004831
 C   -4.461299    0.613726   -0.502551
 C   -5.566648   -0.222655   -0.518191
 C   -5.462243   -1.519615   -0.007438
 C   -4.246275   -1.964054    0.513957
 C   -3.141750   -1.128119    0.512089
 C   -6.606196   -2.464546    0.002978
 O   -6.565278   -3.594368    0.435373
 O   -7.732914   -1.945881   -0.528105
 H    1.843903    1.852146    2.147601
 H    3.617154    1.945808    2.113480
 H    2.647629    3.388964    2.489924
 H    3.470089    3.556803    0.193604
 H    3.799412    1.167511   -0.313305
 H    2.947578    2.080889   -1.572249
 H    1.654841    0.194820   -1.532119
 H    1.138891   -0.587605    1.045143
 H    2.105387   -2.485659    2.007835
 H    3.555750   -4.454205    1.680328
 H    5.051007   -2.756159   -1.958984
 H    3.620562   -0.787375   -1.648283
 H   -0.690554   -0.492111   -0.586725
 H   -3.097709    2.840724    0.596093
 H   -1.127951    4.272833    0.584171
 H    2.942279    5.600240    0.916645
 H    2.270686    6.754422   -0.266054
 H    3.353443    5.454913   -0.804301
 H   -4.542287    1.618421   -0.911120
 H   -6.513853    0.123136   -0.919055
 H   -4.186279   -2.974066    0.906401
 H   -2.197443   -1.472690    0.925665
 H   -8.395372   -2.653079   -0.464931
