36 
4bny_ligand_ani.xyz
 N   -1.395469    1.707701    0.014877
 C   -1.485877    0.390274   -0.013160
 N   -0.466204   -0.479759   -0.027059
 C    0.782694   -0.016440   -0.069787
 C    0.999396    1.392713   -0.007953
 C   -0.140713    2.204046    0.034786
 C    0.183351    3.609684    0.117152
 C   -2.848133   -0.202203   -0.023642
 C   -3.009882   -1.588129   -0.044938
 C   -4.283389   -2.143152   -0.047611
 C    1.516405    3.822154    0.158957
 S    2.442912    2.365367    0.102029
 C   -3.972930    0.624152   -0.011480
 C   -5.245941    0.066813   -0.016190
 C   -5.403277   -1.316634   -0.032828
 C    3.026319   -0.781191   -0.859871
 N    1.785314   -0.947286   -0.104761
 C    1.444636   -2.351135    0.100566
 C    4.133385   -1.537130   -0.141535
 O    3.805125   -2.904839   -0.011105
 C    2.622469   -3.069040    0.742743
 H   -0.570909    4.387558    0.148016
 H   -2.131611   -2.227101   -0.062458
 H   -4.401107   -3.223855   -0.061650
 H    2.021692    4.777575    0.227996
 H   -3.838693    1.701293    0.001747
 H   -6.118283    0.715402   -0.006590
 H   -6.399568   -1.750374   -0.035019
 H    3.294380    0.270596   -0.950440
 H    2.911664   -1.193904   -1.874584
 H    1.200235   -2.826574   -0.862042
 H    0.559302   -2.415497    0.738291
 H    4.303547   -1.089842    0.850011
 H    5.065822   -1.486825   -0.712057
 H    2.428412   -4.144823    0.794795
 H    2.770965   -2.694073    1.767716
