36 
4bny_ligand_dft.xyz
 N   -1.410657    1.712077   -0.043329
 C   -1.490198    0.389637   -0.031691
 N   -0.449444   -0.464102   -0.030492
 C    0.794166    0.004913   -0.030614
 C    0.988792    1.408016   -0.011446
 C   -0.162115    2.209894   -0.016388
 C    0.147720    3.613327    0.060069
 C   -2.847716   -0.219061   -0.030289
 C   -3.006483   -1.606925   -0.065339
 C   -4.278167   -2.168287   -0.061248
 C    1.477166    3.837243    0.152963
 S    2.426941    2.382096    0.142576
 C   -3.981627    0.597601    0.006794
 C   -5.251703    0.034209    0.011209
 C   -5.404202   -1.350029   -0.022430
 C    3.025812   -0.741101   -0.791569
 N    1.819333   -0.915045    0.014651
 C    1.464032   -2.325226    0.152730
 C    4.160559   -1.563236   -0.194942
 O    3.809620   -2.924420   -0.100268
 C    2.661634   -3.086959    0.705939
 H   -0.613576    4.382609    0.057328
 H   -2.123573   -2.235452   -0.099515
 H   -4.390588   -3.248214   -0.089786
 H    1.982114    4.790956    0.230836
 H   -3.849384    1.673589    0.032357
 H   -6.126223    0.677540    0.041176
 H   -6.397574   -1.789436   -0.019229
 H    3.321259    0.307000   -0.837392
 H    2.834910   -1.080416   -1.821910
 H    1.162938   -2.746151   -0.818467
 H    0.615196   -2.412623    0.831504
 H    4.416742   -1.162091    0.799250
 H    5.043384   -1.508395   -0.836760
 H    2.446287   -4.157991    0.730852
 H    2.869418   -2.743712    1.732381
