33 
4bnz_ligand_xtb.xyz
 C    4.726889   -1.282133   -0.154837
 C    4.435399    0.062357   -0.069452
 C    3.094885    0.422173   -0.001410
 C    2.064333   -0.543775   -0.019021
 C    2.385831   -1.896414   -0.107737
 C    3.715771   -2.246799   -0.173149
 C    1.166081    1.507676    0.126021
 C    3.227127    2.904535    0.161386
 N    2.514412    1.661573    0.090982
 C   -3.764474    1.263667   -0.263086
 C   -5.134375    1.090739   -0.249521
 C   -5.675475   -0.163832   -0.023059
 C   -4.831647   -1.240830    0.188521
 C   -3.458501   -1.079782    0.177195
 C   -2.911617    0.180458   -0.049504
 C   -0.497167   -0.459756    0.090965
 N   -1.538719    0.424043   -0.066668
 O   -0.646619   -1.656747    0.241330
 C    0.824812    0.175854    0.058849
 H    5.758171   -1.598785   -0.208150
 H    5.219325    0.804857   -0.055639
 H    1.599906   -2.633795   -0.117027
 H    3.991501   -3.288818   -0.239550
 H    0.543098    2.379526    0.220566
 H    3.864566    2.930598    1.048833
 H    3.856899    3.033564   -0.722159
 H    2.518721    3.729565    0.212819
 H   -3.345942    2.245996   -0.439917
 H   -5.781484    1.939746   -0.415762
 H   -6.746608   -0.298780   -0.011623
 H   -5.245363   -2.222524    0.366091
 H   -2.804837   -1.919304    0.341490
 H   -1.292082    1.387997   -0.233774
