42 
4bo0_ligand_xtb.xyz
 C   -4.616255   -2.939472    0.096621
 O   -3.501079   -2.080845    0.058123
 C   -3.717956   -0.737874    0.017857
 C   -2.577081    0.081753   -0.008700
 C   -4.948325   -0.110380    0.001582
 C   -5.049734    1.287275   -0.037906
 C   -3.951630    2.110954   -0.062627
 C   -2.701677    1.489059   -0.048654
 N   -1.444928    1.989719   -0.068320
 C   -1.027043    3.357817   -0.110412
 N   -0.522293    0.999924   -0.042286
 C   -1.168963   -0.148308   -0.007017
 N   -0.582626   -1.384990    0.023421
 C    0.761320   -1.737011    0.013186
 O    1.063429   -2.912524    0.023270
 N    1.605819   -0.675121   -0.003968
 C    2.997503   -0.691403   -0.022890
 C    3.752086   -1.852711   -0.100603
 C    5.135856   -1.790921   -0.121852
 C    5.776249   -0.569966   -0.066410
 C    5.036852    0.602352    0.012891
 C    3.654080    0.555317    0.036060
 O    2.835310    1.657376    0.115824
 C    3.436142    2.922493    0.211307
 H   -5.226366   -2.760698    0.987227
 H   -5.235879   -2.829615   -0.798590
 H   -4.209713   -3.948756    0.133314
 H   -5.859869   -0.685696    0.019013
 H   -6.038086    1.722378   -0.048287
 H   -4.047187    3.184201   -0.090945
 H   -1.456626    3.864960   -0.977182
 H   -1.329400    3.886418    0.797307
 H    0.057919    3.363206   -0.187572
 H   -1.228566   -2.163616    0.041162
 H    1.174827    0.249787    0.006818
 H    3.242051   -2.800221   -0.141193
 H    5.708365   -2.703721   -0.183191
 H    6.854291   -0.514096   -0.083006
 H    5.556430    1.546790    0.056086
 H    4.069968    3.002918    1.100593
 H    4.029539    3.157318   -0.678801
 H    2.616680    3.635814    0.292992
