39 
4bo1_ligand_dft.xyz
 C    0.344385   -2.833741    1.170555
 O    0.706599   -2.372116   -0.122804
 C    1.632932   -1.352701   -0.097314
 C    2.989552   -1.637616   -0.113161
 C    3.918085   -0.607719   -0.103240
Cl    5.620867   -0.978665   -0.122948
 C    3.493825    0.727692   -0.076450
 O    4.456018    1.674618   -0.063236
 C    4.056163    3.028248   -0.035592
 C    2.127425    1.011643   -0.069066
 C    1.189699   -0.023063   -0.079774
 N   -0.195437    0.163997   -0.085692
 C   -0.882310    1.327439    0.060691
 O   -0.355785    2.424747    0.203158
 C   -2.397246    1.218547    0.046896
 C   -3.167189    0.015520   -0.082255
 N   -2.541133   -1.187886   -0.213799
 C   -3.256461   -2.279709   -0.340795
 C   -4.667242   -2.295634   -0.343200
 C   -5.325223   -1.102882   -0.207741
 C   -4.588548    0.099012   -0.073681
 C   -5.224841    1.357256    0.064245
 C   -4.473386    2.494334    0.187634
 C   -3.065628    2.415271    0.177238
 H    1.220007   -3.213983    1.711088
 H   -0.125151   -2.036173    1.760277
 H   -0.372812   -3.643733    1.023362
 H    3.315719   -2.671489   -0.138880
 H    3.470397    3.291921   -0.924656
 H    3.470319    3.255804    0.863274
 H    4.979552    3.607960   -0.024262
 H    1.763884    2.027792   -0.048155
 H   -0.761094   -0.679415   -0.212906
 H   -2.697096   -3.206311   -0.451111
 H   -5.201096   -3.233216   -0.451308
 H   -6.411314   -1.059881   -0.203331
 H   -6.310765    1.400415    0.068926
 H   -4.952746    3.462215    0.293098
 H   -2.465164    3.313235    0.274258
