39 
4bo1_ligand_xtb.xyz
 C    1.030609   -3.625042    0.069479
 O    0.617167   -2.281951    0.041232
 C    1.583446   -1.310087    0.021074
 C    2.945891   -1.554541    0.014279
 C    3.844271   -0.499322   -0.003103
Cl    5.537214   -0.832045   -0.012069
 C    3.409492    0.825884   -0.012825
 O    4.365234    1.791224   -0.026308
 C    3.949869    3.136640   -0.026621
 C    2.040394    1.066153   -0.008453
 C    1.124568    0.022286    0.007128
 N   -0.249981    0.217632    0.009792
 C   -0.934054    1.385374    0.007194
 O   -0.422878    2.494027    0.004171
 C   -2.428895    1.245288    0.011588
 C   -3.149969    0.018050   -0.010034
 N   -2.498789   -1.162974   -0.035282
 C   -3.168715   -2.280320   -0.058103
 C   -4.570296   -2.347054   -0.057496
 C   -5.268773   -1.170871   -0.030635
 C   -4.575104    0.057371   -0.006060
 C   -5.248225    1.294896    0.021583
 C   -4.536207    2.461340    0.042817
 C   -3.138184    2.427111    0.036685
 H    1.606000   -3.888673   -0.823655
 H    1.623999   -3.845073    0.962567
 H    0.115202   -4.214390    0.093429
 H    3.339060   -2.557200    0.022547
 H    3.358466    3.373375   -0.916037
 H    3.368043    3.376254    0.868288
 H    4.866487    3.724360   -0.032520
 H    1.653111    2.069872   -0.016821
 H   -0.822982   -0.635809    0.005357
 H   -2.570211   -3.181837   -0.078402
 H   -5.069614   -3.302949   -0.077551
 H   -6.350054   -1.161374   -0.028133
 H   -6.328899    1.298867    0.025161
 H   -5.043884    3.413809    0.063971
 H   -2.572870    3.347609    0.051651
