31 
4bo3_ligand_ani.xyz
 N   -3.907317   -1.162916   -1.420643
 F    4.684773    0.731503    1.335642
 O   -4.943601   -0.300514    0.714863
 S   -3.669863   -0.749408    0.181838
 O   -2.948567   -1.860341    0.802314
 F    3.876779    1.775850   -0.377520
 C    4.264498    0.565032    0.066288
 C    3.152446   -0.445209   -0.031435
 C    1.838728   -0.014970    0.118276
 C    0.805253   -0.949703    0.071775
 N   -0.547684   -0.620137    0.225590
 C   -1.181036    0.581875    0.055579
 C   -2.601923    0.660736    0.097453
 C   -3.218247    1.901257   -0.001772
 F    5.339642    0.196080   -0.653775
 C    3.462587   -1.784654   -0.233512
 C    2.428913   -2.715379   -0.270403
 C    1.113528   -2.305300   -0.110276
 N   -0.456581    1.681887   -0.146814
 C   -1.068800    2.862593   -0.274639
 C   -2.441878    3.035954   -0.198131
 H   -4.877041   -1.015861   -1.679063
 H   -3.611128   -2.118841   -1.588774
 H    1.594353    1.030217    0.256239
 H   -1.158356   -1.398040    0.460096
 H   -4.299382    1.966126    0.078376
 H    4.495376   -2.089029   -0.365491
 H    2.649653   -3.767416   -0.423570
 H    0.310233   -3.040254   -0.136538
 H   -0.413561    3.715406   -0.437114
 H   -2.889095    4.018930   -0.292265
