31 
4bo3_ligand_dft.xyz
 N   -3.290826   -1.184615   -1.704491
 F    4.596469    1.167302    0.897621
 O   -5.031185   -0.399934    0.031763
 S   -3.639737   -0.791887   -0.115865
 O   -3.094829   -1.905743    0.659289
 F    3.837268    1.550536   -1.088026
 C    4.224908    0.573020   -0.251224
 C    3.134822   -0.439315   -0.020402
 C    1.812401   -0.004631   -0.024899
 C    0.790763   -0.917069    0.248765
 N   -0.577900   -0.611465    0.237483
 C   -1.219957    0.593987    0.216876
 C   -2.640831    0.647591    0.133696
 C   -3.280878    1.874656    0.207802
 F    5.328418    0.011280   -0.775021
 C    3.468996   -1.761858    0.247558
 C    2.446985   -2.666487    0.515654
 C    1.124188   -2.252227    0.517692
 N   -0.505240    1.720045    0.289065
 C   -1.141188    2.889330    0.330936
 C   -2.521483    3.033444    0.319327
 H   -3.899175   -0.693402   -2.353442
 H   -3.352521   -2.191879   -1.826527
 H    1.573668    1.028228   -0.228302
 H   -1.188398   -1.407135    0.386651
 H   -4.364832    1.905880    0.169957
 H    4.505104   -2.080003    0.242675
 H    2.681837   -3.705144    0.725316
 H    0.334634   -2.968747    0.730823
 H   -0.496828    3.764042    0.383606
 H   -2.983579    4.011311    0.378421
