39 
4bo4_ligand_ani.xyz
 C   -2.430682   -2.255131    0.366510
 C   -3.098873   -2.135713   -0.995947
 C   -3.158891    0.347587   -0.418142
 C   -3.621785    1.650004   -0.608089
 C   -3.076214    2.726944    0.081663
 C   -2.059918    2.500956    1.006264
 C   -1.567892    1.216717    1.194279
 C   -2.055393    0.150337    0.426380
 C   -0.129571   -1.466177    0.504508
 O    0.236015   -2.608557    0.737064
 N    0.727478   -0.436736    0.190643
 C   -3.876562   -0.819431   -1.072834
 C    2.128152   -0.515508    0.027280
 C    2.867996   -1.688810    0.065711
 C    4.249377   -1.648176   -0.122358
 C    4.895777   -0.442478   -0.343196
 C    4.167663    0.746746   -0.379214
 C    2.792247    0.709358   -0.196833
 N   -1.493119   -1.145312    0.524552
 O    1.979848    1.806580   -0.218282
 C    2.588689    3.068848   -0.381282
 H   -1.860035   -3.176820    0.478392
 H   -3.173632   -2.206119    1.174161
 H   -3.766026   -2.986747   -1.173203
 H   -2.321067   -2.161195   -1.767292
 H   -4.442240    1.817102   -1.304084
 H   -3.459687    3.730572   -0.081995
 H   -1.640836    3.325406    1.574990
 H   -0.790601    1.038520    1.932738
 H    0.345551    0.460444   -0.072301
 H   -4.849532   -0.947660   -0.574774
 H   -4.106469   -0.571628   -2.116383
 H    2.358255   -2.625912    0.242848
 H    4.814213   -2.576163   -0.091946
 H    5.972891   -0.415321   -0.488839
 H    4.679591    1.688007   -0.550419
 H    3.307056    3.274900    0.422867
 H    3.099889    3.145517   -1.349630
 H    1.780547    3.800808   -0.339957
