31 
4bo6_ligand_ani.xyz
 C   -1.500491   -1.277400   -0.054243
 C   -2.482845   -2.207253   -0.058438
 C   -3.739308   -1.508475   -0.023825
 C   -5.075950   -1.935895   -0.011334
 C   -6.077715   -0.985234    0.021478
 C   -5.770357    0.387734    0.042322
 C   -4.461519    0.837003    0.031871
 C   -3.455655   -0.133514   -0.000510
 N   -2.051639    0.011999   -0.017242
 C   -1.390480    1.244343   -0.000675
 O   -2.013479    2.292728    0.016191
 C    0.103077    1.314535   -0.003983
 N    0.979319    0.248377   -0.000675
 C    0.698088    2.545079   -0.007552
 S    2.396069    2.386816   -0.010010
 C    2.212902    0.656058   -0.001870
 C    3.351792   -0.261794    0.006497
 C    3.189767   -1.684814    0.058222
 C    4.377679   -2.342136    0.058802
 S    5.709348   -1.249429   -0.004118
 C    4.670366    0.108934   -0.031068
 H   -0.425130   -1.355565   -0.072565
 H   -2.360904   -3.281870   -0.083234
 H   -5.314753   -2.996289   -0.027245
 H   -7.118127   -1.298823    0.031197
 H   -6.579899    1.112700    0.066901
 H   -4.213621    1.889739    0.047351
 H    0.187825    3.496961   -0.008084
 H    2.220832   -2.172784    0.094913
 H    4.553857   -3.409732    0.093246
 H    5.081220    1.109993   -0.074713
