31 
4bo7_ligand_ani.xyz
 N    4.952390   -0.894820   -0.014698
 C    3.960894   -0.020198    0.011610
 C    3.872104    1.401921    0.061766
 C    2.628882    1.935084    0.073590
 C   -2.128957    2.095835   -0.033450
 C   -3.451238    1.672488   -0.077157
 C   -3.724997    0.309740   -0.078820
 C   -5.051066   -0.410003   -0.128783
 C   -4.686354   -1.844184    0.312322
 N    4.364789   -2.099448   -0.059979
 N    3.071334   -2.018155   -0.063136
 N    2.797894   -0.710900   -0.018373
 N    1.540716   -0.230219   -0.008102
 C    1.459575    1.076139    0.035758
 N    0.233954    1.699313    0.047945
 C   -1.069892    1.172516    0.003748
 C   -1.345920   -0.200084   -0.000685
 C   -2.671064   -0.603096   -0.040270
 C   -3.200021   -2.019879   -0.061961
 H    4.773891    1.999134    0.088057
 H    2.497059    3.014597    0.111483
 H   -1.911940    3.162504   -0.030900
 H   -4.256298    2.404779   -0.109522
 H   -5.448124   -0.398739   -1.153064
 H   -5.808858    0.047866    0.515774
 H   -5.332605   -2.605368   -0.135216
 H   -4.791123   -1.919312    1.400490
 H    0.269946    2.706016    0.075866
 H   -0.521883   -0.907405    0.026371
 H   -3.089019   -2.444635   -1.068868
 H   -2.660263   -2.677506    0.627907
