37 
4bo8_ligand_dft.xyz
 F    5.334679    1.277516    0.188449
 C    4.900869    0.005598    0.223152
 C    5.678837   -0.968212    0.820097
 C    5.213991   -2.280514    0.841652
 C    3.995161   -2.594555    0.248576
 C    3.234439   -1.606703   -0.370072
 C    3.669844   -0.279493   -0.372162
 N    2.964998    0.774484   -0.982660
 C    1.619831    1.063603   -0.956508
 O    1.155477    2.011676   -1.560508
 N    0.851453    0.191625   -0.188747
 N   -0.484350    0.470772   -0.045547
 C   -1.509732   -0.414275   -0.342418
 C   -1.049306    1.566238    0.554264
 N   -0.263099    2.613942    1.005261
 N   -2.342821    1.432975    0.656070
 C   -2.645645    0.192309    0.110334
 C   -4.031922   -0.292968    0.062201
 C   -4.352091   -1.541407   -0.483070
 C   -5.668658   -1.984073   -0.517352
 C   -6.689976   -1.186771   -0.006109
 C   -6.380235    0.056579    0.538268
 C   -5.063448    0.501263    0.572215
 H    6.626607   -0.686639    1.265298
 H    5.809612   -3.053864    1.314912
 H    3.637116   -3.618717    0.248311
 H    2.300929   -1.857017   -0.861726
 H    3.511580    1.532223   -1.366341
 H    1.283070   -0.194596    0.643757
 H   -1.306296   -1.342871   -0.850790
 H    0.286054    3.012952    0.247664
 H   -0.852722    3.319843    1.429512
 H   -3.566662   -2.175845   -0.885369
 H   -5.898166   -2.955919   -0.945062
 H   -7.719080   -1.532785   -0.032914
 H   -7.169521    0.686406    0.938878
 H   -4.813466    1.469470    0.992865
