25 
4bqg_ligand_ani.xyz
 C   -2.540624   -1.503183    0.945147
 C   -2.286942    0.336157   -0.592337
 C   -0.968363   -0.043405   -0.826107
 O    5.279252   -0.192096   -1.359237
 C    4.137183   -0.106701   -0.629188
 C    4.128870    0.802154    0.426039
 C    2.982886    0.917751    1.200487
 O    3.017391    1.815593    2.219898
 C    1.843060    0.148208    0.943059
 C   -1.229468   -1.891034    0.709731
 C   -3.077304   -0.392138    0.299269
 C   -0.448651   -1.151854   -0.168634
Cl   -4.719998    0.051184    0.621954
 O    0.834677   -1.586671   -0.417381
Cl   -2.908023    1.720774   -1.421220
 C    1.882324   -0.745128   -0.124160
 C    3.019193   -0.890833   -0.911368
 H   -3.164541   -2.064553    1.633319
 H   -0.355212    0.528963   -1.515374
 H    5.158766   -0.851570   -2.053767
 H    5.002572    1.407030    0.638880
 H    2.167559    1.806122    2.678203
 H    0.949151    0.249579    1.549822
 H   -0.799175   -2.757793    1.199728
 H    3.013701   -1.615640   -1.721156
