25 
4bqg_ligand_xtb.xyz
 C   -2.773750   -1.662426    0.698521
 C   -2.198198    0.395345   -0.394560
 C   -0.863818    0.024907   -0.401454
 O    5.235059   -0.722762   -1.281788
 C    4.122097   -0.376050   -0.591906
 C    4.140432    0.812845    0.124320
 C    3.021773    1.196613    0.850778
 O    3.084061    2.357166    1.547476
 C    1.879772    0.402661    0.858763
 C   -1.445520   -2.034470    0.701691
 C   -3.160001   -0.443522    0.159490
 C   -0.477975   -1.189455    0.158785
Cl   -4.820862    0.017237    0.173369
 O    0.801497   -1.647308    0.144642
Cl   -2.653892    1.905487   -1.087325
 C    1.866313   -0.776212    0.126204
 C    2.982735   -1.172608   -0.595584
 H   -3.522720   -2.313501    1.119841
 H   -0.132929    0.676973   -0.853965
 H    5.095553   -1.565880   -1.730266
 H    5.021012    1.431453    0.123531
 H    2.252452    2.511280    2.012158
 H    1.015637    0.691631    1.440818
 H   -1.136699   -2.979651    1.117546
 H    2.950438   -2.101131   -1.145365
