27 
4bqs_ligand_ani.xyz
 O    3.410300    0.620916    0.568323
 C    2.665616   -0.293465   -0.093460
 O    3.160575   -1.069744   -0.877649
 C    1.217420   -0.241691    0.241582
 C    0.710331    0.707182    1.040442
 C    0.373970   -1.346547   -0.322634
 C   -1.106777   -0.944351   -0.483670
 O   -1.881563   -2.099820   -0.740314
 C   -1.320962   -0.033454   -1.668270
 C   -1.154147    1.286082   -1.768892
 C   -0.788310    2.302752   -0.712589
 O   -1.250245    2.074544    0.601457
 C   -0.764136    0.903684    1.246958
 C   -1.603724   -0.307986    0.821585
 O   -1.541897   -1.343725    1.796676
 H    4.320322    0.475558    0.261851
 H    1.351216    1.456794    1.496702
 H    0.413865   -2.222830    0.339397
 H    0.783234   -1.676460   -1.284050
 H   -1.956215   -2.555876    0.113178
 H   -1.618505   -0.577866   -2.561497
 H   -1.233561    1.722974   -2.766141
 H   -1.219392    3.267634   -0.996033
 H    0.305941    2.433277   -0.709049
 H   -0.942428    1.100278    2.308726
 H   -2.636717    0.035356    0.670707
 H   -2.120807   -1.109429    2.531944
