45 
4bs5_ligand_ani.xyz
 F   -1.167480    1.425769   -1.343990
 C   -2.489885    1.578844   -1.142947
 F   -3.133262    0.978961   -2.151923
 F   -2.736727    2.900860   -1.263281
 C   -2.934146    1.057514    0.210652
 C   -3.521079    1.970891    1.088624
 C   -4.003462    1.576322    2.329216
 C   -3.914261    0.242997    2.709295
 C   -3.327884   -0.678665    1.854339
 C   -2.806978   -0.276643    0.624937
 S   -1.971992   -1.589096   -0.269674
 O   -1.719285   -1.194631   -1.652843
 O   -2.702577   -2.823825    0.017854
 C   -0.331853   -1.751399    0.529142
 C    0.541544   -2.547926   -0.445046
 N    0.952556   -1.516908   -1.437893
 C    1.224976   -0.280345   -0.649398
 C    0.436892   -0.426232    0.675670
 C    2.748949   -0.184501   -0.517116
 O    3.465398   -0.861411   -1.238239
 N    3.261026    0.689273    0.391756
 C    4.679924    0.894700    0.485980
 C    5.179501    2.309946    0.634215
 C    5.391158    1.582512   -0.654503
 C    5.458279   -0.158093    1.198129
 N    5.026776   -1.147039    1.859910
 H   -3.600494    3.006602    0.778141
 H   -4.456460    2.307393    2.992565
 H   -4.303068   -0.081819    3.670167
 H   -3.272671   -1.729300    2.121055
 H   -0.514864   -2.264348    1.474442
 H    1.420018   -2.936829    0.077311
 H    0.008925   -3.373696   -0.914626
 H    1.827717   -1.748094   -1.939138
 H    0.155348   -1.352583   -2.076812
 H    0.882204    0.587716   -1.212200
 H   -0.215793    0.429968    0.867856
 H    1.117312   -0.517950    1.528487
 H    2.651531    1.250891    0.968119
 H    4.435374    3.101034    0.648071
 H    6.026529    2.477878    1.293567
 H    6.385221    1.226577   -0.911132
 H    4.778219    1.879652   -1.497845
 H    6.542258   -0.020602    1.131390
 H    4.000961   -1.165146    1.850370
