53 
4bsq_ligand_dft.xyz
 O   -2.803226   -2.740677    0.268316
 S   -2.811129   -1.479491   -0.470488
 O   -2.757042   -1.466238   -1.931610
 C   -4.241917   -0.538428    0.034437
 C   -4.750081   -0.713029    1.318949
 C   -5.844484    0.046773    1.717875
 C   -6.415873    0.962795    0.836991
 C   -5.904080    1.119181   -0.448917
 C   -4.810392    0.364285   -0.859375
 C   -1.422275   -0.502860    0.147846
 C   -1.359576    0.937897   -0.398747
 C   -0.095527   -1.161637   -0.249113
 C    0.891269    0.003738   -0.088766
 C    0.127151    1.199359   -0.702989
 C    0.666053    2.497846   -0.111661
 N    1.863691    2.880878   -0.645777
 C    2.666660    3.922436   -0.060201
 C    3.794150    3.399696    0.813787
 N    4.022826    2.196002    1.139075
 O    0.118823    3.096116    0.800381
 C    2.244094   -0.220222   -0.760859
 O    2.463799    0.229424   -1.886471
 N    3.195662   -0.895020   -0.067303
 C    3.074368   -1.445120    1.278127
 C    3.607331   -2.876969    1.285219
 O    4.928186   -2.938981    0.802309
 C    5.008403   -2.459425   -0.524919
 C    4.544174   -1.012080   -0.617272
 H   -4.305325   -1.447661    1.982569
 H   -6.256787   -0.081677    2.713620
 H   -7.270391    1.553365    1.153129
 H   -6.359599    1.825659   -1.135427
 H   -4.406927    0.454224   -1.862371
 H   -1.538464   -0.508986    1.236424
 H   -1.735785    1.655885    0.332326
 H   -1.949084    1.035757   -1.313664
 H    0.139678   -2.038861    0.358788
 H   -0.130022   -1.468676   -1.301065
 H    1.032043    0.204865    0.980621
 H    0.309112    1.181805   -1.780796
 H    2.262810    2.292712   -1.369605
 H    3.090746    4.560881   -0.844371
 H    2.007702    4.549694    0.549010
 H    4.473699    4.168047    1.195289
 H    3.310199    1.593406    0.712621
 H    3.659502   -0.824100    1.969200
 H    2.035343   -1.448940    1.606841
 H    2.944921   -3.511501    0.672886
 H    3.624797   -3.267588    2.305534
 H    4.395564   -3.087170   -1.191771
 H    6.055371   -2.544692   -0.824636
 H    4.520689   -0.666258   -1.650303
 H    5.212001   -0.363934   -0.034875
