109 
4bt9_ligand_ani.xyz
 N   -0.121082    0.490101   -0.817047
 C   -0.249935    1.871437   -1.349708
 C   -1.673567    2.409847   -1.106591
 O   -2.611872    1.644069   -0.922191
 C    0.057801    1.748050   -2.857577
 C   -0.482464    0.360980   -3.209996
 C   -0.170195   -0.470652   -1.957753
 N   -1.851124    3.761504   -1.152128
 C   -0.794223    4.769855   -1.109499
 C   -0.040710    4.684187    0.225236
 O   -0.641899    4.665706    1.301456
 C   -1.568380    6.093715   -1.236701
 C   -2.925330    5.790181   -0.588297
 C   -3.190460    4.323447   -0.938140
 N    1.306411    4.609869    0.176267
 C    2.066630    4.174883    1.329473
 C    3.090896    3.146809    0.855880
 O    3.703784    3.333843   -0.187453
 N    3.293549    2.042565    1.622282
 C    4.242463    1.039799    1.166635
 C    3.690467    0.240220   -0.021329
 O    2.481515    0.078735   -0.177579
 C    4.351730    0.105600    2.383970
 C    2.937077    0.139906    2.976646
 C    2.431206    1.564306    2.707151
 N    4.582998   -0.373557   -0.844565
 C    4.103221   -1.518183   -1.619637
 C    3.613993   -2.610143   -0.655665
 O    4.146537   -2.791881    0.432155
 C    5.354483   -1.969472   -2.376365
 C    6.473098   -1.707436   -1.363214
 C    6.035376   -0.430774   -0.629631
 N    2.574781   -3.369794   -1.088759
 C    1.875171   -4.218561   -0.157005
 C    0.383955   -4.187248   -0.485592
 O   -0.012369   -3.738829   -1.557003
 N   -0.472927   -4.668202    0.446191
 C   -1.907376   -4.514429    0.246585
 C   -2.307385   -3.030115    0.179601
 O   -1.561246   -2.149167    0.606757
 C   -2.516332   -5.204820    1.483357
 C   -1.421978   -5.067191    2.545054
 C   -0.129817   -5.235731    1.748470
 N   -3.532124   -2.735713   -0.330466
 C   -3.888919   -1.358284   -0.713828
 C   -4.341344   -0.457931    0.456597
 O   -5.408717    0.138558    0.421683
 C   -5.010801   -1.547279   -1.731194
 C   -5.692792   -2.832118   -1.261390
 C   -4.521242   -3.709544   -0.814744
 N   -3.467396   -0.335803    1.496215
 C   -3.508917    0.837647    2.326569
 C   -2.336321    1.759432    2.015540
 O   -1.238813    1.350201    1.676204
 O   -2.642787    3.034881    2.192816
 H    0.777206    0.382513   -0.315498
 H   -0.862083    0.327254   -0.115790
 H    0.484516    2.496924   -0.839908
 H   -0.387421    2.555775   -3.447929
 H    1.144325    1.790662   -2.999188
 H   -1.564590    0.405093   -3.369512
 H   -0.023735   -0.061278   -4.108222
 H   -0.905923   -1.252143   -1.764419
 H    0.809122   -0.952614   -2.038874
 H   -0.087968    4.635898   -1.936823
 H   -1.692839    6.329896   -2.298329
 H   -1.042922    6.929142   -0.764575
 H   -3.716313    6.454909   -0.945485
 H   -2.849727    5.901476    0.496710
 H   -3.688409    3.773220   -0.134913
 H   -3.792424    4.207929   -1.847770
 H    1.809623    4.596806   -0.701154
 H    1.365360    3.772680    2.066466
 H    2.583049    5.025199    1.795844
 H    5.185511    1.520095    0.893361
 H    4.654754   -0.910500    2.109412
 H    5.085507    0.513894    3.086486
 H    2.919880   -0.116789    4.038610
 H    2.304070   -0.574309    2.441305
 H    2.532062    2.216809    3.583878
 H    1.378798    1.568301    2.395698
 H    3.287033   -1.209294   -2.279558
 H    5.297282   -3.014921   -2.695799
 H    5.481166   -1.348897   -3.269883
 H    7.455093   -1.601651   -1.831396
 H    6.514040   -2.531203   -0.646446
 H    6.268969   -0.493132    0.439737
 H    6.513262    0.472130   -1.030955
 H    2.046956   -3.127816   -1.917183
 H    2.066457   -3.847665    0.856077
 H    2.250009   -5.251510   -0.191839
 H   -2.204554   -5.003398   -0.687040
 H   -2.712979   -6.257420    1.250832
 H   -3.461261   -4.754158    1.805184
 H   -1.515367   -5.793950    3.355749
 H   -1.454396   -4.060829    2.974891
 H    0.157823   -6.291689    1.650325
 H    0.707485   -4.702082    2.207361
 H   -3.012102   -0.867137   -1.155995
 H   -4.578912   -1.681131   -2.729179
 H   -5.677770   -0.684544   -1.748255
 H   -6.343276   -2.614230   -0.408846
 H   -6.294148   -3.308955   -2.039812
 H   -4.121257   -4.286121   -1.661062
 H   -4.806940   -4.414054   -0.028010
 H   -2.569931   -0.809483    1.413466
 H   -3.465203    0.568566    3.391054
 H   -4.450989    1.363187    2.142537
 H   -1.875068    3.596510    1.926517
