37 
4btk_ligand_ani.xyz
 N   -0.744133   -2.185066    0.102758
 C    0.286070   -3.055655    0.220325
 N    1.566660   -2.799404    0.243752
 C    1.901899   -1.482287    0.134831
 C    0.938115   -0.466465    0.018232
 C   -0.435182   -0.908343    0.029835
 C    3.275563   -1.138993    0.138672
 C    3.681282    0.162311    0.023600
 C    2.702836    1.206836   -0.101078
 C    1.367572    0.888139   -0.110843
 N   -1.420768    0.043843   -0.028566
 C   -2.826011   -0.066444   -0.091557
 C   -3.557320    1.048995    0.321900
 C   -4.946533    1.044032    0.258720
 C   -5.621463   -0.073992   -0.229442
 C   -4.881072   -1.174494   -0.645900
 C   -3.494060   -1.191761   -0.586553
 O   -5.593161    2.165102    0.683560
 O    4.970779    0.570301    0.015084
 C    5.954877   -0.436569    0.102224
 O    3.207999    2.460849   -0.203375
 C    2.283552    3.519994   -0.315057
 H   -0.002492   -4.102331    0.298273
 H    3.977764   -1.957978    0.233827
 H    0.628053    1.671751   -0.242431
 H   -1.095973    0.987047    0.115044
 H   -3.056780    1.935007    0.704854
 H   -6.708192   -0.083395   -0.285104
 H   -5.401878   -2.048861   -1.027249
 H   -2.927433   -2.055560   -0.909653
 H   -6.544642    2.038055    0.580568
 H    5.876203   -0.991846    1.045877
 H    5.884246   -1.137421   -0.739763
 H    6.915937    0.077693    0.064574
 H    1.683097    3.433928   -1.230138
 H    1.616429    3.562705    0.555798
 H    2.877670    4.433765   -0.359684
