75 
4btt_ligand_xtb.xyz
 C    2.540609    3.650498    0.693464
 C    3.915783    3.894252    0.847888
 C    4.673262    3.058104    0.081450
Cl    6.377325    3.021452   -0.008023
 S    3.716393    1.952276   -0.852644
 C    2.267220    2.633550   -0.183615
 C    0.986843    2.108554   -0.544562
 C    0.626175    1.065316   -1.363159
 O   -0.125505    2.667103   -0.024801
 N   -1.209083    2.004451   -0.492058
 C   -0.782932    1.049224   -1.286199
 C   -1.733049    0.113715   -1.944041
 C   -2.555828   -0.650213   -0.882805
 C   -3.962144   -0.985081   -1.395302
 O   -4.222841   -2.128511   -1.730037
 N   -4.842852    0.025863   -1.483818
 C   -4.680012    1.355190   -0.934513
 C   -5.467335    1.478202    0.371734
 C   -6.952512    1.180622    0.114285
 O   -7.730238    1.147296    1.292884
 C   -7.944435    2.394163    1.902551
 C   -7.085152   -0.194182   -0.544645
 C   -6.225372   -0.278717   -1.803621
 N   -1.893609   -1.885386   -0.531539
 S   -1.563162   -2.055170    1.096984
 O   -2.506574   -1.302604    1.879769
 O   -1.418048   -3.451042    1.381194
 C    0.029381   -1.231046    1.241936
 C    1.161890   -1.714556    0.597917
 C    1.100271   -2.932848   -0.271804
 C    1.507152   -4.185077    0.509264
 C    0.064984   -0.126425    2.070399
 C    1.262826    0.527549    2.295757
 C    2.412418    0.058084    1.687342
 C    2.366272   -1.043162    0.841587
 N    3.589359   -1.499758    0.264482
 C    4.621140   -1.930750    1.192600
 C    5.587858   -2.861562    0.466851
 O    6.143022   -2.182586   -0.629938
 C    5.161323   -1.867836   -1.585251
 C    3.823206   -1.367951   -1.059210
 O    2.995944   -0.921980   -1.834871
 H    1.769168    4.196301    1.204626
 H    4.329559    4.648051    1.491590
 H    1.273044    0.408361   -1.904935
 H   -2.404712    0.674088   -2.597218
 H   -1.180695   -0.607239   -2.545806
 H   -2.636997   -0.053202    0.029207
 H   -3.631832    1.596967   -0.767801
 H   -5.082413    2.064111   -1.668473
 H   -5.083659    0.762923    1.101775
 H   -5.339600    2.484683    0.771096
 H   -7.356411    1.955893   -0.563866
 H   -8.336534    3.125234    1.183982
 H   -7.031000    2.795511    2.354389
 H   -8.682663    2.226206    2.684469
 H   -8.130451   -0.383395   -0.787584
 H   -6.761134   -0.948368    0.173183
 H   -6.575542    0.438227   -2.553630
 H   -6.258990   -1.285124   -2.222354
 H   -2.417025   -2.675051   -0.909091
 H    1.752296   -2.800155   -1.134756
 H    0.080134   -3.059734   -0.627610
 H    1.520550   -5.045198   -0.155069
 H    0.780570   -4.368826    1.295993
 H    2.494286   -4.072446    0.953120
 H   -0.853779    0.194713    2.534059
 H    1.303419    1.391958    2.939521
 H    3.355959    0.553047    1.863235
 H    5.181941   -1.066882    1.570450
 H    4.143423   -2.436591    2.035359
 H    6.419708   -3.138144    1.116125
 H    5.064249   -3.770863    0.135814
 H    4.934074   -2.749375   -2.209042
 H    5.583001   -1.097357   -2.234664
