45 
4btw_ligand_xtb.xyz
 C   77.556015  133.508607   -7.646254
 C   77.239278  133.397551   -9.135275
 C   77.728826  134.634702   -9.882064
 C   77.100020  135.894397   -9.294905
 C   77.419616  136.006949   -7.807858
 C   76.918791  134.765790   -7.057256
 N   77.236182  134.842007   -5.650557
 C   76.550887  135.539633   -4.733106
 C   75.359245  136.197411   -4.943343
 C   74.655012  136.885787   -3.912284
 O   73.614714  137.503479   -4.056807
 N   75.283061  136.827134   -2.641029
 C   74.743627  137.488374   -1.512493
 C   73.374296  137.520010   -1.279142
 C   72.890732  138.169550   -0.157261
 C   73.757803  138.773527    0.737198
 C   75.123281  138.730841    0.507253
 C   75.617278  138.094007   -0.614374
 N   76.441184  136.237078   -2.427659
 C   77.066794  135.613983   -3.382393
 C   78.324910  135.013402   -3.007357
 N   78.826046  135.052160   -1.736506
 C   80.011295  134.393311   -1.821786
 N   80.216150  133.989313   -3.038855
 N   79.170231  134.371707   -3.781402
 H   77.186311  132.629094   -7.115919
 H   78.637794  133.558410   -7.503910
 H   77.711829  132.503209   -9.545216
 H   76.159802  133.296871   -9.269911
 H   75.829739  134.696325   -7.164760
 H   78.815846  134.700797   -9.800340
 H   77.476713  134.552731  -10.940887
 H   77.471553  136.776733   -9.819055
 H   76.016719  135.856825   -9.430679
 H   78.499535  136.090622   -7.666604
 H   76.954959  136.900981   -7.387738
 H   78.141292  134.485130   -5.350965
 H   74.896079  136.235402   -5.915191
 H   72.696695  137.051900   -1.972753
 H   76.678130  138.065148   -0.812630
 H   71.826137  138.197728    0.020056
 H   73.372073  139.277713    1.610575
 H   75.805358  139.202142    1.199504
 H   78.376398  135.479429   -0.943965
 H   80.676764  134.235101   -0.999098
