45 
4btw_ligand_ani.xyz
 C   77.617059  133.542898   -7.684846
 C   77.243753  133.409902   -9.163198
 C   77.564842  134.695495   -9.931232
 C   76.892761  135.908503   -9.280426
 C   77.288804  136.033026   -7.808252
 C   76.941562  134.753083   -7.032069
 N   77.328765  134.814347   -5.642140
 C   76.664252  135.535615   -4.692952
 C   75.502832  136.208997   -4.955171
 C   74.800712  136.916970   -3.930257
 O   73.772072  137.555258   -4.105264
 N   75.387893  136.842168   -2.639829
 C   74.778750  137.515104   -1.533430
 C   73.398564  137.496919   -1.348203
 C   72.860753  138.135663   -0.237016
 C   73.682135  138.802354    0.667011
 C   75.059441  138.817973    0.468751
 C   75.612415  138.162576   -0.623906
 N   76.577343  136.269912   -2.385012
 C   77.169290  135.607108   -3.338164
 C   78.434254  134.941580   -2.945019
 N   78.866969  134.958507   -1.660336
 C   80.037426  134.264989   -1.668042
 N   80.309544  133.849585   -2.875455
 N   79.290409  134.277998   -3.686541
 H   77.355685  132.633523   -7.129750
 H   78.707128  133.672373   -7.589750
 H   77.763231  132.554099   -9.610244
 H   76.167286  133.198515   -9.243304
 H   75.850631  134.605501   -7.080585
 H   78.653870  134.848996   -9.929038
 H   77.262917  134.603405  -10.981670
 H   77.151821  136.827349   -9.819622
 H   75.800364  135.800337   -9.352137
 H   78.372341  136.206171   -7.731169
 H   76.802229  136.897983   -7.341704
 H   78.222745  134.420748   -5.368115
 H   75.063005  136.259783   -5.944056
 H   72.754443  137.001975   -2.063700
 H   76.684096  138.142334   -0.787738
 H   71.783694  138.123448   -0.088737
 H   73.248945  139.307237    1.526342
 H   75.709320  139.331961    1.173070
 H   78.372144  135.399749   -0.899350
 H   80.646503  134.090980   -0.792746
