56 
4bw1_ligand_dft.xyz
 C   -5.618595    1.324553    1.425682
 C   -5.514768    0.048581    0.654214
 N   -6.576413   -0.691382    0.464736
 O   -6.151839   -1.785270   -0.268038
 C   -4.836978   -1.693358   -0.497944
 C   -4.220072   -2.787807   -1.295619
 C   -4.352320   -0.546606    0.062709
 C   -2.968572   -0.052434    0.075693
 C   -1.893395   -0.950871    0.320998
 C   -0.593626   -0.520937    0.334513
 C   -0.287126    0.846433    0.119958
 C    1.036972    1.370978    0.138831
 N    2.153577    0.515028    0.436196
 C    2.540004   -0.477929   -0.519639
 C    2.232488   -0.240293   -1.860165
 C    2.608125   -1.136839   -2.849298
 C    3.298990   -2.285758   -2.497054
 C    3.614676   -2.510450   -1.161755
 C    3.263718   -1.629479   -0.132429
 C    3.674003   -1.932652    1.326642
 C    4.539015   -3.203485    1.419658
 C    4.533424   -0.788920    1.909270
 C    2.434904   -2.202830    2.210248
 C    1.233010    2.713039   -0.099607
 C    0.084353    3.519165   -0.349154
 N   -1.147005    3.083369   -0.359832
 C   -1.350229    1.753745   -0.125339
 C   -2.681377    1.277593   -0.142277
 C    2.565010    3.431807   -0.117990
 O    3.649270    2.718835    0.174883
 O    2.629193    4.607285   -0.384983
 H   -5.601443    2.191893    0.757686
 H   -6.556165    1.343581    1.985145
 H   -4.780723    1.425446    2.121856
 H   -4.078683   -3.688310   -0.687949
 H   -4.866558   -3.050097   -2.137598
 H   -3.247726   -2.473030   -1.681326
 H   -2.114762   -1.995921    0.515379
 H    0.205731   -1.234909    0.502195
 H    2.053925    0.128303    1.365111
 H    1.690661    0.660179   -2.129547
 H    2.357759   -0.930891   -3.885094
 H    3.601289   -3.005273   -3.251122
 H    4.163829   -3.412084   -0.922890
 H    3.998211   -4.097198    1.091384
 H    5.458102   -3.113980    0.831789
 H    4.829541   -3.362770    2.463079
 H    5.422414   -0.632060    1.289945
 H    4.013593    0.168767    1.979765
 H    4.865916   -1.052322    2.919399
 H    1.757837   -1.349720    2.328662
 H    1.845007   -3.027133    1.795385
 H    2.751517   -2.486049    3.219944
 H    0.245359    4.576792   -0.538510
 H   -3.462000    2.000166   -0.353895
 H    3.373465    1.789232    0.357740
