55 
4bw2_ligand_ani.xyz
 C   -5.476115    1.530678    1.077226
 C   -5.384359    0.156661    0.493789
 N   -6.467765   -0.556261    0.345367
 O   -6.070380   -1.755234   -0.210851
 C   -4.748156   -1.762063   -0.394156
 C   -4.179484   -2.989719   -1.028402
 C   -4.233806   -0.576020    0.048384
 C   -2.844138   -0.112101    0.067899
 C   -1.785488   -1.045805    0.176692
 C   -0.490033   -0.598246    0.181846
 C   -0.226355    0.795768    0.083801
 C    1.077544    1.392381    0.108404
 N    2.228912    0.579276    0.342028
 C    2.596902   -0.472850   -0.557229
 C    2.377630   -0.252069   -1.919624
 C    2.729947   -1.201558   -2.870754
 C    3.309576   -2.388724   -2.451060
 C    3.537186   -2.604635   -1.095789
 C    3.210112   -1.665545   -0.112483
 C    3.511363   -1.932843    1.376435
 C    4.170707   -3.307145    1.585481
 C    2.223816   -1.952444    2.230149
 C    4.501220   -0.889353    1.928679
 C    1.170101    2.771551   -0.061338
 C   -0.033212    3.503916   -0.194900
 N   -1.239950    3.005458   -0.177171
 C   -1.359057    1.651465   -0.035834
 C    2.442803    3.579724   -0.142658
 O    3.589896    2.896523   -0.108058
 O    2.431527    4.782410   -0.244465
 N   -2.625830    1.189265   -0.011215
 H   -6.507038    1.741064    1.370600
 H   -4.817895    1.622997    1.946020
 H   -5.136224    2.274701    0.350253
 H   -3.899633   -3.734634   -0.273466
 H   -4.920302   -3.447161   -1.687901
 H   -3.285137   -2.746386   -1.607542
 H   -1.995340   -2.105012    0.277293
 H    0.329863   -1.308906    0.234957
 H    2.294365    0.299282    1.307530
 H    1.912408    0.682746   -2.218816
 H    2.548138   -1.013567   -3.926023
 H    3.592467   -3.153370   -3.169775
 H    3.990987   -3.544922   -0.804262
 H    3.512977   -4.125817    1.269250
 H    5.119472   -3.391836    1.042394
 H    4.390256   -3.450557    2.648739
 H    1.739697   -0.979443    2.363954
 H    1.480627   -2.630001    1.792859
 H    2.459998   -2.317101    3.235692
 H    5.458940   -0.961990    1.400232
 H    4.152353    0.141129    1.822930
 H    4.679422   -1.074545    2.994065
 H    0.062065    4.580476   -0.320243
 H    3.369399    1.942956   -0.002166
