55 
4bw2_ligand_dft.xyz
 C   -5.551898    1.589063    0.808679
 C   -5.449702    0.159415    0.391794
 N   -6.530787   -0.563452    0.264431
 O   -6.105707   -1.824317   -0.129246
 C   -4.774425   -1.846381   -0.220743
 C   -4.174172   -3.134884   -0.666868
 C   -4.274556   -0.615061    0.103611
 C   -2.883492   -0.156718    0.131071
 C   -1.813391   -1.071640    0.354717
 C   -0.528975   -0.609692    0.357024
 C   -0.289761    0.772366    0.159241
 C    1.003164    1.365117    0.154334
 N    2.175853    0.565844    0.388354
 C    2.534023   -0.438558   -0.564827
 C    2.163418   -0.223836   -1.893556
 C    2.499649   -1.133414   -2.884714
 C    3.216749   -2.270893   -2.546814
 C    3.598335   -2.470537   -1.224887
 C    3.286980   -1.576343   -0.193962
 C    3.770776   -1.848385    1.248434
 C    4.642974   -3.115315    1.324822
 C    2.579135   -2.102473    2.199752
 C    4.656468   -0.690612    1.760223
 C    1.112696    2.722845   -0.045025
 C   -0.092233    3.462043   -0.228322
 N   -1.296962    2.956504   -0.223611
 C   -1.417396    1.613221   -0.033957
 C    2.397856    3.521089   -0.086898
 O    3.536576    2.856815    0.093575
 O    2.378923    4.712475   -0.277743
 N   -2.682393    1.135153   -0.046738
 H   -6.596326    1.837691    1.009336
 H   -4.956494    1.769674    1.708500
 H   -5.152952    2.243082    0.030503
 H   -3.879095   -3.753813    0.188065
 H   -4.905990   -3.696562   -1.251978
 H   -3.290270   -2.957242   -1.284854
 H   -2.019677   -2.119093    0.540280
 H    0.299763   -1.293699    0.506910
 H    2.176398    0.215421    1.336520
 H    1.604373    0.669865   -2.151165
 H    2.200097   -0.946128   -3.910910
 H    3.489450   -3.000109   -3.302783
 H    4.167354   -3.362926   -0.998019
 H    4.089202   -4.016441    1.041431
 H    5.531887   -3.036169    0.690974
 H    4.984915   -3.252602    2.355689
 H    1.902120   -1.251105    2.330303
 H    1.975879   -2.941397    1.836239
 H    2.947595   -2.358174    3.199032
 H    5.519428   -0.557529    1.099985
 H    4.145483    0.272782    1.821404
 H    5.029768   -0.923830    2.763454
 H   -0.000269    4.533980   -0.381806
 H    3.325700    1.903691    0.234384
