59 
4bw3_ligand_ani.xyz
 C   -4.873454    1.717732    1.946935
 C   -5.029175    0.615886    0.944107
 N   -6.187570    0.030902    0.799408
 O   -6.013698   -0.923780   -0.179873
 C   -4.749074   -0.914892   -0.616433
 C   -4.421664   -1.879148   -1.705207
 C   -4.045676    0.037816    0.073824
 C   -2.633780    0.430804   -0.042363
 C   -1.574224   -0.534420   -0.100852
 C    0.056729    1.082488   -0.243471
 C    1.442616    1.431569   -0.319785
 N    2.447636    0.486290   -0.242583
 C    2.469465   -0.842238   -0.707361
 C    2.265438   -1.077012   -2.074034
 C    2.310787   -2.364016   -2.593335
 C    2.553214   -3.431172   -1.737279
 C    2.756068   -3.196992   -0.380752
 C    2.746897   -1.908480    0.169697
 C    3.058930   -1.656437    1.659183
 C    3.193429   -2.988241    2.420279
 C    4.401586   -0.909992    1.828896
 C    1.945095   -0.852009    2.363727
 C    1.768967    2.788088   -0.371732
 C    0.709075    3.728978   -0.333144
 N   -0.564861    3.443762   -0.246012
 C   -0.899234    2.123377   -0.203435
 C   -2.258895    1.750092   -0.090772
 C    3.197330    3.221739   -0.373945
 C   -0.816591   -2.751823   -0.160857
 O    4.111275    2.549045    0.065745
 O    3.473314    4.436210   -0.881979
 O   -1.906285   -1.837155   -0.055025
 N   -0.307768   -0.230385   -0.164053
 H   -4.910669    2.700348    1.461502
 H   -5.681616    1.675837    2.680650
 H   -3.911193    1.639982    2.460668
 H   -3.895673   -2.745773   -1.294481
 H   -5.337015   -2.213554   -2.197791
 H   -3.752552   -1.421672   -2.438724
 H    3.356173    0.917013   -0.085876
 H    2.073099   -0.231216   -2.732112
 H    2.148889   -2.531727   -3.655454
 H    2.580532   -4.450027   -2.115408
 H    2.932674   -4.054842    0.256955
 H    2.277134   -3.587075    2.348780
 H    4.032180   -3.585964    2.044917
 H    3.381145   -2.791409    3.481208
 H    5.206930   -1.436877    1.304535
 H    4.382771    0.123685    1.469133
 H    4.659143   -0.866948    2.893949
 H    1.957656    0.209899    2.107595
 H    0.953518   -1.246229    2.111558
 H    2.073605   -0.927182    3.448572
 H    0.935451    4.799639   -0.327928
 H   -2.991065    2.548987   -0.055580
 H   -0.221929   -2.537447   -1.053831
 H   -0.161564   -2.674775    0.713044
 H   -1.259138   -3.747317   -0.218084
 H    2.699451    4.795902   -1.337418
