59 
4bw3_ligand_xtb.xyz
 C   -4.977957    1.777083    1.810009
 C   -5.069982    0.627023    0.877811
 N   -6.187010   -0.020139    0.690671
 O   -5.947962   -1.007315   -0.207198
 C   -4.656714   -0.984904   -0.567010
 C   -4.190456   -1.973990   -1.566843
 C   -4.027026    0.044897    0.090662
 C   -2.634532    0.460653    0.022362
 C   -1.577669   -0.495776    0.136387
 C    0.042717    1.092959   -0.169752
 C    1.430690    1.427534   -0.301862
 N    2.379272    0.485805   -0.347991
 C    2.217868   -0.854416   -0.736377
 C    1.565538   -1.096389   -1.943077
 C    1.443200   -2.376072   -2.441834
 C    2.000077   -3.425584   -1.733017
 C    2.646930   -3.185272   -0.534029
 C    2.767999   -1.907604    0.006030
 C    3.476518   -1.678112    1.336934
 C    3.614602   -2.985093    2.130956
 C    4.891595   -1.143751    1.066571
 C    2.692949   -0.686019    2.215150
 C    1.756558    2.806185   -0.319800
 C    0.697124    3.735875   -0.267899
 N   -0.568761    3.441619   -0.230261
 C   -0.909366    2.133364   -0.179774
 C   -2.271960    1.776579   -0.108507
 C    3.161093    3.227018   -0.389711
 C   -0.861910   -2.680756    0.582826
 O    4.097510    2.467396   -0.225584
 O    3.425763    4.515042   -0.657723
 O   -1.924138   -1.763126    0.405553
 N   -0.314474   -0.191267    0.021747
 H   -5.091309    2.713001    1.264257
 H   -5.775494    1.712126    2.544553
 H   -4.010740    1.784059    2.307613
 H   -3.657314   -2.782624   -1.069045
 H   -5.046994   -2.384386   -2.095154
 H   -3.510265   -1.502608   -2.272563
 H    3.331869    0.849947   -0.280968
 H    1.163015   -0.256176   -2.490395
 H    0.935473   -2.549799   -3.378819
 H    1.932075   -4.434791   -2.111107
 H    3.063816   -4.031015   -0.014307
 H    2.644711   -3.455771    2.277106
 H    4.281947   -3.686434    1.636849
 H    4.040169   -2.769948    3.108748
 H    5.441820   -1.839145    0.435699
 H    4.878501   -0.175197    0.574672
 H    5.427372   -1.033615    2.006876
 H    2.937985    0.344124    1.978341
 H    1.621291   -0.823013    2.089045
 H    2.936390   -0.845782    3.263218
 H    0.895393    4.803403   -0.242294
 H   -3.009282    2.560853   -0.171210
 H   -0.267058   -2.766789   -0.327964
 H   -0.206660   -2.359489    1.394791
 H   -1.327586   -3.632617    0.829237
 H    2.630982    5.041029   -0.813972
