61 
4c0r_ligand_dft.xyz
 C    3.046199    2.832341    2.493151
 N    2.942814    3.063138    1.023130
 C    3.051638    1.829845    0.186743
 C    4.560763    1.722674   -0.128761
 O    5.248570    2.728594    0.023496
 C    2.248451    1.962763   -1.114134
 S    0.537353    2.570269   -0.891932
 N    4.980188    0.543921   -0.590958
 C    6.361185    0.326030   -0.956400
 C    6.905398   -0.929548   -0.309765
 O    8.206971   -1.037070   -0.495529
 O    6.236863   -1.750385    0.286061
 N    0.431415   -2.729539   -0.357136
 C    1.598036   -3.315934    0.247793
 C    2.825367   -2.428186    0.130551
 O    3.870924   -2.999152    0.669885
 O    2.815410   -1.330833   -0.413215
 C   -0.486897   -2.065249    0.376939
 O   -0.489658   -2.016934    1.596987
 C   -1.556839   -1.313673   -0.430606
 N   -2.645352   -1.050774    0.488188
 C   -0.972059   -0.035873   -1.057027
 S   -0.346429    1.095727    0.247795
 C   -7.221989   -0.330600   -0.038264
 C   -8.450880    0.583142   -0.063425
 O   -9.097142    0.561023    1.087818
 O   -8.731973    1.241163   -1.035191
 N   -6.771796   -0.437366   -1.460480
 C   -6.124744    0.254667    0.867129
 C   -4.939529   -0.671325    1.184959
 C   -3.891784   -0.780073    0.089405
 O   -4.164543   -0.652359   -1.116932
 H    2.220884    2.194414    2.810158
 H    2.999392    3.795791    3.000607
 H    4.004095    2.353939    2.697645
 H    3.757371    3.636049    0.718275
 H    2.064169    3.548000    0.798083
 H    2.683768    0.977914    0.763660
 H    2.712483    2.693685   -1.787209
 H    2.250487    0.991344   -1.612766
 H    4.322433   -0.240264   -0.605769
 H    6.476191    0.226899   -2.042448
 H    6.955147    1.189068   -0.646513
 H    8.522122   -1.866285   -0.095738
 H    0.381452   -2.698677   -1.364631
 H    1.822633   -4.285640   -0.205597
 H    1.392361   -3.491543    1.306896
 H    4.687854   -2.454221    0.557950
 H   -1.929211   -1.933278   -1.254493
 H   -2.410269   -1.191988    1.467374
 H   -0.146969   -0.302891   -1.722872
 H   -1.746299    0.473357   -1.633756
 H   -7.512017   -1.324649    0.311660
 H   -9.857747    1.167742    1.043846
 H   -5.709770   -0.537721   -1.487001
 H   -7.077183    0.420271   -1.946286
 H   -7.210717   -1.221949   -1.947480
 H   -5.771605    1.202455    0.443994
 H   -6.615745    0.498467    1.813121
 H   -4.462115   -0.314300    2.102469
 H   -5.296137   -1.685963    1.407034
