29 
4c1d_ligand_xtb.xyz
 O   -0.261982   -1.367094   -1.064673
 C   -0.355365   -0.316611   -0.457596
 C   -1.668161    0.151787    0.164036
 C   -2.810720   -0.319993   -0.731258
 S   -4.450114    0.239008   -0.158672
 C   -1.753593   -0.452086    1.568108
 N    0.715749    0.484266   -0.278352
 C    2.008417    0.065265   -0.783221
 C    2.628205   -1.034317    0.073920
 O    1.976062   -1.228042    1.221049
 O    3.619713   -1.638483   -0.227756
 C    0.789306    1.764613    0.400576
 C    2.289293    2.048728    0.499166
 C    2.860034    1.336211   -0.724847
 H   -1.697021    1.242185    0.227122
 H   -2.817626   -1.405222   -0.812886
 H   -2.703581    0.103953   -1.729857
 H   -4.586259   -0.652098    0.819628
 H   -2.632525   -0.080762    2.090954
 H   -1.808597   -1.536570    1.499473
 H   -0.871269   -0.195023    2.149652
 H    1.911542   -0.341693   -1.795179
 H    2.377411   -1.960451    1.715295
 H    0.320434    1.723816    1.385358
 H    0.288155    2.535592   -0.198012
 H    2.692656    1.605008    1.409711
 H    2.505365    3.114761    0.504764
 H    3.920151    1.109211   -0.637070
 H    2.697907    1.930667   -1.624005
