29 
4c1e_ligand_ani.xyz
 O   -1.498782   -0.414345    1.739606
 C   -2.356237   -0.803843    0.773780
 O   -3.281177   -1.548229    0.980761
 C   -2.094063   -0.130997   -0.566425
 C   -2.857108    1.203351   -0.660489
 C   -1.833462    2.237365   -0.180500
 C   -0.503982    1.707589   -0.723246
 N   -0.706819    0.258539   -0.755325
 C    0.244411   -0.719167   -0.741853
 O   -0.079819   -1.897518   -0.674975
 C    1.703800   -0.284926   -0.745435
 C    2.553391   -1.339060   -1.454022
 C    2.111720   -0.086525    0.726698
 S    3.676857    0.801532    0.968425
 H   -1.773943   -0.889616    2.541139
 H   -2.419798   -0.844653   -1.326241
 H   -3.129021    1.386780   -1.705154
 H   -3.778519    1.188948   -0.070661
 H   -1.802015    2.255646    0.912135
 H   -2.053200    3.247005   -0.535621
 H    0.342525    1.977141   -0.082425
 H   -0.294782    2.087525   -1.731960
 H    1.801047    0.675783   -1.265505
 H    2.234676   -1.456716   -2.493843
 H    3.612113   -1.057938   -1.456161
 H    2.442412   -2.307252   -0.957553
 H    1.361532    0.509323    1.260041
 H    2.148491   -1.056967    1.234372
 H    4.493909   -0.171279    0.535731
