29 
4c1e_ligand_xtb.xyz
 O   -1.421799   -0.430677    1.740801
 C   -2.403121   -0.668567    0.868249
 O   -3.458394   -1.144838    1.181612
 C   -2.055359   -0.229209   -0.551091
 C   -2.825754    1.039778   -0.924298
 C   -1.900335    2.138686   -0.406612
 C   -0.503806    1.597935   -0.719950
 N   -0.663322    0.155563   -0.672641
 C    0.288346   -0.801871   -0.691171
 O   -0.001481   -1.981761   -0.653520
 C    1.735661   -0.313039   -0.712874
 C    2.610026   -1.315912   -1.458212
 C    2.153723   -0.175684    0.753449
 S    3.585341    0.933534    0.991212
 H   -1.669447   -0.757810    2.620414
 H   -2.277778   -1.077240   -1.207159
 H   -2.928912    1.103946   -2.007510
 H   -3.814944    1.059965   -0.472586
 H   -2.022487    2.250983    0.670998
 H   -2.082257    3.100923   -0.879951
 H    0.234538    1.947054    0.004339
 H   -0.186426    1.905665   -1.724085
 H    1.797212    0.663042   -1.199343
 H    2.344533   -1.333293   -2.512432
 H    3.662655   -1.053448   -1.372453
 H    2.451972   -2.311920   -1.051755
 H    1.358923    0.277623    1.346662
 H    2.392992   -1.148895    1.180038
 H    4.474328    0.173427    0.357832
