29 
4c1f_ligand_xtb.xyz
 O   -0.255785   -1.374659   -1.050232
 C   -0.351926   -0.317027   -0.456234
 C   -1.665576    0.155671    0.160314
 C   -2.808160   -0.326468   -0.729406
 S   -4.447831    0.236290   -0.160590
 C   -1.750514   -0.433924    1.570481
 N    0.716949    0.489287   -0.288460
 C    2.010991    0.063854   -0.785096
 C    2.618011   -1.039201    0.076730
 O    3.599574   -1.659491   -0.224100
 O    1.967493   -1.215093    1.227753
 C    0.790588    1.773235    0.383694
 C    2.290941    2.049227    0.495795
 C    2.869451    1.329995   -0.720572
 H   -1.695282    1.246611    0.211674
 H   -2.813855   -1.412457   -0.800387
 H   -2.702436    0.087953   -1.732216
 H   -4.585496   -0.649943    0.821879
 H   -0.868361   -0.170528    2.149507
 H   -2.629603   -0.057566    2.089375
 H   -1.804686   -1.519152    1.512716
 H    1.919634   -0.342368   -1.797848
 H    2.359262   -1.950448    1.725147
 H    0.311595    1.740424    1.363829
 H    0.299588    2.543267   -0.224434
 H    2.682702    1.605621    1.411556
 H    2.513112    3.114033    0.500529
 H    3.927368    1.097113   -0.621830
 H    2.720017    1.923555   -1.622454
