29 
4c1h_ligand_xtb.xyz
 O   -0.249488   -1.387309   -1.024052
 C   -0.349279   -0.320675   -0.446956
 C   -1.664867    0.157634    0.161012
 C   -2.804276   -0.341835   -0.723116
 S   -4.445543    0.232917   -0.171872
 C   -1.751003   -0.410823    1.579681
 N    0.716815    0.491799   -0.292498
 C    2.011092    0.062692   -0.785781
 C    2.612170   -1.042972    0.076894
 O    3.580448   -1.680222   -0.231378
 O    1.974338   -1.199633    1.237799
 C    0.788310    1.783879    0.364099
 C    2.288480    2.055182    0.487360
 C    2.873539    1.326439   -0.720206
 H   -1.698351    1.249179    0.195236
 H   -2.810006   -1.429037   -0.772257
 H   -2.694596    0.052015   -1.733672
 H   -4.587331   -0.632104    0.828777
 H   -0.870821   -0.137130    2.156857
 H   -2.632249   -0.029055    2.091108
 H   -1.802868   -1.496842    1.538044
 H    1.921809   -0.343023   -1.798985
 H    2.361935   -1.936881    1.735731
 H    0.299982    1.765678    1.339797
 H    0.306504    2.548020   -0.258747
 H    2.670464    1.615502    1.408878
 H    2.514792    3.119163    0.487728
 H    3.929683    1.090050   -0.611172
 H    2.734653    1.915395   -1.626761
