71 
4c1t_ligand_ani.xyz
 O   -1.021257    2.453226    0.465255
 C   -0.553493    3.044974   -0.727023
 C    0.956908    3.194017   -0.690917
 O    1.585789    1.903655   -0.745346
 C    1.501855    3.860961    0.572276
 O    1.614824    5.266997    0.496875
 C    2.878923    3.232713    0.677044
 O    3.434202    3.244325    1.967168
 C    2.616334    1.802570    0.224845
 C    3.111500   -1.167113   -0.449271
 C    4.081488   -0.106504    0.091536
 C    5.495601   -0.357340   -0.404433
 C    5.907524   -1.800081   -0.167147
 C    4.862450   -2.726073   -0.767550
 O    3.754614    1.215077   -0.336841
 O    6.428527    0.464920    0.268488
 O    7.141627   -2.080778   -0.787649
 O    3.585256   -2.473522   -0.195765
 C   -2.064789   -1.755752    0.198552
 C   -1.233172   -3.023779    0.349175
 C    0.212239   -2.646133    0.657754
 C    0.758270   -1.619500   -0.329909
 C   -0.237743   -0.492911   -0.556716
 O   -1.764885   -3.803541    1.391000
 O    0.981965   -3.830608    0.637216
 O    1.915794   -1.033569    0.246531
 O   -1.531643   -0.999916   -0.878819
 O   -7.928487    0.959783    0.301856
 C   -6.904814    0.158062   -0.192037
 C   -5.636311    0.990003   -0.306517
 C   -4.425407    0.129139   -0.629652
 C   -4.340544   -1.067946    0.328585
 C   -5.686330   -1.788050    0.334404
 O   -5.824178    1.957049   -1.310697
 O   -3.294115    0.986796   -0.548183
 O   -3.390873   -2.047544   -0.076298
 O   -6.732976   -0.915502    0.715159
 H   -1.917490    2.121414    0.285249
 H   -1.006772    4.039639   -0.871008
 H   -0.810414    2.436468   -1.607943
 H    1.273585    3.771561   -1.571535
 H    0.892288    3.542711    1.433436
 H    0.739337    5.644689    0.645939
 H    3.538795    3.709880   -0.064857
 H    3.588760    4.170095    2.195054
 H    2.268578    1.202797    1.078930
 H    2.962952   -1.018025   -1.533840
 H    4.062833   -0.160711    1.190435
 H    5.520261   -0.162375   -1.491513
 H    5.955300   -1.971452    0.920968
 H    4.838435   -2.589168   -1.860026
 H    5.105808   -3.770444   -0.561537
 H    6.157678    1.379005    0.107167
 H    7.767279   -1.421636   -0.455557
 H   -1.994968   -1.159143    1.127315
 H   -1.264795   -3.549737   -0.618818
 H    0.234494   -2.190867    1.665600
 H    0.992055   -2.123064   -1.278929
 H    0.089406    0.136045   -1.386499
 H   -0.301666    0.129550    0.346465
 H   -1.175588   -4.565258    1.476436
 H    1.918345   -3.570337    0.651110
 H   -8.529584    0.359571    0.761154
 H   -7.161941   -0.253971   -1.187987
 H   -5.469640    1.452612    0.680071
 H   -4.522208   -0.262381   -1.655870
 H   -4.100634   -0.700569    1.339216
 H   -5.867433   -2.204994   -0.669516
 H   -5.674326   -2.615281    1.047889
 H   -4.983748    2.431164   -1.371116
 H   -2.561367    0.459891   -0.923480
