54 
4c1u_ligand_ani.xyz
 O   -7.209262    1.340344   -0.807883
 C   -6.934115   -0.025485   -0.616151
 C   -5.635722   -0.221825    0.149517
 O   -4.578191    0.403521   -0.602152
 C   -5.182131   -1.659063    0.315933
 O   -5.861137   -2.263837    1.389619
 C   -3.685570   -1.484757    0.519514
 O   -2.985918   -2.633713    0.119505
 C   -3.359996   -0.230163   -0.316047
 C    1.169768    0.447556   -0.205387
 C   -0.179108   -0.029441    0.323193
 C   -1.259538    0.924179   -0.164447
 C   -0.918910    2.357803    0.231132
 C    0.490474    2.697521   -0.234139
 O   -0.455389   -1.339735   -0.146046
 O   -2.524231    0.632916    0.409159
 O   -1.811843    3.258859   -0.382555
 O    1.432873    1.751681    0.271741
 O    7.413800   -1.331934   -0.856338
 C    6.160298   -1.226598   -0.267359
 C    5.829373    0.205634    0.147316
 C    4.410462    0.316031    0.677532
 C    3.437756   -0.295891   -0.336877
 C    3.916675   -1.695226   -0.722636
 O    6.775432    0.584679    1.120607
 O    4.184305    1.685803    0.914804
 O    2.150816   -0.435102    0.247422
 O    5.239360   -1.670198   -1.224276
 H   -6.407551    1.719517   -1.196727
 H   -7.765483   -0.450616   -0.045383
 H   -6.870184   -0.564073   -1.576938
 H   -5.701798    0.253785    1.139761
 H   -5.342119   -2.208176   -0.626920
 H   -5.565763   -3.182434    1.437451
 H   -3.501468   -1.238685    1.580297
 H   -2.048799   -2.374383    0.050356
 H   -2.880226   -0.510819   -1.267403
 H    1.161793    0.464839   -1.309670
 H   -0.153828   -0.013005    1.421461
 H   -1.329788    0.868806   -1.263921
 H   -0.964330    2.429687    1.330103
 H    0.518315    2.711791   -1.333440
 H    0.790832    3.682752    0.128094
 H    0.361818   -1.846041   -0.023481
 H   -2.702279    2.955437   -0.153458
 H    8.043793   -0.933008   -0.237257
 H    6.095720   -1.875889    0.633436
 H    5.911102    0.836967   -0.753408
 H    4.332050   -0.261784    1.618891
 H    3.398941    0.350295   -1.225937
 H    3.287763   -2.113525   -1.511929
 H    3.846251   -2.351912    0.160409
 H    6.536376    1.480079    1.397506
 H    3.225640    1.822460    0.992689
