82 
4c1w_ligand_ani.xyz
 O    3.045750    3.666780   -1.170957
 C    3.827526    3.626864   -0.221131
 C    4.809487    4.747792    0.025648
 N    3.877271    2.571900    0.633243
 C    2.836243    1.563496    0.694317
 C    3.216981    0.268406   -0.039731
 O    2.098488   -0.616201   -0.007943
 C    3.595649    0.497540   -1.513471
 O    2.567373    1.174188   -2.208390
 C    3.846973   -0.785102   -2.336582
 O    2.602151   -1.409067   -2.621340
 C    4.744611   -1.826985   -1.682993
 O    4.151542   -2.390364   -0.531071
 C    2.519515    1.212426    2.150776
 O    2.146759    2.417733    2.799695
 C    1.383122    0.191649    2.196096
 C    1.565519   -0.982004    1.228370
 C    2.459851   -2.106588    1.802516
 O    2.255526   -3.292994    1.673343
 O    3.535877   -1.651743    2.454295
 O    0.282325   -1.519830    0.992073
 C    0.121475   -2.365930   -0.135883
 C   -0.846090   -3.507250    0.199194
 C   -2.298975   -3.032844    0.284738
 O   -2.663942   -2.328151   -0.909153
 C   -2.634914   -2.276453    1.564625
 O   -4.042120   -2.061850    1.567963
 O   -0.515376   -4.163006    1.397838
 C   -0.350242   -1.592642   -1.379339
 O   -0.113608   -2.398751   -2.517814
 C   -1.844517   -1.256502   -1.342822
 O   -2.006421   -0.113864   -0.545137
 C   -3.010098    0.832608   -0.907848
 C   -2.747032    2.059406   -0.035333
 O   -3.758076    3.051375   -0.232894
 C   -1.435223    2.764082   -0.357711
 O   -1.230497    3.863417    0.495714
 C   -4.422348    0.312851   -0.626110
 O   -4.839918   -0.683299   -1.539719
 C   -5.447413    1.428991   -0.735598
 O   -6.693525    0.975159   -0.238255
 C   -5.038946    2.622253    0.123113
 O   -5.073311    2.271090    1.485259
 H    5.372127    4.643565    0.957425
 H    4.260912    5.693132    0.036851
 H    5.510989    4.786069   -0.812997
 H    4.458258    2.675747    1.454430
 H    1.931809    1.968828    0.224610
 H    4.070876   -0.193630    0.471755
 H    4.526802    1.083019   -1.532489
 H    2.619296    2.120312   -1.961626
 H    4.315954   -0.455050   -3.276994
 H    2.022932   -0.660998   -2.855091
 H    5.696630   -1.366564   -1.390315
 H    4.966198   -2.600910   -2.431741
 H    3.200067   -2.369241   -0.708077
 H    3.420332    0.786210    2.614890
 H    2.127575    2.244815    3.748638
 H    1.242664   -0.196242    3.209986
 H    0.458662    0.705632    1.910863
 H    4.074117   -2.436936    2.653726
 H    1.067489   -2.859884   -0.388966
 H   -0.799333   -4.208233   -0.651818
 H   -2.939816   -3.922066    0.262139
 H   -2.313007   -2.892446    2.415621
 H   -2.093362   -1.322828    1.593302
 H   -4.280741   -1.672891    2.417181
 H    0.434285   -4.033043    1.569139
 H    0.187359   -0.639727   -1.442848
 H    0.849086   -2.401363   -2.651159
 H   -2.175329   -1.044889   -2.367066
 H   -2.924468    1.094810   -1.975422
 H   -2.742951    1.746453    1.017800
 H   -0.587644    2.083445   -0.210745
 H   -1.440109    3.071018   -1.417806
 H   -2.038341    4.393215    0.437232
 H   -4.433716   -0.081672    0.398401
 H   -4.332635   -1.487035   -1.335340
 H   -5.534285    1.737467   -1.787695
 H   -6.827022    0.096254   -0.623389
 H   -5.710796    3.474723   -0.063614
 H   -5.880640    1.736275    1.581416
