30 
4c35_ligand_ani.xyz
 C   12.017745   83.837365   84.589153
 N   12.726339   84.984761   84.725695
 O   12.546853   82.750586   84.408007
 C   10.518495   83.963505   84.677027
 N    7.996635   86.432030   85.084947
 O    9.105562   92.781264   85.770924
 C    9.792965   82.785215   84.560353
 N   10.215596   86.476769   85.007741
 C    8.393976   82.764990   84.620486
 C    7.669763   83.934021   84.799688
 C    8.391076   85.118518   84.915460
 C    9.128947   87.198118   85.135739
 C    9.105516   88.654505   85.305126
 C    7.927095   89.402525   85.207116
 C    7.940796   90.776987   85.365210
 C    9.147674   91.430834   85.625053
 C   10.331004   90.699952   85.722660
 C   10.302744   89.322898   85.560878
 C    9.797180   85.164047   84.860242
 H   13.728806   84.928315   84.644088
 H   12.256859   85.873327   84.842872
 H    7.055283   86.745603   85.261761
 H    9.997996   93.110255   85.936561
 H   10.360160   81.870290   84.418143
 H    7.868859   81.818782   84.523911
 H    6.583758   83.917815   84.844857
 H    6.979952   88.912817   84.988516
 H    7.028848   91.361681   85.291209
 H   11.273829   91.206671   85.922360
 H   11.217690   88.742552   85.631217
