30 
4c38_ligand_xtb.xyz
 C    3.726937   -0.188047    0.070181
 C    2.715209    0.750097    0.224011
 C    1.417957    0.269961    0.143667
 N    0.186487    0.852748    0.249352
 C   -0.082310    2.254936    0.437725
 C   -0.113033    2.995241   -0.896539
 C   -0.722885   -0.157068    0.073597
 N   -0.167484   -1.332825   -0.120870
 C    1.178342   -1.109476   -0.084750
 C    2.275456   -1.954539   -0.222497
 N    3.501078   -1.488494   -0.144370
 C   -2.145032    0.000150    0.096202
 C   -3.092699   -1.094160   -0.017134
 N   -2.765718   -2.387430   -0.091072
 N   -4.295602   -0.571855    0.018724
 O   -4.126698    0.769587    0.149965
 C    5.165969    0.222597    0.137911
 N   -2.835000    1.106092    0.194244
 H    2.940143    1.791933    0.394480
 H    0.701688    2.663221    1.081855
 H   -1.049814    2.352946    0.934105
 H    0.827438    2.867052   -1.428684
 H   -0.922055    2.613964   -1.514065
 H   -0.278203    4.054670   -0.724476
 H    2.165645   -3.015658   -0.395291
 H   -1.781637   -2.582101   -0.223661
 H   -3.472888   -3.066286   -0.303650
 H    5.393770    0.941305   -0.647676
 H    5.384196    0.689247    1.097019
 H    5.795500   -0.652785    0.014030
