30 
4c38_ligand_ani.xyz
 C    3.782626   -0.156274    0.045769
 C    2.734050    0.745033    0.222623
 C    1.450400    0.225143    0.131622
 N    0.193931    0.779681    0.248120
 C   -0.087807    2.188567    0.528008
 C   -0.299563    3.008993   -0.735706
 C   -0.695327   -0.257596    0.046354
 N   -0.110936   -1.411347   -0.167486
 C    1.237771   -1.136523   -0.125396
 C    2.362820   -1.952025   -0.288790
 N    3.595362   -1.468249   -0.203845
 C   -2.139085   -0.055085    0.056276
 C   -3.162453   -1.062106    0.063231
 N   -3.014880   -2.418075    0.164302
 N   -4.322971   -0.463414    0.014284
 O   -4.046946    0.877522   -0.025079
 C    5.204631    0.323606    0.133041
 N   -2.726715    1.109848    0.002795
 H    2.941413    1.793084    0.420156
 H    0.771502    2.566065    1.090655
 H   -0.955874    2.240554    1.186687
 H    0.581362    2.943580   -1.383730
 H   -1.177497    2.662419   -1.285043
 H   -0.451537    4.060465   -0.466923
 H    2.255194   -3.016139   -0.492042
 H   -2.108058   -2.783409   -0.090163
 H   -3.809395   -2.973749   -0.116772
 H    5.409151    1.082242   -0.631957
 H    5.401877    0.787950    1.106684
 H    5.892515   -0.512737   -0.006296
