40 
4c4e_ligand_ani.xyz
 C   -6.472439   -1.598916   -1.296964
 O   -5.330293   -2.028219   -0.563573
 C   -4.363168   -1.062111   -0.427778
 C   -3.147664   -1.224736   -1.078627
 C   -2.127495   -0.287089   -0.953538
 C   -2.320580    0.848240   -0.162668
 C   -3.552797    1.024305    0.474771
 C   -4.560623    0.075784    0.369690
 O   -5.750553    0.306628    1.014242
 C   -6.053307   -0.628314    2.045933
 N   -1.352411    1.851562   -0.014236
 C    0.021403    1.734474   -0.069608
 C    0.674769    0.532320    0.163472
 C    2.065093    0.529864    0.078948
 N    2.910773   -0.500065    0.233158
 C    4.151667    0.011192    0.045903
 C    4.130286    1.398193   -0.233242
 C    2.760307    1.763806   -0.217602
 C    1.979498    2.914733   -0.389624
 N    0.656544    2.910008   -0.309425
 C    5.320404   -0.820200    0.133051
 C    6.699715   -0.498696   -0.057315
 N    7.455945   -1.544087    0.108946
 N    6.624580   -2.634553    0.422449
 C    5.395438   -2.212241    0.434599
 H   -6.924052   -0.712712   -0.838681
 H   -6.202549   -1.377803   -2.337342
 H   -7.182266   -2.428871   -1.277062
 H   -3.010539   -2.111949   -1.688198
 H   -1.196665   -0.430250   -1.495054
 H   -3.732747    1.909261    1.078053
 H   -6.099968   -1.649461    1.654455
 H   -5.304067   -0.576100    2.846042
 H   -7.028225   -0.338837    2.443961
 H   -1.658980    2.814181   -0.000888
 H    0.145705   -0.371687    0.432376
 H    4.992727    2.027140   -0.414991
 H    2.450307    3.873659   -0.597480
 H    7.146347    0.457786   -0.309075
 H    4.580684   -2.895309    0.655888
