37 
4c4f_ligand_ani.xyz
 C   -1.404578   -6.904083  -15.525526
 O   -1.290802   -8.238826  -15.973308
 C   -1.487325   -9.229325  -15.057576
 C   -1.831869   -9.018188  -13.729377
 C   -2.057086  -10.111366  -12.890939
 C   -1.948274  -11.399835  -13.389441
 C   -1.586943  -11.612674  -14.720889
 C   -1.318213  -10.537454  -15.561777
 N   -0.953115  -10.644233  -16.907184
 C   -0.320274  -11.673151  -17.575247
 N   -0.466540  -11.602389  -18.921765
 C    0.099972  -12.532905  -19.676622
 C    0.446055  -12.636418  -16.928332
 C    1.037843  -13.598044  -17.741437
 N    1.823553  -14.668739  -17.431308
 C    2.166808  -15.340324  -18.595536
 C    1.596188  -14.693186  -19.664843
 C    0.871422  -13.578063  -19.145428
 C    2.990978  -16.510110  -18.555900
 C    3.599590  -17.226004  -17.571980
 N    4.285432  -18.291368  -18.128568
 C    4.064196  -18.171953  -19.393692
 O    3.294234  -17.127295  -19.743606
 H   -1.199531   -6.275265  -16.392730
 H   -2.415156   -6.692795  -15.152826
 H   -0.675367   -6.684172  -14.735053
 H   -1.933433   -8.010863  -13.339667
 H   -2.330129   -9.943034  -11.852402
 H   -2.138870  -12.256879  -12.750263
 H   -1.547096  -12.628147  -15.103526
 H   -1.192369   -9.858904  -17.496571
 H    0.608746  -12.619590  -15.856448
 H   -0.054527  -12.450084  -20.751782
 H    2.118513  -14.933353  -16.506330
 H    1.691646  -14.989522  -20.700667
 H    3.597212  -17.057229  -16.504302
 H    4.419109  -18.803233  -20.197152
