62 
4c4g_ligand_dft.xyz
 O    3.240299   -1.806397    0.981484
 C    2.410455   -1.056129    0.531006
 O    1.143046   -1.353980    0.255497
 C    0.588066   -2.668104    0.594892
 C    0.670172   -2.895835    2.102069
 C   -0.865020   -2.537529    0.147886
 C    1.301642   -3.756272   -0.203306
 N    2.672892    0.284207    0.213055
 C    3.969072    0.830789   -0.004170
 C    5.230298    0.091262   -0.015954
 C    5.863636   -0.745555    0.935042
 N    7.085925   -1.083160    0.557421
 C    6.183955    0.235587   -1.008944
 N    7.265839   -0.474139   -0.629673
 C    8.490849   -0.694344   -1.364290
 C    1.732209    1.302007    0.031252
 C    2.436996    2.475829   -0.291837
 C    3.832746    2.147296   -0.311752
 C    0.349150    1.324574    0.170643
 C   -0.272878    2.547339   -0.084437
 N    0.379754    3.683958   -0.384217
 C    1.702419    3.646703   -0.470028
 N   -1.652869    2.714912    0.019959
 C   -2.657105    1.780824   -0.146962
 C   -2.475656    0.577471   -0.846661
 C   -3.506339   -0.339370   -0.975620
 C   -4.767748   -0.085815   -0.436663
 C   -4.985414    1.135059    0.200637
 C   -3.948297    2.037077    0.356087
Cl   -4.258617    3.544304    1.190417
 C   -5.942261   -1.000173   -0.617180
 O   -7.051655   -0.538376   -0.847053
 N   -5.716451   -2.354935   -0.571448
 C   -6.827488   -3.229070   -0.899462
 C   -4.638375   -2.987858    0.165737
 H    0.128370   -3.812191    2.357165
 H    1.704208   -2.999319    2.433716
 H    0.203326   -2.062889    2.637831
 H   -0.920369   -2.314042   -0.922128
 H   -1.394605   -3.476907    0.334776
 H   -1.374976   -1.737653    0.693869
 H    0.789656   -4.711244   -0.046569
 H    1.271151   -3.522966   -1.272393
 H    2.341392   -3.859651    0.108798
 H    5.465896   -1.109454    1.869122
 H    6.150763    0.778584   -1.942841
 H    9.340383   -0.550698   -0.694326
 H    8.518790   -1.710342   -1.767703
 H    8.547361    0.024332   -2.183918
 H    4.656353    2.817802   -0.512040
 H   -0.213534    0.458167    0.477643
 H    2.198496    4.589030   -0.693163
 H   -1.929634    3.682766    0.110245
 H   -1.518456    0.375248   -1.312682
 H   -3.329712   -1.253752   -1.534440
 H   -5.974882    1.372147    0.575566
 H   -7.402044   -3.501656   -0.003731
 H   -7.493186   -2.719500   -1.594543
 H   -6.439646   -4.143810   -1.359827
 H   -3.998490   -2.243382    0.637689
 H   -5.056479   -3.626008    0.955203
 H   -4.023287   -3.616234   -0.491430
