58 
4c4i_ligand_xtb.xyz
 C    2.618741   -1.203795   -0.050011
 N    2.939320    0.153163    0.018884
 O    3.368000   -2.027693   -0.499483
Cl   -3.792686    3.595295    1.211299
 C    2.042752    1.211266   -0.050875
 N   -1.285901    2.701951   -0.037801
 O   -6.674703   -0.476864   -1.096040
 C    0.667344    1.254391    0.057278
 N   -5.535870   -2.163592   -0.124319
 O    6.573219    0.465193   -0.581949
 C    0.072421    2.507919   -0.117839
 N    0.763993    3.638716   -0.308781
 O    1.399943   -1.414984    0.429036
 C   -2.310293    1.795710   -0.172872
 N    7.161611   -1.399651    0.440461
 C   -2.190700    0.602644   -0.891922
 C   -3.246172   -0.281338   -0.990270
 C   -4.470023    0.003922   -0.393399
 C   -5.659218   -0.888702   -0.565384
 C   -6.618445   -3.094192   -0.344039
 C   -4.429118   -2.674527    0.641956
 C   -4.631865    1.220225    0.260554
 C   -3.568142    2.090242    0.376817
 C    2.074120    3.594136   -0.392338
 C    2.778536    2.397191   -0.296432
 C    4.150467    2.029996   -0.357845
 C    4.227031    0.680271   -0.166068
 C    5.442643   -0.079033   -0.051538
 C    5.820430   -1.234180    0.587816
 C    7.551138   -0.382555   -0.253689
 C    0.810230   -2.744183    0.402187
 C    0.679736   -3.228583   -1.040280
 C   -0.569867   -2.542583    1.030164
 C    1.646245   -3.709784    1.239380
 H   -1.557307    3.661916    0.135943
 H    0.080828    0.391339    0.309449
 H   -1.267425    0.393587   -1.408283
 H   -3.128218   -1.189978   -1.562100
 H   -7.043774   -3.421541    0.607711
 H   -7.385783   -2.588365   -0.926364
 H   -6.257968   -3.967721   -0.891646
 H   -3.786112   -1.863928    0.974993
 H   -4.810622   -3.201488    1.520324
 H   -3.838797   -3.380903    0.049795
 H   -5.592565    1.476565    0.678772
 H    2.575409    4.540073   -0.543411
 H    4.982439    2.688885   -0.505134
 H    5.231568   -1.942328    1.129275
 H    8.552318   -0.173735   -0.572740
 H    0.130319   -2.499921   -1.633210
 H    1.661716   -3.373122   -1.482251
 H    0.144336   -4.173510   -1.059321
 H   -0.467011   -2.125554    2.028510
 H   -1.163714   -1.859204    0.427918
 H   -1.086903   -3.494890    1.097453
 H    2.627349   -3.847326    0.793502
 H    1.767126   -3.321946    2.248642
 H    1.146756   -4.672995    1.290355
