63 
4c52_ligand_ani.xyz
 O    4.328731    3.847227   -0.420118
 C    4.190451    2.648082   -0.449223
 O    5.204360    1.797839   -0.677035
 C    2.842575    1.949753   -0.270926
 C    2.033144    2.689565    0.795554
 S    0.306037    2.172158    0.934818
 C   -0.334394    2.930706   -0.587772
 C   -1.807912    3.346097   -0.493207
 C   -2.207747    4.040529   -1.798277
 C   -2.720967    2.157588   -0.206475
 N    2.937760    0.546556    0.008471
 C    3.018235   -0.350019   -1.017036
 O    2.900969   -0.031789   -2.188386
 N    3.272000   -1.690512   -0.643238
 C    3.925756   -2.542913   -1.645576
 C    3.009724   -3.629365   -2.207541
 C    1.817785   -3.081485   -2.989418
 C    3.106516   -2.252310    0.631953
 O    3.821850   -3.168815    0.989934
 C    2.027476   -1.723574    1.536348
 C    0.715970   -1.565799    1.095776
 C    2.344355   -1.452666    2.868865
 C    1.367876   -0.957638    3.728746
 C    0.061442   -0.775911    3.278642
 C   -0.277759   -1.102318    1.961195
 C   -1.627855   -0.991284    1.490191
 C   -2.764997   -0.920076    1.081434
 C   -4.088909   -0.795265    0.550862
 C   -5.079256   -0.024718    1.172362
 C   -6.352836    0.092524    0.631120
 C   -6.630234   -0.573209   -0.550758
 F   -7.857437   -0.464581   -1.084788
 C   -5.689855   -1.353199   -1.204334
 C   -4.435090   -1.447757   -0.631618
 F   -3.507992   -2.200499   -1.241831
 H    5.992119    2.349698   -0.813760
 H    2.352090    2.044070   -1.247958
 H    2.078554    3.764362    0.603197
 H    2.476661    2.524420    1.786033
 H   -0.204445    2.224263   -1.420680
 H    0.275974    3.816137   -0.806600
 H   -1.905805    4.071509    0.329344
 H   -3.248518    4.380719   -1.761766
 H   -1.575757    4.913341   -1.997335
 H   -2.110948    3.352391   -2.647938
 H   -3.773192    2.462245   -0.229140
 H   -2.521701    1.712546    0.772600
 H   -2.585373    1.373522   -0.962657
 H    3.234109    0.266305    0.930958
 H    4.260359   -1.879786   -2.446142
 H    4.794205   -3.002532   -1.167939
 H    2.675337   -4.276395   -1.386168
 H    3.622122   -4.259656   -2.865699
 H    1.248067   -3.897057   -3.446193
 H    1.135818   -2.522095   -2.340438
 H    2.143558   -2.402122   -3.786144
 H    0.452021   -1.802132    0.070157
 H    3.360574   -1.625003    3.214583
 H    1.625295   -0.718529    4.757018
 H   -0.699702   -0.387298    3.949445
 H   -4.841762    0.492728    2.097639
 H   -7.123010    0.688939    1.107778
 H   -5.920946   -1.873430   -2.126826
