63 
4c52_ligand_xtb.xyz
 O    3.475528    3.629768    2.129965
 C    3.485678    2.501067    1.723500
 O    4.460203    1.631635    2.005840
 C    2.381760    1.889663    0.872971
 C    1.088519    1.925316    1.699310
 S   -0.330719    1.159958    0.856438
 C   -0.479000    2.119036   -0.684218
 C   -0.902458    3.568951   -0.479607
 C   -0.873733    4.289560   -1.825974
 C   -2.292775    3.639657    0.144398
 N    2.716049    0.570445    0.410309
 C    2.788463    0.305719   -0.919748
 O    2.535670    1.141212   -1.760667
 N    3.247388   -0.966673   -1.267148
 C    3.876451   -1.098019   -2.581756
 C    3.040428   -1.956844   -3.529349
 C    1.695201   -1.319672   -3.852625
 C    3.288495   -2.086990   -0.457157
 O    4.079252   -2.982875   -0.658012
 C    2.247546   -2.203646    0.603306
 C    0.919576   -1.917817    0.318456
 C    2.591443   -2.754471    1.837077
 C    1.614622   -2.982604    2.790450
 C    0.290183   -2.697995    2.513927
 C   -0.066855   -2.171578    1.271016
 C   -1.413041   -1.877605    0.972744
 C   -2.560616   -1.603587    0.716958
 C   -3.888413   -1.247012    0.411894
 C   -4.954387   -1.672162    1.208768
 C   -6.253095   -1.310216    0.912610
 C   -6.491008   -0.510669   -0.192700
 F   -7.754183   -0.153224   -0.485956
 C   -5.466927   -0.065336   -1.010501
 C   -4.177682   -0.443364   -0.695313
 F   -3.176060   -0.018274   -1.485963
 H    5.144918    2.056133    2.547862
 H    2.259174    2.517987   -0.018609
 H    0.854116    2.955589    1.964118
 H    1.202124    1.338276    2.611468
 H   -1.239691    1.576039   -1.244963
 H    0.465149    2.042379   -1.222962
 H   -0.187681    4.060948    0.190166
 H   -1.153852    5.332863   -1.701259
 H    0.121087    4.248556   -2.263412
 H   -1.572492    3.823901   -2.517359
 H   -2.576472    4.672416    0.332001
 H   -2.315678    3.095821    1.086235
 H   -3.026012    3.194389   -0.524830
 H    3.004868   -0.109450    1.094634
 H    3.991666   -0.092848   -2.988127
 H    4.858376   -1.555960   -2.434837
 H    2.892738   -2.941457   -3.081018
 H    3.613044   -2.091006   -4.448884
 H    1.148007   -1.930426   -4.566678
 H    1.087295   -1.216894   -2.957025
 H    1.836995   -0.328335   -4.275749
 H    0.634339   -1.511239   -0.639750
 H    3.624904   -2.998958    2.032114
 H    1.887253   -3.396623    3.749787
 H   -0.477080   -2.884408    3.250390
 H   -4.745574   -2.293361    2.065734
 H   -7.079167   -1.636742    1.523456
 H   -5.668199    0.555935   -1.867996
