38 
4c66_ligand_ani.xyz
 C   -2.005510    4.632689    0.062552
 N   -2.053771   -1.271475    0.097475
 S   -2.581919    1.345966   -0.478240
Cl    3.642800   -0.942687   -1.683912
 C   -1.414502    3.831369   -1.102113
 N   -3.242059   -2.972762    0.820899
 C   -1.215699    2.380171   -0.791425
 N   -2.189559   -3.469882    0.080045
 C   -0.055283    1.690255   -0.681320
 N    0.944415   -1.867544   -0.574213
 C   -0.207020    0.299534   -0.362103
 C   -1.546582   -0.013923   -0.216167
 C   -3.164738   -1.671831    0.829098
 C   -4.097658   -0.755054    1.541027
 C   -1.491618   -2.458027   -0.330419
 C   -0.246730   -2.449622   -1.183180
 C    0.923604   -0.646120   -0.195614
 C    2.157915   -0.131510    0.464699
 C    2.051033    0.478124    1.716407
 C    3.175384    0.915761    2.403547
 C    4.433198    0.760307    1.830857
 C    4.563631    0.173889    0.578576
 C    3.430195   -0.273109   -0.096006
 H   -2.986188    4.241697    0.348869
 H   -1.352790    4.589541    0.940207
 H   -2.124800    5.682184   -0.223925
 H   -0.444650    4.257022   -1.387953
 H   -2.066908    3.926020   -1.979992
 H    0.928734    2.127453   -0.819886
 H   -3.552889   -0.072773    2.201501
 H   -4.677400   -0.145942    0.839247
 H   -4.783993   -1.359017    2.137950
 H   -0.013509   -3.488753   -1.438091
 H   -0.485454   -1.912322   -2.120479
 H    1.060608    0.603244    2.147662
 H    3.072846    1.379641    3.380187
 H    5.320114    1.101291    2.357883
 H    5.538487    0.055164    0.115216
