30 
4c6v_ligand_xtb.xyz
 S    0.261909    1.566825    0.210492
 C    3.628662   -1.343637   -1.490944
 C    0.907965   -0.423343    2.042397
 C    0.514534   -0.233381    0.572736
 O   -0.981284   -2.119798    0.534731
 C    4.700116    0.902681    0.068491
 C    3.399003    0.634427    0.065617
 C    2.780566   -0.523435   -0.564009
 C    1.505142   -0.874561   -0.359049
 C   -1.477813    1.404226   -0.170964
 O   -2.148893    2.349374   -0.483365
 C   -1.857453    0.009024   -0.028499
 C   -3.197214   -0.523630   -0.260183
 C   -4.268973    0.419576   -0.690003
 C   -0.845994   -0.833855    0.351843
 O   -3.408547   -1.725953   -0.101053
 H    4.073698   -0.708530   -2.254291
 H    4.433699   -1.821569   -0.934927
 H    3.039989   -2.117251   -1.976099
 H    1.896881   -0.013561    2.222707
 H    0.190882    0.074236    2.692244
 H    0.918522   -1.487515    2.270023
 H   -1.951560   -2.336467    0.346631
 H    5.431727    0.258949   -0.388735
 H    5.083622    1.786571    0.548582
 H    2.723015    1.326215    0.548828
 H    1.116618   -1.739148   -0.880055
 H   -3.980312    0.903832   -1.621203
 H   -4.383974    1.209432    0.049901
 H   -5.204811   -0.117928   -0.818583
