28 
4c6x_ligand_ani.xyz
 S    1.051939   -1.442095   -0.954733
 C    2.239953   -0.090398   -0.807654
 C    1.816592    0.847849    0.240314
 C    0.683091    0.455907    0.845219
 C    0.130011   -0.920216    0.557855
 C   -1.370973   -0.927824    0.329005
 C   -2.144091   -0.002225   -0.257491
 C   -3.609252   -0.146237   -0.133169
 C   -4.526725    0.696996   -0.607904
 O    3.224753    0.002279   -1.496577
 C    2.595328    2.098608    0.491465
 O    0.035864    1.229148    1.743417
 C    0.458338   -1.883632    1.720848
 C   -1.607000    1.165402   -1.035521
 H   -1.856777   -1.827635    0.708046
 H   -3.946463   -1.030740    0.412300
 H   -4.252858    1.592460   -1.161377
 H   -5.586173    0.514152   -0.455788
 H    3.634108    1.858231    0.737109
 H    2.156036    2.674815    1.309003
 H    2.615765    2.721083   -0.409412
 H   -0.866235    0.883321    1.826978
 H   -0.002474   -1.518036    2.645318
 H    1.537997   -1.954966    1.869477
 H    0.076554   -2.883130    1.494934
 H   -2.216090    1.349295   -1.924213
 H   -0.581743    0.995095   -1.373512
 H   -1.619241    2.082774   -0.435664
