31 
4c6z_ligand_ani.xyz
 C   -4.515423    1.314572   -0.556434
 O    3.049210   -0.490543   -1.418593
 S    0.664247   -1.636594   -1.127005
 C   -3.766372    0.267538   -0.208749
 O   -0.022317    0.715143    1.951439
 C   -2.291717    0.197131   -0.258594
 C   -1.544308    1.388867   -0.787153
 C   -1.701631   -0.929618    0.167119
 C   -0.229673   -1.202386    0.429825
 C   -0.113724   -2.371878    1.433737
 C    2.035822   -0.524249   -0.763723
 C    1.716343    0.299458    0.408997
 C    2.652996    1.389424    0.832588
 C    2.679773    2.562846   -0.153926
 C    0.518418    0.000563    0.941412
 H   -4.077233    2.236301   -0.932777
 H   -5.597614    1.279934   -0.474471
 H   -4.265119   -0.631687    0.160065
 H   -0.971513    0.518051    1.971798
 H   -1.488481    2.186513   -0.037185
 H   -2.046818    1.802919   -1.664958
 H   -0.524180    1.133047   -1.085110
 H   -2.337920   -1.793773    0.361122
 H    0.933419   -2.637639    1.593912
 H   -0.635373   -3.250741    1.044737
 H   -0.555830   -2.081266    2.393226
 H    2.369509    1.738329    1.831228
 H    3.662197    0.967530    0.907561
 H    1.683777    3.011335   -0.245323
 H    3.375650    3.338528    0.179699
 H    2.989406    2.217725   -1.144793
