39 
4c71_ligand_ani.xyz
 N   -5.146139   -2.602518    1.155610
 N   -4.310319   -2.016183    0.663987
 N   -3.364879   -1.376014    0.191391
 C   -3.670271   -0.968824   -1.208136
 C   -2.670983    0.030375   -1.778384
 C   -2.765000    1.452100   -1.219409
 C   -2.189870    1.664961    0.190624
 C   -0.716177    1.394774    0.273162
 C    0.197564    2.431331   -0.217698
 O   -0.109958    3.480015   -0.730729
 S    1.903158    1.932808    0.075555
 C   -0.063059    0.316926    0.757496
 O   -0.627299   -0.798812    1.239441
 C    1.435791    0.311633    0.844896
 C    1.893967    0.246667    2.318675
 C    1.975673   -0.881376    0.062378
 C    3.248018   -1.159676   -0.250651
 C    4.435663   -0.321455    0.124015
 C    3.520713   -2.400248   -1.002794
 C    4.722526   -2.827735   -1.392062
 H   -4.680223   -0.535139   -1.245378
 H   -3.673903   -1.870280   -1.834358
 H   -1.647087   -0.355739   -1.681006
 H   -2.866442    0.079616   -2.856468
 H   -3.814696    1.773835   -1.228700
 H   -2.226863    2.128309   -1.892265
 H   -2.742539    1.075453    0.931243
 H   -2.347908    2.716697    0.454694
 H   -1.551449   -0.869623    0.919299
 H    1.561171    1.139327    2.854698
 H    1.463368   -0.643677    2.786035
 H    2.982808    0.183610    2.388266
 H    1.216410   -1.601933   -0.238889
 H    4.162469    0.624062    0.592489
 H    5.088353   -0.873966    0.809622
 H    5.032488   -0.085358   -0.763374
 H    2.645981   -3.006494   -1.247015
 H    5.630621   -2.270270   -1.174687
 H    4.836997   -3.756698   -1.942371
