30 
4c72_ligand_ani.xyz
 S    0.059696    1.727597    0.145361
 C    3.386127    1.108086    0.328014
 C    0.763649   -0.013103    2.220267
 C    0.461791    0.005483    0.705407
 O   -0.762694   -2.045376    0.661975
 C    5.071519   -0.720234   -1.257747
 C    3.799787   -1.020108   -0.991240
 C    2.854282   -0.179050   -0.231723
 C    1.601349   -0.627496   -0.079506
 C   -1.645091    1.343079   -0.300280
 O   -2.408912    2.184124   -0.706142
 C   -1.890951   -0.090204   -0.084006
 C   -3.154227   -0.783245   -0.339160
 C   -4.323305   -0.020840   -0.885726
 C   -0.797921   -0.751161    0.402327
 O   -3.246574   -1.992727   -0.102492
 H    2.621045    1.705252    0.824212
 H    4.190162    0.907323    1.044922
 H    3.815500    1.724654   -0.469206
 H   -0.041939    0.482676    2.768182
 H    1.702428    0.503347    2.436290
 H    0.852583   -1.050088    2.556809
 H   -1.676106   -2.383113    0.458035
 H    5.527614    0.207813   -0.920920
 H    5.701659   -1.399435   -1.823865
 H    3.399969   -1.969771   -1.352522
 H    1.349659   -1.586032   -0.530641
 H   -5.164690   -0.702216   -1.014493
 H   -4.058841    0.446177   -1.838142
 H   -4.590804    0.796437   -0.210943
