30 
4c73_ligand_ani.xyz
 F    2.578035    1.038267   -1.099162
 C    2.975428    0.415595    0.025588
 F    3.832961    1.214913    0.659299
 F    3.612876   -0.707418   -0.304549
 C    1.752639    0.119227    0.929306
 O    1.800694    0.514691    2.084863
 C    0.591143   -0.566239    0.378900
 C    0.521527   -1.215613   -0.942934
 O    1.410011   -1.395286   -1.730314
 S   -1.184032   -1.719167   -1.264062
 C   -0.604584   -0.584132    1.051712
 O   -0.764687   -0.216414    2.314947
 C   -1.830679   -1.042487    0.330732
 C   -2.538434   -2.155219    1.129560
 C   -2.858539    0.064829    0.062097
 C   -2.700754    1.373405   -0.178759
 C   -3.892869    2.305379   -0.104059
 C   -1.428240    2.061961   -0.523409
 C   -0.722309    1.852509   -1.630999
 H    0.110630    0.123817    2.620498
 H   -1.853782   -2.988438    1.309325
 H   -2.876211   -1.752465    2.088652
 H   -3.396830   -2.529794    0.564758
 H   -3.882997   -0.307063    0.113038
 H   -4.811407    1.783112    0.187803
 H   -4.059589    2.792251   -1.072937
 H   -3.707134    3.107510    0.621063
 H   -1.112173    2.839710    0.177026
 H    0.214931    2.377037   -1.813003
 H   -1.049885    1.149912   -2.393925
