35 
4c94_ligand_xtb.xyz
 O   -5.683901   -1.122950   -0.596834
 C   -4.361966   -0.822347   -0.367593
 C   -4.096706    0.172748    0.583032
 O   -5.112563    0.797763    1.228206
 C   -2.783167    0.516073    0.859345
 C   -3.316104   -1.448023   -1.020432
 C   -2.006930   -1.089755   -0.746121
 C   -1.733518   -0.112558    0.198644
 C   -0.315735    0.326188    0.455520
 O    0.537767   -0.794674    0.312017
 C    0.077166    1.450017   -0.535186
 O   -0.774086    2.561019   -0.430176
 C    1.497351    1.903662   -0.216663
 C    2.395008    0.714424   -0.038805
 C    1.871569   -0.551480    0.197162
 C    2.707916   -1.659538    0.313940
 C    3.781659    0.853248   -0.136451
 O    4.275487    2.100333   -0.365209
 C    4.619984   -0.242063   -0.010916
 C    4.078973   -1.503803    0.208598
 O    4.934562   -2.555627    0.318750
 H   -5.742575   -1.822554   -1.255820
 H   -5.944439    0.418820    0.912053
 H   -2.599067    1.274179    1.604490
 H   -3.526858   -2.217752   -1.750420
 H   -1.193314   -1.580902   -1.254164
 H   -0.226256    0.726889    1.476827
 H    0.036490    1.023719   -1.552442
 H   -1.690232    2.269601   -0.517794
 H    1.878450    2.539964   -1.016128
 H    1.471819    2.511579    0.691883
 H    2.264165   -2.627829    0.489621
 H    5.237799    2.056763   -0.417625
 H    5.691683   -0.136841   -0.085169
 H    4.431202   -3.363305    0.476206
