35 
4c94_ligand_ani.xyz
 O   -5.762671   -0.965520   -0.477380
 C   -4.420997   -0.705021   -0.364072
 C   -4.049733    0.001434    0.788608
 O   -4.984699    0.379168    1.695775
 C   -2.713279    0.316806    0.993028
 C   -3.462219   -1.089278   -1.287507
 C   -2.123561   -0.770415   -1.072117
 C   -1.743306   -0.064061    0.062584
 C   -0.301383    0.333804    0.264109
 O    0.524829   -0.785988   -0.052651
 C    0.133342    1.516601   -0.615029
 O   -0.708429    2.636370   -0.450998
 C    1.539423    1.918409   -0.201819
 C    2.412877    0.701991   -0.055349
 C    1.871133   -0.579678    0.029649
 C    2.665705   -1.720063    0.159795
 C    3.809894    0.806591    0.012988
 O    4.321665    2.066511   -0.068217
 C    4.632140   -0.304276    0.148413
 C    4.047063   -1.571908    0.220321
 O    4.882715   -2.633251    0.348674
 H   -5.928888   -1.457026   -1.291147
 H   -5.846723    0.076574    1.372997
 H   -2.446232    0.866293    1.892629
 H   -3.756669   -1.642500   -2.177742
 H   -1.371377   -1.087284   -1.789072
 H   -0.150623    0.606309    1.319242
 H    0.143694    1.170960   -1.662039
 H   -1.593809    2.380596   -0.744948
 H    1.964139    2.626154   -0.921510
 H    1.468641    2.465576    0.747799
 H    2.191690   -2.696992    0.214523
 H    5.284245    2.024759   -0.003576
 H    5.714407   -0.214304    0.196057
 H    4.357647   -3.443052    0.383554
