40 
4c9w_ligand_dft.xyz
Cl    2.639178    0.767617    2.550011
 C    2.127464   -0.605314    1.589206
 C    1.763020   -1.749517    2.291109
 C    1.351086   -2.877950    1.602459
 C    1.321375   -2.840237    0.220174
 F    0.927171   -3.925302   -0.447183
 C    2.099294   -0.536588    0.189453
 C    1.692897   -1.698730   -0.485439
Cl    1.612318   -1.800857   -2.220439
 C    2.486847    0.745170   -0.542099
 C    3.824220    0.641349   -1.259683
 O    1.492727    1.129020   -1.495653
 C    0.345233    1.624103   -0.916290
 C   -0.771339    0.840969   -0.723912
 C    0.309060    2.977171   -0.523442
 N    1.435580    3.765875   -0.676732
 N   -0.769840    3.518887    0.033460
 C   -1.840895    2.742777    0.220114
 C   -1.916412    1.397932   -0.135487
 C   -3.127978    0.605596    0.098827
 C   -4.104796    0.765175    1.108904
 C   -3.582895   -0.486325   -0.618542
 N   -4.734393   -0.893746   -0.037955
 N   -5.069112   -0.141914    1.021911
 C   -5.577757   -2.003943   -0.419794
 H    1.798735   -1.748832    3.374177
 H    1.054420   -3.784330    2.117274
 H    2.560534    1.542951    0.201031
 H    3.809717   -0.123501   -2.038290
 H    4.609209    0.397664   -0.537727
 H    4.062324    1.604205   -1.720687
 H   -0.743117   -0.203933   -1.017412
 H    1.239277    4.753820   -0.589447
 H    2.008308    3.527914   -1.475169
 H   -2.703146    3.234397    0.666032
 H   -4.129076    1.498911    1.903609
 H   -3.185589   -0.978392   -1.495175
 H   -6.595538   -1.649557   -0.596454
 H   -5.591453   -2.756586    0.372404
 H   -5.182590   -2.447647   -1.335175
