45 
4ca4_ligand_xtb.xyz
 O    2.918579    3.368296    0.032243
 C    2.624838    2.410823   -0.966037
 C    2.283787    1.074539   -0.301444
 C   -4.455882   -0.233595    0.511144
 O    1.865241    0.220553   -1.351115
 C    3.486524    0.474161    0.436679
 O    3.906739    1.254288    1.531271
 C    3.098432   -0.907143    0.978811
 O    4.211738   -1.540919    1.565431
 C    2.598498   -1.795107   -0.163910
 O    3.639204   -2.114727   -1.045629
 C    1.491391   -1.068105   -0.939611
 O    0.355226   -1.058557   -0.131582
 C   -0.828026   -0.658184   -0.810429
 C   -1.978721   -0.638645    0.187345
 C   -3.298058   -0.266735   -0.483824
 C   -8.250857    0.537626    0.145352
 C   -6.937557    0.174872    0.827628
 C   -5.776769    0.129639   -0.163144
 H    3.098125    4.215138   -0.389252
 H    3.483079    2.261908   -1.633680
 H    1.764851    2.721806   -1.570472
 H    1.468955    1.224830    0.423629
 H   -4.550125   -1.211803    0.987762
 H   -4.237894    0.495184    1.294991
 H    4.312650    0.349379   -0.284310
 H    3.758076    2.184466    1.307911
 H    2.292021   -0.781833    1.715843
 H    4.629286   -0.886277    2.139147
 H    2.161145   -2.710305    0.263789
 H    4.401730   -2.332130   -0.489639
 H    1.307667   -1.601589   -1.885801
 H   -0.683577    0.335097   -1.255211
 H   -1.034253   -1.368925   -1.624387
 H   -1.746277    0.076320    0.977956
 H   -2.055736   -1.625672    0.645235
 H   -3.199909    0.713200   -0.956896
 H   -3.518955   -0.991271   -1.270817
 H   -8.177648    1.514644   -0.327569
 H   -9.063343    0.565756    0.867599
 H   -8.497784   -0.194426   -0.620575
 H   -7.036930   -0.799549    1.311044
 H   -6.718281    0.908826    1.606383
 H   -5.678908    1.104615   -0.646664
 H   -5.997366   -0.603725   -0.942330
