42 
4cbt_ligand_dft.xyz
 F   -8.327411   -0.316827    0.073609
 C   -6.995593   -0.235867    0.039704
 C   -6.211242   -1.376902    0.082126
 N   -4.885746   -1.296823    0.048834
 C   -6.358176    0.991195   -0.038956
 N   -5.032584    1.072346   -0.072199
 C   -4.340958   -0.074706   -0.027003
 C   -2.859765    0.015002   -0.064973
 C   -2.079807   -1.144396   -0.033413
 C   -0.694983   -1.057135   -0.069857
 C   -2.226762    1.259148   -0.130620
 C   -0.841043    1.338439   -0.166377
 C   -0.057734    0.183250   -0.139353
 C    1.433193    0.261396   -0.218182
 C    2.214197    1.106897    0.759709
 C    3.397992    1.931389    0.378812
 N    3.598606    2.145460   -0.952193
 O    4.616746    3.038879   -1.262292
 O    4.204088    2.369692    1.194207
 C    2.311940   -0.409152    0.799968
 C    3.552823   -1.134884    0.382811
 C    3.506165   -2.069731   -0.652392
 C    4.761363   -0.918720    1.048891
 C    5.902240   -1.624544    0.680692
 C    5.847103   -2.556812   -0.352098
 C    4.645621   -2.779053   -1.018857
 H   -6.664430   -2.363354    0.145010
 H   -6.928883    1.916159   -0.074998
 H   -2.571337   -2.109186    0.023089
 H   -0.095220   -1.963321   -0.039868
 H   -2.831792    2.158818   -0.150253
 H   -0.357590    2.311098   -0.211031
 H    1.835381    0.221934   -1.230615
 H    1.659468    1.551865    1.581053
 H    2.808824    2.276790   -1.568555
 H    4.984318    3.222016   -0.371136
 H    1.788757   -0.849934    1.647296
 H    2.567851   -2.240068   -1.175022
 H    4.808773   -0.176086    1.839805
 H    6.839081   -1.441147    1.198288
 H    6.739571   -3.104830   -0.639461
 H    4.595885   -3.503645   -1.826297
