42 
4cbt_ligand_ani.xyz
 F   -8.293836   -0.326873    0.103837
 C   -6.960311   -0.245336    0.057070
 C   -6.179320   -1.386921    0.076675
 N   -4.855868   -1.307666    0.030600
 C   -6.327384    0.982723   -0.011926
 N   -5.004093    1.065423   -0.056891
 C   -4.316324   -0.083539   -0.033637
 C   -2.837039    0.006948   -0.080415
 C   -2.056616   -1.152472   -0.067998
 C   -0.675288   -1.059973   -0.103053
 C   -2.206051    1.252476   -0.134320
 C   -0.823125    1.333292   -0.167465
 C   -0.033955    0.180385   -0.149155
 C    1.457321    0.270212   -0.216708
 C    2.223112    1.106433    0.772774
 C    3.379328    1.975041    0.384695
 N    3.517801    2.268849   -0.944619
 O    4.477653    3.230993   -1.238579
 O    4.197467    2.414877    1.188122
 C    2.329302   -0.409543    0.799218
 C    3.557350   -1.157648    0.368619
 C    3.475718   -2.142490   -0.616745
 C    4.787640   -0.934142    0.991127
 C    5.905290   -1.682096    0.636417
 C    5.811052   -2.661491   -0.347896
 C    4.590898   -2.890256   -0.977437
 H   -6.637537   -2.372873    0.130559
 H   -6.904795    1.905346   -0.029716
 H   -2.545216   -2.119785   -0.028084
 H   -0.072806   -1.965997   -0.085388
 H   -2.811809    2.152032   -0.147384
 H   -0.335102    2.304622   -0.200757
 H    1.866274    0.257726   -1.226092
 H    1.665532    1.524738    1.605098
 H    2.687791    2.431528   -1.501523
 H    4.878692    3.386992   -0.356860
 H    1.806424   -0.865114    1.639812
 H    2.520467   -2.319814   -1.107858
 H    4.861434   -0.147081    1.738184
 H    6.855568   -1.498685    1.131228
 H    6.686292   -3.244238   -0.624564
 H    4.507902   -3.650363   -1.750205
