40 
4cby_ligand_xtb.xyz
 C   -2.672308    1.847250    0.018809
 C   -1.526394    1.073974   -0.516512
 C   -0.727763    0.231321    0.442285
 C   -1.612729   -0.454820   -0.548800
 C    0.750414    0.151229    0.311268
 C    1.380524   -1.076285    0.142509
 C    2.754759   -1.152199    0.038676
 C    3.533056    0.004134    0.101644
 C    2.900459    1.236939    0.270161
 C    1.526494    1.304521    0.373861
 C   -2.869368   -1.167103   -0.215831
 C   -3.525360   -1.850321   -1.237684
 C   -4.709677   -2.520694   -0.997476
 C   -5.259790   -2.520385    0.273170
 C   -4.613611   -1.849457    1.296421
 C   -3.426728   -1.179325    1.057717
 C    4.974303   -0.078647   -0.000405
 O    5.582325   -1.284367   -0.172094
 C    6.888286   -1.011824   -0.220850
 N    7.175007    0.241621   -0.098382
 C    5.972366    0.862683    0.044187
 O   -3.111582    1.780261    1.155561
 N   -3.201832    2.734304   -0.855341
 O   -4.352943    3.418391   -0.446597
 H   -1.013211    1.540507   -1.348444
 H   -1.079463    0.275483    1.467333
 H   -1.103062   -0.883773   -1.406802
 H    0.785311   -1.976767    0.098901
 H    3.238339   -2.108672   -0.090180
 H    3.490754    2.138250    0.320501
 H    1.041764    2.260502    0.508775
 H   -3.100375   -1.852819   -2.232270
 H   -5.204262   -3.043200   -1.803267
 H   -6.186009   -3.041893    0.463821
 H   -5.035256   -1.846217    2.290646
 H   -2.946676   -0.658693    1.869921
 H    7.585460   -1.814579   -0.352703
 H    5.912942    1.923361    0.167779
 H   -3.108292    2.710518   -1.856908
 H   -4.454168    3.126302    0.485091
