45 
4cd4_ligand_ani.xyz
 C   -0.747617   -0.621157   -0.489919
 C   -1.783899   -1.722605   -0.251961
 C   -3.180147   -1.209531   -0.581189
 C   -3.440639    0.121969    0.130050
 C   -2.333099    1.112167   -0.199170
 C   -2.469341    2.444592    0.512361
 O   -1.800303   -2.084612    1.115940
 O   -4.181632   -2.143076   -0.237915
 O   -4.681504    0.645134   -0.289058
 O   -1.090251    0.548913    0.210037
 O   -1.484277    3.306696   -0.030529
 O    0.472022   -1.078705   -0.001899
 C    1.656969   -0.582920   -0.639113
 C    1.756296    0.954730   -0.492964
 O    2.769591    1.475531   -1.372646
 C    2.114419    1.344424    0.936984
 N    3.301869    0.568693    1.425953
 C    2.986325   -0.887779    1.465360
 C    2.816936   -1.358654    0.019345
 C    4.152798   -1.286590   -0.740427
 O    4.830500   -0.038926   -0.619629
 H   -0.689830   -0.403624   -1.573919
 H   -1.549982   -2.593351   -0.883804
 H   -3.266307   -1.046957   -1.663364
 H   -3.427447   -0.062217    1.218597
 H   -2.324452    1.306072   -1.285499
 H   -2.311184    2.278212    1.588888
 H   -3.484928    2.840207    0.362646
 H   -0.874608   -2.142982    1.393468
 H   -3.956399   -2.467767    0.647643
 H   -5.308475   -0.088573   -0.209813
 H   -1.381427    4.054592    0.567818
 H    1.611244   -0.835068   -1.712916
 H    0.799763    1.416812   -0.748762
 H    2.370157    1.615240   -2.240486
 H    1.255131    1.120458    1.573216
 H    2.323661    2.413005    0.988205
 H    4.091365    0.658972    0.734295
 H    3.614901    0.922966    2.342283
 H    3.793226   -1.425978    1.965388
 H    2.062207   -1.048602    2.025292
 H    2.517751   -2.412295    0.020844
 H    3.997200   -1.535776   -1.801383
 H    4.834335   -2.033539   -0.314840
 H    4.343831    0.589812   -1.186020
