47 
4cd5_ligand_xtb.xyz
 C   -1.239977   -0.804414   -0.590655
 C   -2.123201   -1.858771    0.099232
 C   -3.602712   -1.530811   -0.138277
 C   -3.878378   -0.076574    0.289234
 C   -2.905310    0.864450   -0.428310
 C   -3.069512    2.315314    0.042440
 O   -1.906409   -1.864621    1.487802
 O   -4.440879   -2.414408    0.556048
 O   -5.194545    0.288061   -0.025973
 O   -1.565417    0.487282   -0.151544
 O   -2.230749    3.197210   -0.646389
 C    2.435466    0.737240    1.026695
 N    2.869901   -0.468409    0.590203
 C    1.137164    0.977912   -1.054349
 C    1.094504   -0.558775   -1.075667
 C    2.408796   -1.176822   -0.574807
 C    3.503751   -1.204685   -1.652961
 C    4.034944    0.186350    2.315651
 C    3.897852   -0.830585    1.417332
 N    3.116749    1.157701    2.063578
 O    2.205470    1.418709   -1.851025
 O    1.550330    2.860314    0.356813
 O    0.075663   -1.087840   -0.238058
 C    1.304267    1.469587    0.392256
 O    4.460882   -2.164613   -1.265794
 H   -1.378715   -0.871892   -1.690186
 H   -1.882522   -2.847320   -0.323863
 H   -3.848275   -1.643128   -1.200607
 H   -3.704622    0.000911    1.375621
 H   -3.086144    0.810924   -1.513103
 H   -2.883146    2.353416    1.123580
 H   -4.095529    2.626273   -0.159035
 H   -0.966329   -1.709674    1.638751
 H   -4.067460   -2.523933    1.441619
 H   -5.757948   -0.472097    0.176827
 H   -1.314007    2.970682   -0.445166
 H    0.192034    1.371126   -1.456578
 H    0.914894   -0.884427   -2.111082
 H    2.204249   -2.217586   -0.291170
 H    3.948430   -0.208137   -1.747055
 H    3.052255   -1.477768   -2.615722
 H    4.726486    0.286303    3.127179
 H    4.427702   -1.749184    1.281006
 H    2.365467    2.338189   -1.587532
 H    2.052769    3.075649    1.153860
 H    0.373105    1.267235    0.945718
 H    5.200067   -2.137860   -1.881458
