45 
4cd6_ligand_ani.xyz
 O    0.470974   -1.087806   -0.011528
 C    1.658395   -0.583419   -0.644544
 C    1.749333    0.950224   -0.504061
 O    2.762188    1.404559   -1.418115
 C    2.084468    1.343442    0.932424
 N    3.284276    0.587693    1.413987
 C    2.981402   -0.871933    1.468030
 C    2.812522   -1.359347    0.027039
 C    4.151167   -1.308341   -0.728026
 O    4.833319   -0.062828   -0.620870
 C   -0.748347   -0.627576   -0.494595
 C   -1.787987   -1.725292   -0.253240
 C   -3.183675   -1.207521   -0.578957
 C   -3.437784    0.126893    0.129582
 C   -2.327061    1.111735   -0.204340
 C   -2.456576    2.447232    0.502296
 O   -1.803460   -2.086775    1.114981
 O   -4.187395   -2.136476   -0.229966
 O   -4.677625    0.653861   -0.287624
 O   -1.087059    0.543408    0.206162
 O   -1.468445    3.303074   -0.044872
 H    1.621426   -0.828074   -1.717670
 H    0.795802    1.401732   -0.789686
 H    2.728072    2.370623   -1.433880
 H    2.272203    2.417555    1.007749
 H    1.226555    1.095175    1.559257
 H    4.058700    0.680845    0.708949
 H    3.608398    0.949577    2.322535
 H    2.058916   -1.033826    2.030765
 H    3.792719   -1.399294    1.972727
 H    2.504570   -2.410345    0.040522
 H    3.995748   -1.566197   -1.786572
 H    4.826590   -2.054226   -0.291501
 H    4.358874    0.547630   -1.215752
 H   -0.692372   -0.410732   -1.578540
 H   -1.558756   -2.597224   -0.884978
 H   -3.272918   -1.047233   -1.661249
 H   -3.422538   -0.054551    1.218524
 H   -2.318324    1.301696   -1.291416
 H   -3.470747    2.846186    0.352320
 H   -2.297842    2.284097    1.579272
 H   -0.878006   -2.156574    1.390071
 H   -3.960329   -2.459403    0.655777
 H   -5.307678   -0.076489   -0.203022
 H   -1.374121    4.060478    0.542891
