45 
4cd6_ligand_dft.xyz
 O    0.456863   -1.241282   -0.169546
 C    1.623058   -0.670485   -0.747996
 C    1.673776    0.870529   -0.602380
 O    2.763777    1.341931   -1.388356
 C    1.817517    1.292054    0.856089
 N    2.950982    0.550854    1.506433
 C    2.773980   -0.942275    1.456057
 C    2.776417   -1.377554   -0.010710
 C    4.178170   -1.241827   -0.632494
 O    4.809211    0.006980   -0.365560
 C   -0.771619   -0.720339   -0.574685
 C   -1.876452   -1.740363   -0.295476
 C   -3.237964   -1.082648   -0.547450
 C   -3.358470    0.273657    0.163948
 C   -2.164362    1.145885   -0.211092
 C   -2.121627    2.486039    0.487350
 O   -1.874393   -2.145666    1.056541
 O   -4.294087   -1.929962   -0.173389
 O   -4.532693    0.935020   -0.226593
 O   -0.980545    0.453235    0.161200
 O   -0.928208    3.144161    0.081977
 H    1.664165   -0.900500   -1.821392
 H    0.740208    1.313749   -0.949465
 H    2.490164    2.120000   -1.886812
 H    2.022356    2.360352    0.934995
 H    0.898460    1.053961    1.393030
 H    3.839523    0.719219    0.985238
 H    3.067510    0.866241    2.471126
 H    1.828625   -1.180963    1.945871
 H    3.603130   -1.386138    2.011749
 H    2.527090   -2.444362   -0.027829
 H    4.131150   -1.427763   -1.711229
 H    4.826740   -2.003329   -0.191929
 H    4.459954    0.640853   -1.015415
 H   -0.753279   -0.487529   -1.657001
 H   -1.758117   -2.600928   -0.967870
 H   -3.354053   -0.901076   -1.623007
 H   -3.331499    0.103330    1.252272
 H   -2.165273    1.320256   -1.299794
 H   -3.019132    3.047267    0.205836
 H   -2.133685    2.330384    1.575765
 H   -1.130419   -2.742397    1.196804
 H   -4.049733   -2.309127    0.684590
 H   -5.253484    0.293493   -0.149815
 H   -1.041215    4.087647    0.242085
