47 
4cd8_ligand_ani.xyz
 C    2.550444    0.838100    0.918771
 N    2.931327   -0.422776    0.588816
 C    1.136044    0.893553   -1.097895
 C    1.064197   -0.638155   -1.013631
 C    2.371434   -1.253094   -0.483773
 C    3.405533   -1.518844   -1.577908
 C    4.226447    0.389614    2.155908
 C    4.009784   -0.726815    1.393999
 N    3.313008    1.372566    1.841271
 O    2.216678    1.243025   -1.935992
 O    1.588624    2.881628    0.114559
 C    1.363792    1.491664    0.286250
 O    4.414095   -2.345038   -1.017153
 C   -1.282319   -0.794166   -0.509221
 C   -2.192669   -1.833160    0.147157
 C   -3.652033   -1.483859   -0.114464
 C   -3.929487   -0.030740    0.278669
 C   -2.947508    0.904074   -0.410117
 C   -3.076954    2.355179    0.039688
 O    0.027081   -1.071052   -0.122242
 O   -2.024195   -1.820583    1.552036
 O   -4.534731   -2.345898    0.571066
 O   -5.242322    0.320074   -0.095383
 O   -1.615031    0.505179   -0.074987
 O   -2.100136    3.158613   -0.581680
 H    0.200540    1.298048   -1.506053
 H    0.859180   -1.043790   -2.015134
 H    2.122550   -2.219005   -0.037665
 H    2.911198   -2.031393   -2.418522
 H    3.815000   -0.567366   -1.936468
 H    4.982531    0.551020    2.913374
 H    4.497134   -1.684842    1.315837
 H    2.427139    2.161088   -1.701790
 H    2.152966    3.154861    0.855682
 H    0.483594    1.323209    0.919507
 H    5.185671   -2.314391   -1.594017
 H   -1.394088   -0.856547   -1.608013
 H   -1.971654   -2.830421   -0.264102
 H   -3.870459   -1.600948   -1.183624
 H   -3.780647    0.063303    1.367929
 H   -3.088966    0.852069   -1.503554
 H   -4.058216    2.742979   -0.246682
 H   -2.996671    2.404036    1.138162
 H   -1.070886   -1.806577    1.720274
 H   -4.188891   -2.425256    1.473535
 H   -5.804779   -0.395179    0.235677
 H   -1.243330    2.808872   -0.297337
