52 
4ce1_ligand_ani.xyz
 O   -0.417154    2.165542   -1.927788
 C   -0.621914    1.974968   -0.735306
 N    0.199215    2.492698    0.225661
 C    0.101491    2.125855    1.631332
 C   -1.780086    1.129936   -0.281215
 C   -2.879433    1.746237    0.328542
 O   -2.784379    3.081769    0.574506
 C   -4.020765    1.026809    0.650050
 C   -4.074845   -0.336266    0.382622
 O   -5.205241   -0.997708    0.709884
 C   -2.964062   -0.956172   -0.206041
Cl   -3.088453   -2.676733   -0.522276
 C   -1.814814   -0.243196   -0.546316
 C   -0.615887   -0.961196   -1.127474
 C    0.173773   -1.731235   -0.068447
 O    0.273783   -1.318115    1.065554
 C    0.783260   -3.061305   -0.477186
 C    1.909594   -3.560673    0.426923
 C    3.310039   -3.016837    0.112668
 C    3.498070   -1.516019    0.325363
 C    4.958753   -1.073048    0.227195
 C    5.185307    0.383941    0.669777
 C    4.468530    1.398831   -0.179743
 C    3.180066    1.711759   -0.033306
 C    2.428357    2.659265   -0.921610
 C    1.260149    3.378663   -0.240424
 H   -0.018421    1.041957    1.729255
 H    1.020577    2.430758    2.141268
 H   -0.742810    2.627099    2.115002
 H   -3.621962    3.389536    0.942469
 H   -4.883128    1.502817    1.110357
 H   -5.107510   -1.932031    0.469774
 H    0.058622   -0.247301   -1.609720
 H   -0.944424   -1.663103   -1.900417
 H    1.112990   -2.994888   -1.523076
 H   -0.050926   -3.778085   -0.470440
 H    1.951790   -4.653429    0.343622
 H    1.643109   -3.331285    1.464974
 H    3.575964   -3.276352   -0.923767
 H    4.025998   -3.554248    0.750763
 H    3.107655   -1.247568    1.317756
 H    2.903457   -0.961351   -0.411958
 H    5.318140   -1.205950   -0.802963
 H    5.578642   -1.723910    0.859501
 H    6.260657    0.596803    0.667495
 H    4.850655    0.478528    1.715619
 H    5.037459    1.855798   -0.990969
 H    2.597122    1.195267    0.737468
 H    2.034447    2.123307   -1.793925
 H    3.120432    3.417747   -1.314048
 H    1.616726    3.950517    0.624203
 H    0.814370    4.081140   -0.950844
