52 
4ce1_ligand_dft.xyz
 O   -0.538119    2.137022   -2.030762
 C   -0.695140    1.966824   -0.824712
 N    0.130365    2.514742    0.102217
 C    0.000657    2.261624    1.530747
 C   -1.819943    1.100013   -0.316031
 C   -2.923509    1.687520    0.314627
 O   -2.880820    3.031645    0.507129
 C   -4.006847    0.923927    0.724649
 C   -4.003080   -0.451903    0.512686
 O   -5.075385   -1.149136    0.936343
 C   -2.902572   -1.035367   -0.119832
Cl   -2.927669   -2.779149   -0.348348
 C   -1.813238   -0.275599   -0.551964
 C   -0.642372   -0.947213   -1.219978
 C    0.260038   -1.688993   -0.232829
 O    0.358989   -1.335437    0.922624
 C    0.993216   -2.886300   -0.811103
 C    2.010686   -3.561835    0.111194
 C    3.427815   -2.981606    0.036237
 C    3.507564   -1.508426    0.427461
 C    4.928668   -0.953014    0.493937
 C    4.969695    0.497403    1.014340
 C    4.341470    1.497045    0.075439
 C    3.030813    1.723043   -0.011957
 C    2.366400    2.654848   -0.984253
 C    1.176014    3.413182   -0.381572
 H    0.964941    2.447628    2.008012
 H   -0.752163    2.914225    1.986924
 H   -0.263333    1.216184    1.705627
 H   -3.706138    3.322976    0.912691
 H   -4.868777    1.369297    1.212467
 H   -4.943709   -2.087672    0.738796
 H   -0.025995   -0.202329   -1.735381
 H   -0.985706   -1.639841   -1.995092
 H    1.452889   -2.579489   -1.762285
 H    0.201556   -3.595323   -1.093235
 H    2.055596   -4.626775   -0.143508
 H    1.642220   -3.496032    1.141292
 H    3.823145   -3.113790   -0.981624
 H    4.078299   -3.570718    0.696432
 H    3.017577   -1.370829    1.400163
 H    2.928803   -0.911163   -0.286565
 H    5.399937   -1.007302   -0.497019
 H    5.533195   -1.580017    1.163194
 H    6.010386    0.781483    1.208123
 H    4.452127    0.526442    1.982277
 H    5.014595    2.029493   -0.598581
 H    2.363109    1.160303    0.642539
 H    1.980109    2.093242   -1.843541
 H    3.091778    3.377874   -1.376979
 H    1.496852    4.034812    0.459650
 H    0.741200    4.065855   -1.143188
