46 
4ce3_ligand_dft.xyz
 C    0.063730    1.491748   -0.872775
 C   -1.286866    0.988286   -0.425242
 C   -2.264966    1.895298    0.000362
 C   -3.527995    1.463534    0.381394
 C   -3.835106    0.107405    0.347826
 C   -2.863085   -0.796858   -0.091863
 C   -1.598958   -0.371901   -0.503051
 C   -0.576808   -1.356737   -0.997423
 C    0.365750   -1.868215    0.085097
 C    1.332312   -2.953031   -0.354993
 C    2.729146   -2.349351   -0.609001
 C    3.516796   -2.106292    0.688373
 C    4.759975   -1.289471    0.450410
 C    4.814662    0.044069    0.448819
 C    3.657797    0.973093    0.687303
 C    3.259242    1.742428   -0.578912
 C    0.528132    2.068729    1.493164
 O    0.410660    1.399839   -2.047999
 O   -1.926495    3.210805    0.023393
 O   -5.069235   -0.260866    0.742976
Cl   -3.295832   -2.501636   -0.097270
 C    2.086044    2.701246   -0.367833
 O    0.389337   -1.396704    1.203723
 N    0.862928    2.039674    0.077835
 H   -4.293734    2.158821    0.712431
 H    0.040765   -0.887778   -1.773626
 H   -1.056990   -2.217716   -1.471914
 H    0.962370   -3.436197   -1.264962
 H    1.391078   -3.709956    0.434858
 H    2.625666   -1.402413   -1.154423
 H    3.295786   -3.018988   -1.265945
 H    3.784493   -3.077216    1.123634
 H    2.859360   -1.617715    1.413688
 H    5.669707   -1.843501    0.222450
 H    5.767880    0.524300    0.226309
 H    3.924391    1.693726    1.474868
 H    2.788528    0.413642    1.047306
 H    2.988211    1.037700   -1.371923
 H    4.114905    2.322820   -0.948697
 H    1.451719    2.040259    2.075200
 H   -0.029732    2.974934    1.754834
 H   -0.055570    1.185261    1.755922
 H   -2.689725    3.731033    0.301401
 H   -5.150493   -1.223340    0.675156
 H    1.867160    3.215392   -1.307233
 H    2.339917    3.458553    0.382744
