46 
4ce3_ligand_xtb.xyz
 C    0.088484    1.475747   -0.868719
 C   -1.251499    0.982665   -0.399273
 C   -2.216468    1.903695    0.020855
 C   -3.483021    1.474157    0.385551
 C   -3.809181    0.125487    0.345643
 C   -2.844842   -0.780120   -0.095939
 C   -1.582057   -0.367136   -0.498732
 C   -0.568021   -1.356754   -0.985119
 C    0.356249   -1.831636    0.119605
 C    1.266273   -2.969786   -0.284637
 C    2.671600   -2.415610   -0.574383
 C    3.436258   -2.098725    0.716033
 C    4.677220   -1.311788    0.421060
 C    4.771594    0.009378    0.405446
 C    3.665020    0.978718    0.681357
 C    3.243318    1.695782   -0.604748
 C    0.545897    2.069123    1.465939
 O    0.427079    1.359158   -2.037755
 O   -1.890048    3.221288    0.052835
 O   -5.042068   -0.261365    0.724469
Cl   -3.288592   -2.469488   -0.129810
 C    2.097500    2.687852   -0.387596
 O    0.397836   -1.314548    1.208684
 N    0.873318    2.049474    0.059227
 H   -4.237867    2.174549    0.710454
 H    0.055869   -0.886728   -1.750779
 H   -1.056598   -2.220347   -1.438489
 H    0.877984   -3.470137   -1.171276
 H    1.330356   -3.688298    0.534688
 H    2.584785   -1.508974   -1.177355
 H    3.229730   -3.149320   -1.159311
 H    3.705382   -3.035488    1.209509
 H    2.778996   -1.544944    1.386120
 H    5.549578   -1.902299    0.171847
 H    5.720190    0.465716    0.151119
 H    4.013794    1.721699    1.405523
 H    2.803819    0.461607    1.100076
 H    2.922802    0.961488   -1.344711
 H    4.095447    2.238106   -1.019753
 H    0.090583    1.122320    1.756946
 H    1.457215    2.207569    2.042982
 H   -0.141614    2.886217    1.699303
 H   -2.667920    3.741544    0.289801
 H   -5.108473   -1.225629    0.630956
 H    1.882649    3.177875   -1.341911
 H    2.377796    3.445892    0.346511
