38 
4cff_ligand_xtb.xyz
 O    1.313523    1.654005    0.059254
 C    2.445340    0.941137    0.007229
 C    2.401983   -0.461869   -0.063281
 C    3.706048    1.554327    0.036032
 C    3.790041    2.956945    0.103182
 N    3.775175    4.103780    0.156305
 C    4.872378    0.753040    0.011544
 O    6.067888    1.345724    0.034643
 N    4.834858   -0.559163   -0.020487
 C    3.639749   -1.135514   -0.048593
 S    3.441501   -2.851162   -0.043347
 C    1.718667   -2.662835   -0.055003
 C    1.294212   -1.375184   -0.077471
 C   -0.122583   -1.000433   -0.115500
 C   -1.014096   -1.554541    0.798462
 C   -2.351371   -1.214789    0.770613
 C   -0.605439   -0.117876   -1.076519
 C   -1.943998    0.215615   -1.106726
 C   -2.835691   -0.320301   -0.179873
 C   -4.260103    0.044894   -0.230417
 C   -4.931240    0.080211   -1.448222
 C   -6.268242    0.423462   -1.528541
 C   -6.961434    0.750224   -0.376878
 C   -6.313466    0.728846    0.844517
 C   -4.972965    0.375589    0.931174
 O   -4.327568    0.368700    2.130538
 H    1.504505    2.602195    0.124457
 H    6.750288    0.658905    0.024320
 H    1.105635   -3.542531   -0.067703
 H   -0.647056   -2.243921    1.545114
 H   -3.029633   -1.650792    1.486972
 H    0.069777    0.299956   -1.808069
 H   -2.303295    0.915067   -1.847507
 H   -4.390800   -0.186142   -2.344576
 H   -6.767258    0.435721   -2.485436
 H   -8.004938    1.022842   -0.424372
 H   -6.849639    0.990522    1.748270
 H   -4.929322    0.671324    2.821498
