60 
4cgi_ligand_ani.xyz
 C    6.113810   -0.177003    0.189365
 C    5.547180   -0.275340    1.458920
 C    5.310486   -0.157512   -0.952174
 C    4.163701   -0.365772    1.612387
 C   -0.184137   -3.082095   -1.145710
 C   -1.454164   -3.319980   -1.686015
 C   -1.092839   -1.762091    0.676698
 C    3.933072   -0.234975   -0.798570
 C    3.368250   -0.351906    0.472801
 C    0.025811   -2.303147   -0.004103
 C   -2.513623   -2.739276   -1.033076
 C   -2.337353   -1.965170    0.101960
 C   -1.012028   -1.020894    1.975691
 C    0.307511    2.262288   -1.246048
 C    2.837418   -0.201378   -1.847705
 C   -4.512583   -2.192805   -0.266700
 C    1.858985   -0.517712    0.363632
 C    1.575006    0.140360   -1.021419
 C    1.450596   -2.009897    0.422897
 C    0.354834    3.777583   -1.102869
 C   -0.986225    4.319299   -0.601640
 C   -1.334446    3.793520    0.799321
 C   -2.833272    3.676696    1.096994
 C   -3.590892    2.690378    0.196044
 N    1.429942    1.583448   -0.890527
 N   -2.925290    1.365416    0.118628
 O   -0.172589   -1.581060    2.858907
 O   -1.616381   -0.002774    2.249573
 O   -0.709255    1.698524   -1.641875
 O   -3.841188   -2.755086   -1.377570
 O   -3.554356   -1.441250    0.481001
 H    7.194349   -0.110806    0.085198
 H    6.188617   -0.284180    2.336706
 H    5.764491   -0.079862   -1.939012
 H    3.726227   -0.443937    2.606851
 H    0.681022   -3.505278   -1.651146
 H   -1.597708   -3.918608   -2.579119
 H    3.009214    0.528106   -2.645664
 H    2.724083   -1.187482   -2.319525
 H   -5.298098   -1.526772   -0.625805
 H   -4.924849   -2.989582    0.368724
 H    1.337617    0.024307    1.158588
 H    0.653717   -0.217799   -1.480741
 H    2.119272   -2.577929   -0.233305
 H    1.618556   -2.375381    1.438974
 H    0.585790    4.196822   -2.091342
 H    1.174114    4.064726   -0.432215
 H   -1.753881    4.024164   -1.324690
 H   -0.968085    5.414860   -0.600203
 H   -0.874639    2.804727    0.933269
 H   -0.865975    4.436202    1.555612
 H   -3.318187    4.657112    1.014611
 H   -2.959491    3.356675    2.140572
 H   -4.607455    2.561605    0.577036
 H   -3.678665    3.087766   -0.819982
 H    2.230491    2.096330   -0.552862
 H   -2.179851    1.385905   -0.600277
 H   -3.593922    0.628506   -0.130591
 H   -2.527093    1.091678    1.029987
 H   -0.212670   -1.029764    3.659271
