32 
4ci2_ligand_ani.xyz
 C    1.438518   -0.464052    0.311677
 C    1.955898   -0.804812   -1.092646
 C    3.467137   -1.007294   -1.068364
 C    4.212227    0.144939   -0.428313
 N    3.485479    0.890333    0.493347
 C    2.167804    0.741551    0.907740
 C   -2.190485   -0.892945    0.191905
 C   -2.119416    0.461977   -0.082252
 C   -0.684555    0.932949   -0.015805
 N    0.007436   -0.289970    0.351706
 C   -0.812160   -1.388464    0.447301
 C   -4.537884   -0.888206   -0.113415
 C   -4.484950    0.478490   -0.398757
 C   -3.275355    1.181864   -0.386296
 C   -3.382785   -1.600668    0.187687
 O   -0.443589   -2.525834    0.681556
 N   -3.223529    2.531805   -0.732916
 O    1.683829    1.500865    1.718768
 O    5.371973    0.407626   -0.660799
 H    1.650514   -1.310552    0.973203
 H    1.461205   -1.715517   -1.442132
 H    1.684878    0.007610   -1.778607
 H    3.721917   -1.910646   -0.499045
 H    3.875072   -1.143155   -2.072730
 H    3.990490    1.658305    0.921923
 H   -0.331017    1.320417   -0.981934
 H   -0.509196    1.706991    0.738148
 H   -5.498911   -1.394606   -0.132388
 H   -5.400298    1.015650   -0.640864
 H   -3.394226   -2.663985    0.408865
 H   -4.100744    3.022435   -0.632797
 H   -2.457062    3.048659   -0.325572
