31 
4ci3_ligand_xtb.xyz
 C   -4.394908    0.682499    0.015359
 C   -4.555810   -0.677318    0.157326
 C   -3.467226   -1.555451    0.150660
 C   -2.216860   -1.003457   -0.002303
 C   -2.040112    0.376779   -0.152615
 C   -3.118928    1.262221   -0.149557
 C   -0.876060   -1.629607   -0.019781
 N    0.017758   -0.579695   -0.203530
 C   -0.612689    0.660171   -0.268932
 N   -2.933262    2.586790   -0.332865
 O   -0.040940    1.719384   -0.414052
 C    1.449050   -0.736888   -0.129437
 O   -0.550270   -2.784892    0.084694
 C    2.157480   -0.302426   -1.411013
 C    1.959358    0.053515    1.072442
 N    3.264080    0.477942    0.980558
 C    4.172815    0.303819   -0.047420
 C    3.658178   -0.480147   -1.229095
 O    1.291118    0.285035    2.045835
 O    5.287733    0.746748    0.045153
 H   -5.258393    1.331626    0.031337
 H   -5.551192   -1.076609    0.283270
 H   -3.599616   -2.618386    0.267226
 H   -3.686654    3.231767   -0.177588
 H   -1.985783    2.929733   -0.334639
 H    1.626131   -1.805303    0.065781
 H    1.800829   -0.902773   -2.249628
 H    1.921017    0.744774   -1.610616
 H    3.602796    1.014827    1.774975
 H    4.210194   -0.163221   -2.114513
 H    3.893782   -1.534161   -1.051589
