68 
4cig_ligand_ani.xyz
 C   -4.918868    0.020876   -0.331346
 C   -4.300017   -1.194909   -0.708238
 C   -4.104328    1.072897    0.168263
 C   -2.889795   -1.327424   -0.555978
 C    1.658650   -3.148523    2.225071
 C    0.583558    2.925580   -1.096291
 C    1.440396    4.413352    0.563337
 C    2.108910   -4.375102    1.760240
 C    1.867912    2.500028   -1.391121
 C    2.744091    4.016048    0.269773
 C   -2.747616    0.918835    0.314340
 C    2.397522   -2.100430    0.190922
 C    0.342327    3.873774   -0.096564
 C   -2.114954   -0.315682   -0.041335
 C    1.766500   -2.000852    1.431104
 C    2.681642   -4.491408    0.496502
 C    2.824363   -3.349175   -0.289918
 C    2.952004    3.035379   -0.694138
 C   -1.916267    2.068715    0.824295
 C    2.685675   -0.901755   -0.670452
 C   -7.077617   -0.874317   -0.971312
 C    3.844122   -4.565679   -2.045404
 C    5.319750    3.236274   -0.568921
 C   -1.070141    4.291072    0.288916
 C   -0.629415   -0.531687    0.195900
 C    1.175722   -0.687420    1.925560
 C   -1.101611   -1.466796    2.444013
 C   -6.458110   -2.093379   -1.347637
 N   -2.057415    3.232168    0.145431
 N   -0.283617   -0.515290    1.657125
 O    2.107318   -0.641557   -1.701243
 O   -1.102528    1.966217    1.743785
 C   -6.325704    0.157946   -0.477558
 O    3.648029   -0.136656   -0.141655
 C   -5.103492   -2.248386   -1.219676
 O    3.393322   -3.335425   -1.521342
 O    4.181853    2.503734   -0.994630
 H   -4.573257    2.011481    0.455929
 H   -2.432967   -2.270483   -0.845543
 H    1.203512   -3.074754    3.210069
 H   -0.251782    2.484798   -1.636653
 H    1.283625    5.164658    1.336273
 H    2.010296   -5.259802    2.383310
 H    2.041015    1.731237   -2.136985
 H    3.575485    4.462175    0.806278
 H    3.018579   -5.459674    0.143552
 H   -8.154015   -0.767879   -1.079230
 H    3.019433   -5.282551   -2.150936
 H    4.626908   -5.007868   -1.415370
 H    4.256606   -4.340828   -3.029572
 H    5.419251    3.198565    0.522022
 H    5.262157    4.281150   -0.895405
 H    6.184173    2.757248   -1.030428
 H   -1.061210    4.623810    1.332070
 H   -1.417051    5.133251   -0.320146
 H   -0.053019    0.267859   -0.281459
 H   -0.319608   -1.484999   -0.240839
 H    1.308687   -0.622877    3.010336
 H    1.688616    0.170202    1.486279
 H   -0.782978   -1.456952    3.491201
 H   -1.010839   -2.484421    2.048596
 H   -2.147665   -1.159883    2.402580
 H   -7.069004   -2.903238   -1.738262
 H   -2.716669    3.267383   -0.615775
 H   -0.541517    0.455464    1.957254
 H   -6.793998    1.096657   -0.187350
 H    3.801749    0.636292   -0.726015
 H   -4.622479   -3.181782   -1.507074
