38 
4cik_ligand_dft.xyz
 C   -1.232482    1.778688   -0.305684
 C    0.233179    2.062480   -0.600584
 N    1.094192    1.067299    0.122957
 C    0.800101   -0.371968   -0.249858
 C   -0.663230   -0.660466    0.052302
 C   -1.610711    0.327973   -0.656220
 C   -3.032418    0.038823   -0.295762
 O   -3.322337    0.230833    1.016713
 N   -4.628708   -0.251495    1.187764
 C   -5.209461   -0.506712   -0.077725
 C   -4.075526   -0.413072   -1.004767
 O   -6.377523   -0.758434   -0.245108
 C    1.797553   -1.282037    0.475113
 C    3.224565   -0.820918    0.274732
 C    3.902950   -0.149282    1.296877
 C    5.193670    0.334908    1.092249
 C    5.815359    0.155793   -0.139334
 C    5.147312   -0.511242   -1.164631
 C    3.859158   -0.994387   -0.960233
 H   -1.841311    2.480315   -0.882688
 H   -1.443812    1.972483    0.752993
 H    0.536009    3.059734   -0.275076
 H    0.465822    1.953704   -1.663214
 H    2.095489    1.236015   -0.045887
 H    0.965086    1.175612    1.135073
 H    0.985096   -0.411709   -1.329323
 H   -0.832475   -0.623223    1.136259
 H   -0.883341   -1.684599   -0.263382
 H   -1.519782    0.189016   -1.740141
 H   -5.122977    0.335384    1.850567
 H   -4.120988   -0.629227   -2.060774
 H    1.549340   -1.319767    1.543228
 H    1.650329   -2.294369    0.084507
 H    3.433880   -0.032536    2.272230
 H    5.714842    0.839432    1.899480
 H    6.822430    0.526856   -0.298685
 H    5.634756   -0.664166   -2.122030
 H    3.351985   -1.530256   -1.759866
