39 
4ciy_ligand_ani.xyz
 C   -3.933650   -0.705532    1.120573
 C   -5.310786   -0.497268    1.148647
 C   -6.004505   -0.255761   -0.033611
 C   -5.314829   -0.225737   -1.242891
 C   -3.939889   -0.434599   -1.267803
 C   -3.233015   -0.679272   -0.087498
 C   -1.733413   -0.852088   -0.119172
 C   -0.995341    0.493490   -0.138746
 O   -1.257009    1.215277    1.072632
 C    0.507361    0.402016   -0.260466
 C    1.224404   -0.718981   -0.119747
 C    2.685695   -0.720467    0.239146
 C    3.336537   -2.002253   -0.290408
 O    4.655165   -2.046422   -0.005012
 O    2.766962   -2.899312   -0.855642
 O    2.749173   -0.779957    1.663814
 C    3.405865    0.540849   -0.269590
 C    2.587992    1.753911    0.117989
 O    3.245771    2.932412   -0.283369
 C    1.221996    1.697318   -0.572713
 O    0.498455    2.864961   -0.231558
 H   -3.395640   -0.889480    2.049527
 H   -5.840129   -0.518418    2.097541
 H   -7.078783   -0.090961   -0.012797
 H   -5.849740   -0.037308   -2.170565
 H   -3.405479   -0.404645   -2.216152
 H   -1.409870   -1.412031    0.766984
 H   -1.450639   -1.419767   -1.013428
 H   -1.358165    1.093109   -0.983955
 H   -2.215277    1.322869    1.146783
 H    0.777918   -1.708457   -0.178042
 H    4.971357   -2.908539   -0.324204
 H    3.672701   -0.957162    1.891201
 H    3.524100    0.496507   -1.359126
 H    4.403719    0.601263    0.174302
 H    2.427069    1.748349    1.210667
 H    2.575840    3.627596   -0.190978
 H    1.402481    1.752680   -1.658716
 H   -0.046127    2.634977    0.541775
