39 
4ciy_ligand_dft.xyz
 C   -3.947480   -0.436571    1.169569
 C   -5.318643   -0.201691    1.095224
 C   -5.967821   -0.242250   -0.134664
 C   -5.239357   -0.519293   -1.289221
 C   -3.870048   -0.750542   -1.211880
 C   -3.205865   -0.715043    0.017337
 C   -1.708509   -0.894245    0.087913
 C   -0.993636    0.449121   -0.098156
 O   -1.348709    1.353818    0.956652
 C    0.517628    0.398672   -0.100479
 C    1.215500   -0.661414    0.302756
 C    2.722751   -0.709749    0.381060
 C    3.224376   -1.967543   -0.335375
 O    4.447087   -2.321183    0.114736
 O    2.653622   -2.561868   -1.213768
 O    3.035608   -0.784015    1.762982
 C    3.388014    0.510465   -0.288093
 C    2.601904    1.769960    0.027069
 O    3.281391    2.883965   -0.499885
 C    1.213150    1.653020   -0.594096
 O    0.483006    2.846438   -0.375445
 H   -3.443997   -0.412223    2.132984
 H   -5.878845    0.008246    2.001690
 H   -7.037042   -0.063066   -0.194714
 H   -5.739466   -0.557282   -2.252423
 H   -3.306931   -0.966482   -2.116992
 H   -1.426225   -1.312618    1.059525
 H   -1.368932   -1.587709   -0.689109
 H   -1.313487    0.881006   -1.059384
 H   -2.294800    1.539714    0.871250
 H    0.718019   -1.563503    0.644355
 H    4.721360   -3.100693   -0.394037
 H    3.971030   -1.019386    1.834521
 H    3.422247    0.379226   -1.377392
 H    4.420188    0.600605    0.064941
 H    2.482278    1.861684    1.118530
 H    2.639844    3.608942   -0.467506
 H    1.344884    1.581025   -1.684528
 H   -0.117935    2.687886    0.372322
