38 
4ciz_ligand_xtb.xyz
 C    1.446982   -1.122860   -0.170433
 C    1.996702   -0.762880    1.217147
 C    2.671804    0.604476    1.260269
 C    1.721008    1.692996    0.775647
 C    1.215864    1.387139   -0.633651
 C    0.525917    0.007549   -0.700419
 C   -0.784068    0.034313    0.024023
 C   -1.959830   -0.160659   -0.569989
 C   -3.261697   -0.139244    0.078135
 C   -4.369342   -0.353182   -0.631873
 C    0.641455   -2.423553   -0.063376
 C    2.595095   -1.372819   -1.153718
 C    0.275825    2.485389   -1.126439
 C   -3.322398    0.127893    1.553575
 H    2.709421   -1.531162    1.526943
 H    1.176140   -0.772664    1.937621
 H    2.989155    0.818459    2.283746
 H    3.567309    0.599099    0.636273
 H    0.876355    1.776280    1.461883
 H    2.235562    2.657090    0.772620
 H    2.080397    1.363150   -1.305657
 H    0.317883   -0.205883   -1.755926
 H   -0.737408    0.232173    1.084199
 H   -1.984306   -0.357048   -1.635349
 H   -4.334917   -0.545605   -1.691131
 H   -5.347229   -0.343821   -0.181380
 H    0.204747   -2.681321   -1.025699
 H    1.286934   -3.241222    0.251275
 H   -0.166207   -2.327430    0.657941
 H    2.202164   -1.656412   -2.127969
 H    3.220110   -0.494760   -1.283303
 H    3.224005   -2.184179   -0.792351
 H   -0.581507    2.584266   -0.464503
 H   -0.091086    2.255450   -2.124208
 H    0.796010    3.440402   -1.162583
 H   -4.351881    0.116382    1.902077
 H   -2.889384    1.100999    1.781762
 H   -2.762164   -0.629596    2.100317
