52 
4cj4_ligand_ani.xyz
 C   -0.205301   -0.527277    1.971495
 C    1.027019   -0.176178    2.527790
 C    1.822096    1.375804   -1.796334
 C    1.708136    2.550723    0.281803
 C    3.187215    1.630605   -1.797161
 C    3.079779    2.744693    0.184646
 C    1.056702    1.848124   -0.728580
 C    0.837335   -1.639436    0.097486
 C   -0.333812   -1.256112    0.784807
 C    2.149437   -0.570046    1.837153
 C    2.056735   -1.293180    0.660075
 C   -0.432736    1.682967   -0.628306
 C    0.822145   -2.293168   -1.254789
 C    4.185516   -0.796974    1.002279
 C   -4.903774    1.534299    0.908125
 C   -6.576981   -0.215162    0.217231
 C   -1.745169   -1.607928    0.326486
 C   -4.132867   -0.785487    0.184267
 C   -2.355367    0.330913   -1.239999
 C   -5.167420    0.335795   -0.008141
 C   -2.653786   -0.378259    0.094949
 N    3.822889    2.300734   -0.832665
 N   -0.976167    0.721048   -1.414395
 O    0.125464   -1.944684   -2.188416
 O   -1.096916    2.378635    0.131745
 O    1.679834   -3.313262   -1.347776
 O    3.466128   -0.389845    2.160748
 O    3.309026   -1.579993    0.197512
 H   -1.110213   -0.235471    2.500724
 H    1.099749    0.382739    3.455734
 H    1.385600    0.849803   -2.642172
 H    1.141939    2.955324    1.114905
 H    3.812620    1.269150   -2.612315
 H    3.619589    3.282109    0.963902
 H    5.043316   -1.403934    1.307268
 H    4.492058    0.094698    0.435256
 H   -4.931192    1.232191    1.963880
 H   -3.928541    1.998158    0.718305
 H   -5.669882    2.304972    0.767507
 H   -6.785389   -1.066553   -0.441180
 H   -7.336918    0.551515    0.029501
 H   -6.696934   -0.555881    1.253422
 H   -1.727805   -2.235650   -0.569081
 H   -2.198506   -2.214356    1.122739
 H   -4.306747   -1.244449    1.170537
 H   -4.327042   -1.576406   -0.558464
 H   -2.972331    1.228933   -1.325220
 H   -2.611607   -0.328841   -2.079036
 H   -5.114804    0.685684   -1.050037
 H   -2.447354    0.348425    0.890363
 H   -0.375549    0.010277   -1.815603
 H    1.601192   -3.660022   -2.253715
