65 
4cjr_ligand_ani.xyz
 C    2.122238   -4.315189    1.720331
 C    1.630771   -3.107586    2.193275
 C    0.373753    2.924791   -1.095151
 C    1.098330    4.422917    0.617067
 C    2.708460   -4.401553    0.460313
 C    1.686691    2.566115   -1.350145
 C    2.429001    4.091383    0.366266
 C   -4.302711    0.856261    0.005040
 C   -2.941493   -1.556879   -0.575609
 C   -2.912682    0.747375    0.199390
 C    2.355950   -2.017470    0.176510
 C    0.051665    3.845096   -0.092275
 C    1.709761   -1.949721    1.410902
 C   -2.225895   -0.445773   -0.088338
 C   -4.971243   -0.253194   -0.452186
 C   -4.302249   -1.433020   -0.744764
 C    2.718464    3.139800   -0.605759
 C    2.822414   -3.247911   -0.314087
 C   -2.163299    1.936647    0.732538
 C    2.615835   -0.800517   -0.668023
 C   -6.440209   -1.687577   -1.304845
 C   -1.180001   -1.520585    2.423039
 C    5.066263    3.452021   -0.385960
 C    3.893479   -4.415166   -2.072096
 C   -1.391761    4.194462    0.241717
 C    1.068230   -0.660891    1.906761
 C   -0.734138   -0.586366    0.166189
 N   -2.325902    3.095768    0.048395
 N   -0.395907   -0.545133    1.631189
 O    3.548568   -0.012609   -0.119489
 O   -1.385525    1.876917    1.687294
 O    2.039664   -0.545958   -1.701360
 O   -6.310980   -0.414679   -0.677856
 O   -5.202250   -2.377308   -1.159501
 O    3.982802    2.676262   -0.872613
 O    3.397108   -3.205267   -1.542134
 H    2.044679   -5.208755    2.333701
 H    1.165565   -3.057781    3.174986
 H   -0.418648    2.453376   -1.672803
 H    0.878079    5.152606    1.395149
 H    3.078111   -5.355507    0.101150
 H    1.920667    1.820735   -2.102869
 H    3.218093    4.566196    0.940684
 H   -4.819632    1.781871    0.238235
 H   -2.434637   -2.490595   -0.797798
 H   -6.660586   -1.550056   -2.372916
 H   -7.233484   -2.256198   -0.812181
 H   -0.854318   -1.503128    3.468054
 H   -1.063584   -2.534826    2.025570
 H   -2.234083   -1.242543    2.389178
 H    4.970334    4.500588   -0.691121
 H    5.125437    3.393243    0.707000
 H    5.970261    3.026396   -0.823169
 H    4.692909   -4.829770   -1.444216
 H    3.096748   -5.162522   -2.180355
 H    4.296116   -4.170469   -3.055649
 H   -1.751909    5.027531   -0.372280
 H   -1.439143    4.515210    1.287393
 H    1.193588   -0.593595    2.992251
 H    1.550034    0.216318    1.471074
 H   -0.374041   -1.526907   -0.258896
 H   -0.184977    0.232903   -0.312259
 H   -2.932966    3.107725   -0.755465
 H   -0.695836    0.414184    1.923095
 H    3.681075    0.775648   -0.687960
