65 
4cjr_ligand_dft.xyz
 C    2.359408   -4.294491    1.332390
 C    1.677035   -3.222236    1.888525
 C    0.547234    3.669695   -1.204609
 C    1.054756    3.527308    1.134898
 C    3.057183   -4.150787    0.139378
 C    1.856090    3.348388   -1.517367
 C    2.380378    3.211824    0.839375
 C   -4.327658    0.897311   -0.107841
 C   -3.251047   -1.696711   -0.501910
 C   -2.973016    0.626701    0.168634
 C    2.422277   -1.807763    0.076527
 C    0.125188    3.752719    0.125988
 C    1.674307   -1.978471    1.248105
 C   -2.434265   -0.656996   -0.021817
 C   -5.099790   -0.141047   -0.571941
 C   -4.571032   -1.413223   -0.765735
 C    2.770380    3.106882   -0.492267
 C    3.103918   -2.904335   -0.487214
 C   -2.122623    1.735818    0.709286
 C    2.551493   -0.461758   -0.576915
 C   -6.727299   -1.463234   -1.326613
 C   -1.279827   -1.976613    2.438312
 C    5.084279    2.836678    0.049749
 C    4.501727   -3.698077   -2.240278
 C   -1.324809    4.033722    0.453595
 C    0.900593   -0.840680    1.871463
 C   -0.970925   -0.951580    0.198706
 N   -2.202264    2.919870    0.083401
 N   -0.593996   -0.919383    1.657776
 O    3.807851   -0.045637   -0.635340
 O   -1.386690    1.584745    1.698175
 O    1.607785    0.198848   -0.962576
 O   -6.413393   -0.137587   -0.893889
 O   -5.534992   -2.245489   -1.218296
 O    4.022984    2.714417   -0.890805
 O    3.744913   -2.659527   -1.642133
 H    2.355397   -5.256924    1.833534
 H    1.170857   -3.344423    2.841001
 H   -0.158995    3.854595   -2.010764
 H    0.741816    3.583927    2.173380
 H    3.573281   -5.003707   -0.284008
 H    2.188230    3.267464   -2.546487
 H    3.083774    3.041472    1.646766
 H   -4.757516    1.877495    0.066259
 H   -2.853097   -2.690824   -0.674678
 H   -7.051426   -1.437936   -2.370259
 H   -7.497809   -1.884407   -0.676303
 H   -0.995140   -1.887994    3.487700
 H   -0.997392   -2.956108    2.051047
 H   -2.355955   -1.834778    2.336663
 H    5.099784    3.840627    0.485027
 H    4.999846    2.085480    0.843528
 H    6.002573    2.663773   -0.511069
 H    5.286870   -4.053660   -1.563764
 H    3.859735   -4.534598   -2.539525
 H    4.957104   -3.256416   -3.125515
 H   -1.690997    4.912880   -0.082888
 H   -1.447968    4.220363    1.523079
 H    1.042365   -0.825374    2.955262
 H    1.190473    0.133785    1.474540
 H   -0.709384   -1.942548   -0.178794
 H   -0.317980   -0.233225   -0.301233
 H   -2.702069    2.964410   -0.792240
 H   -0.956728    0.018308    1.965307
 H    3.822777    0.862502   -1.017431
