55 
4ck3_ligand_ani.xyz
 C    4.891609   -1.273879   -1.547047
 C    4.660754   -0.356161   -0.345650
 C    5.967429   -0.131825    0.417397
 C    3.586926   -0.902673    0.606775
 C    2.213868   -1.218685   -0.003913
 C    1.251076   -1.699978    1.104380
 C   -0.157737   -1.974539    0.608060
 C   -1.244060   -1.077136    0.792535
 C   -2.440666   -1.404076    0.168085
 C   -2.602469   -2.560650   -0.575517
 C   -1.574988   -3.452768   -0.756282
 C   -0.353746   -3.130225   -0.152774
 O   -3.872910   -2.611220   -1.083160
 C   -4.566153   -1.537014   -0.461925
 O   -3.605274   -0.684589    0.153722
 C   -1.207674    0.200280    1.578114
 O   -0.482012    0.141918    2.705348
 O   -1.785717    1.222882    1.263269
 C    1.627968   -0.069373   -0.824979
 N    1.318499    1.100812   -0.019622
 C    0.633821    2.131689   -0.565301
 O    0.201261    2.058320   -1.715441
 C    0.449550    3.370833    0.303257
 C   -0.529795    4.383131   -0.294355
 C   -2.014872    4.014689   -0.180774
 N   -2.353798    2.773857   -0.941163
 H    5.213176   -2.270870   -1.217333
 H    5.675291   -0.871745   -2.198867
 H    3.988545   -1.398126   -2.153749
 H    4.326311    0.623204   -0.719823
 H    6.736828    0.295980   -0.234939
 H    5.826678    0.548963    1.264663
 H    6.352291   -1.081735    0.809306
 H    3.456535   -0.185887    1.432864
 H    3.973403   -1.821346    1.075528
 H    2.342244   -2.052996   -0.710140
 H    1.652254   -2.636542    1.514029
 H    1.232390   -0.979946    1.920822
 H   -1.704901   -4.355375   -1.344109
 H    0.484862   -3.809537   -0.288230
 H   -5.112973   -0.973614   -1.221654
 H   -5.246175   -1.933422    0.304634
 H   -0.548659    1.018500    3.120501
 H    2.309265    0.217370   -1.635866
 H    0.706127   -0.395737   -1.317564
 H    1.631470    1.142486    0.939131
 H    1.435178    3.844490    0.417021
 H    0.133470    3.071948    1.309960
 H   -0.286188    4.534649   -1.353027
 H   -0.388145    5.346890    0.205949
 H   -2.286180    3.865647    0.867431
 H   -2.616342    4.841249   -0.563855
 H   -3.283415    2.818023   -1.386868
 H   -1.613989    2.599662   -1.648725
 H   -2.330063    1.986812   -0.272016
