102 
4cku_ligand_ani.xyz
 O    0.577188   -2.987023   -1.004741
 C    0.437455   -1.848579   -1.480219
 C   -0.775861   -1.019109   -1.195473
 C   -2.028676   -1.624236   -1.198234
 C   -0.653276    0.343256   -0.909760
 C   -1.791364    1.109504   -0.666830
 N   -1.728025    2.505772   -0.399089
 C   -2.362633    2.997069    0.830757
 C   -2.885780    4.417667    0.644057
 C   -1.767947    5.399354    0.278991
 C   -1.053385    4.983963   -1.006630
 S   -0.349910    3.353746   -0.841432
 O    0.096440    2.913080   -2.152190
 O    0.579757    3.374950    0.284925
 C   -3.049362    0.494588   -0.672042
 C   -3.168919   -0.874762   -0.909099
 C   -4.497165   -1.590658   -0.914188
 N   -5.312567   -1.467202    0.182231
 C   -4.898046   -0.993040    1.497419
 C   -4.400409   -2.092282    2.440773
 C   -3.068568   -2.714221    2.023703
 C   -6.622677   -2.108110    0.073513
 C   -7.613772   -1.313848   -0.776458
 C   -7.942713    0.063482   -0.208843
 O   -4.815891   -2.295756   -1.864410
 N    1.340553   -1.262177   -2.293240
 C    2.588926   -1.813337   -2.829624
 C    3.411284   -0.637192   -3.404876
 C    3.909168    0.354382   -2.371722
 C    5.198119    0.239806   -1.837735
 C    5.614582    1.041243   -0.778227
 C    4.747782    1.988108   -0.240329
 C    3.482296    2.151157   -0.796288
 C    3.074577    1.355505   -1.862084
 C    3.407718   -2.679779   -1.829122
 O    2.986217   -4.035629   -1.815926
 C    3.488974   -2.118464   -0.393162
 N    2.805903   -3.044518    0.528098
 C    2.898478   -2.724925    1.997959
 C    2.102136   -3.795152    2.749383
 C    4.360837   -2.809369    2.447578
 C    2.305501   -1.321698    2.238002
 C    0.924471   -1.117344    2.122972
 C    0.387489    0.159624    2.220607
 C    1.196336    1.271240    2.438146
 C    2.567088    1.074638    2.577095
 C    3.108380   -0.210527    2.482976
 O    3.462973    2.076390    2.800318
 C    2.950058    3.394025    2.843754
 H   -2.123632   -2.680839   -1.434129
 H    0.330886    0.796403   -0.809461
 H   -1.655888    2.944506    1.671333
 H   -3.185752    2.317369    1.050944
 H   -3.644140    4.408489   -0.149269
 H   -3.386387    4.738668    1.565228
 H   -1.032854    5.459951    1.091624
 H   -2.179521    6.403467    0.133725
 H   -1.733412    4.936393   -1.864855
 H   -0.220068    5.649459   -1.255651
 H   -3.936466    1.106241   -0.530752
 H   -5.760342   -0.487139    1.951225
 H   -4.116901   -0.241119    1.373614
 H   -5.168488   -2.871855    2.529526
 H   -4.295322   -1.647437    3.439378
 H   -3.141580   -3.239891    1.064144
 H   -2.288093   -1.947634    1.917267
 H   -2.728423   -3.437038    2.772922
 H   -6.483285   -3.103625   -0.360489
 H   -7.016755   -2.231043    1.089608
 H   -7.210014   -1.226024   -1.791536
 H   -8.532685   -1.909851   -0.856363
 H   -7.046586    0.689927   -0.134715
 H   -8.384870   -0.011680    0.792977
 H   -8.661200    0.584503   -0.849857
 H    1.100023   -0.339303   -2.626001
 H    2.347368   -2.493972   -3.659957
 H    2.790775   -0.128522   -4.154678
 H    4.262939   -1.051938   -3.956825
 H    5.876490   -0.513097   -2.239529
 H    6.618246    0.921568   -0.377010
 H    5.064069    2.599247    0.600547
 H    2.788634    2.893630   -0.404584
 H    2.091269    1.528355   -2.298166
 H    4.428104   -2.721804   -2.236834
 H    2.014451   -4.025553   -1.767222
 H    4.541140   -2.017240   -0.115773
 H    3.057076   -1.121142   -0.325848
 H    3.174192   -3.988073    0.298226
 H    1.802025   -3.077173    0.251243
 H    2.534408   -4.782558    2.550568
 H    1.053628   -3.820465    2.438426
 H    2.131038   -3.616558    3.828880
 H    4.742218   -3.824223    2.289128
 H    4.443399   -2.576529    3.513892
 H    5.003514   -2.117236    1.896645
 H    0.254541   -1.955389    1.945417
 H   -0.684808    0.298885    2.079313
 H    0.766906    2.266069    2.467491
 H    4.182135   -0.299477    2.601954
 H    3.809099    4.052389    2.983351
 H    2.425386    3.649192    1.912834
 H    2.260967    3.517686    3.690740
