62 
4clb_ligand_ani.xyz
 C   -9.117090    0.857712    0.301440
 N   -7.725438    0.422030    0.254686
 C   -6.727731    1.485667   -0.115083
 C   -5.347945    0.881315   -0.132163
 C   -4.870889    0.222323   -1.267360
 C   -3.616511   -0.371262   -1.270635
 C   -2.793961   -0.319021   -0.140498
 C   -3.274015    0.343029    0.994356
 C   -4.533822    0.924708    1.000872
 C   -1.448114   -0.940560   -0.136585
 C   -1.215450   -2.186241   -0.730504
 C    0.027682   -2.785705   -0.682686
 C    1.104833   -2.143077   -0.050317
 N    2.390823   -2.736609   -0.006453
 C    3.540516   -1.819025    0.039261
 C    3.790917   -1.170399   -1.321864
 C    3.317117   -0.833424    1.182894
 C    2.049875   -0.001322    1.000012
 N    2.227013    1.162368    0.138186
 C    2.973634    2.226345    0.552577
 O    3.424266    2.381176    1.671290
 O    3.131173    3.094530   -0.468522
 C    3.885819    4.289223   -0.165587
 C    5.371048    3.970590   -0.183284
 C    3.486052    5.310822   -1.212809
 C    0.912232   -0.853940    0.475402
 C   -0.360525   -0.299899    0.453160
 C    2.526004   -4.116052    0.060330
 C    3.921457   -4.681818   -0.118126
 O    1.576914   -4.851668    0.262545
 H   -9.255596    1.656213    1.036140
 H   -9.767727    0.025983    0.566410
 H   -9.437822    1.256826   -0.665504
 H   -7.615883   -0.341576   -0.448416
 H   -7.435135    0.059607    1.189669
 H   -6.986760    1.889502   -1.096246
 H   -6.787308    2.298682    0.611269
 H   -5.488149    0.169144   -2.162020
 H   -3.259148   -0.869486   -2.168971
 H   -2.654542    0.380261    1.887672
 H   -4.886840    1.430181    1.897057
 H   -2.035557   -2.720344   -1.205505
 H    0.163846   -3.756146   -1.139416
 H    4.416312   -2.408871    0.312822
 H    4.168801   -1.914571   -2.031641
 H    2.864654   -0.765091   -1.740149
 H    4.524919   -0.361094   -1.239431
 H    4.175814   -0.163943    1.298824
 H    3.219482   -1.411723    2.108833
 H    1.773725    0.408056    1.977646
 H    2.120375    1.062862   -0.859959
 H    3.590769    4.624522    0.833329
 H    5.616675    3.258497    0.608065
 H    5.949386    4.885737   -0.019333
 H    5.656207    3.540991   -1.149725
 H    3.980556    6.268162   -1.020221
 H    2.404455    5.469889   -1.200573
 H    3.777630    4.965055   -2.210197
 H   -0.494724    0.696395    0.870882
 H    3.825371   -5.758271   -0.254905
 H    4.532923   -4.496051    0.771891
 H    4.430904   -4.246169   -0.982539
