49 
4cmo_ligand_ani.xyz
 C    0.273046    2.103049    0.414517
 C   -0.341757    3.377482    0.163613
 N   -1.569846    3.453130   -0.304945
 C   -2.220040    2.291887   -0.520373
 C   -1.625858    1.059369   -0.283424
 N   -0.357271    0.981512    0.192864
 N    0.349265    4.521376    0.466584
 O    1.537238    2.135334    0.876649
 C    2.108522    0.897781    1.351746
 C    2.454796   -0.012080    0.181736
 C    2.365142   -1.413965    0.222958
 C    2.954318   -2.171923   -0.792594
 C    3.532059   -1.570891   -1.901629
 C    3.528833   -0.187782   -1.963599
 C    3.012189    0.594420   -0.945028
 F    4.066268    0.417640   -3.035797
 C   -2.262989   -0.240427   -0.587637
 C   -3.641339   -0.505699   -0.433494
 N   -4.194877   -1.678747   -0.676310
 C   -3.412017   -2.673528   -1.105542
 C   -2.051026   -2.537416   -1.301734
 C   -1.477121   -1.299849   -1.025814
 O   -4.427165    0.495600    0.002691
 C   -5.806153    0.199396    0.212247
 C    1.665582   -2.217249    1.298349
 N    0.483566   -1.717139    1.757952
 O    2.116737   -3.286818    1.678287
 C   -0.390069   -2.536963    2.570507
 C    3.353244    1.265650    2.140310
 H   -3.230165    2.357727   -0.901997
 H    1.351290    4.427631    0.543330
 H   -0.003586    5.365265    0.039115
 H    1.383742    0.425241    2.013749
 H    2.932781   -3.252959   -0.695704
 H    3.971470   -2.148631   -2.708400
 H    3.052127    1.675638   -1.022264
 H   -3.908145   -3.621020   -1.300959
 H   -1.447383   -3.370464   -1.651587
 H   -0.408332   -1.140479   -1.157325
 H   -6.275428   -0.127144   -0.719527
 H   -5.924763   -0.588543    0.961234
 H   -6.249460    1.132497    0.561892
 H    0.080780   -0.912558    1.286454
 H   -0.960139   -3.261271    1.973251
 H   -1.085591   -1.883639    3.104063
 H    0.212724   -3.091198    3.293834
 H    3.108208    1.968575    2.942123
 H    3.788025    0.366570    2.588112
 H    4.108928    1.718582    1.488051
