51 
4cmu_ligand_ani.xyz
 C    1.739658   -2.456488   -1.137004
 C    2.691772   -2.080150   -2.077030
 C   -0.186521    1.170557    0.571230
 C    3.315054   -0.224382   -0.643919
 C   -1.222030    2.901883   -0.694427
 C   -1.295463    1.628511   -0.142829
 C   -2.456084    0.748183   -0.294015
 C    1.566045   -1.730872    0.042694
 C    2.380517   -0.622757    0.309914
 C    0.947099    1.946342    0.645946
 C    3.456927   -0.955999   -1.811608
 C   -2.437365   -0.639274   -0.429434
 C   -3.834349    1.088136   -0.264259
 C    0.922932    3.233718    0.043505
 C    0.510174   -2.169227    1.033430
 C   -1.291322   -1.606688   -0.637243
 C    2.266062    0.196826    1.588312
 C   -4.482254    2.434739   -0.117934
 C    3.502671    0.060276    2.457393
 C   -4.298708   -2.352917   -0.598758
 C   -1.756822   -2.905002    1.441935
 N   -0.143083    3.688963   -0.602634
 N   -4.589863    0.007572   -0.365508
 N   -3.734703   -1.024450   -0.476765
 N   -0.787736   -2.246977    0.580550
 N    2.054826    4.012995    0.092542
 O    0.797620   -2.408790    2.198878
 O    2.107185    1.589309    1.276798
 F    4.370768   -0.564392   -2.715228
 H    1.099659   -3.313982   -1.321330
 H    2.834866   -2.625408   -3.002091
 H   -0.259813    0.221467    1.090523
 H    3.921913    0.663825   -0.495309
 H   -2.058288    3.311497   -1.258425
 H   -1.583799   -2.382866   -1.362057
 H   -0.467971   -1.057320   -1.095669
 H    1.405595   -0.134894    2.169679
 H   -5.522374    2.301147    0.189421
 H   -3.966466    3.051332    0.626116
 H   -4.486244    2.989628   -1.065755
 H    4.414464    0.320160    1.908962
 H    3.588013   -0.978809    2.795672
 H    3.423903    0.704797    3.337898
 H   -5.227432   -2.260352   -1.162128
 H   -4.525124   -2.779388    0.382996
 H   -3.617039   -3.013718   -1.137470
 H   -1.230964   -3.277210    2.321026
 H   -2.533917   -2.202264    1.762187
 H   -2.234184   -3.744798    0.921407
 H    1.908301    4.991194   -0.107523
 H    2.717497    3.792139    0.820829
