118 
4cp7_ligand_xtb.xyz
 C    1.011772    7.784818   -1.616086
 C    2.378084    7.112596   -1.631118
 C    2.293225    5.627773   -2.013605
 C    1.529764    4.842746   -0.990021
 C    2.133386    4.467435    0.204359
 C    1.433238    3.765434    1.166341
 C    0.195495    4.512446   -1.184126
 C   -0.509790    3.813457   -0.221150
 C    0.103063    3.421573    0.963975
 C   -0.643335    2.568353    1.957247
 C    0.948348    0.719128    1.405212
 O    1.440846    0.438322    0.326225
 N    1.660981    0.795758    2.540197
 C    2.978253    0.204200    2.615191
 C    3.719942    0.639795    3.891481
 C    3.912696    2.154147    3.922925
 C    3.007830    0.156216    5.155437
 C    2.811567   -1.329982    2.549717
 O    1.702368   -1.836942    2.556215
 N    3.952297   -2.021126    2.504248
 C    4.014780   -3.469108    2.518974
 C    4.488098   -4.054198    1.188257
 C    5.894183   -3.599433    0.812292
 O   -1.164792    0.950863    0.254699
 C   -1.260565    0.138485    2.519294
 C   -1.935004   -1.090253    1.895510
 C   -1.008967   -2.002644    1.084108
 N   -0.949616   -1.595400   -0.338903
 N    0.332893   -1.713033   -0.913516
 C    0.694263   -0.777397   -1.831743
 C   -0.545456    1.082811    1.527603
 O   -0.093503    0.065833   -2.199673
 C    2.133372   -0.980436   -2.314637
 C    2.686079    0.163351   -3.198850
 C    1.944600    0.251179   -4.535181
 C    2.536640    1.493706   -2.454769
 C    4.175892   -0.101234   -3.444134
 N    2.241717   -2.261129   -2.993082
 C    2.396357   -3.436609   -2.360153
 O    2.224055   -3.598053   -1.162699
 O    2.726093   -4.415022   -3.208949
 C    2.891481   -5.710141   -2.640861
 C   -1.966410   -2.260245   -1.201477
 C   -3.367152   -1.842488   -0.855939
 C   -3.793382   -0.554529   -1.169879
 C   -5.077168   -0.152036   -0.861516
 C   -4.248760   -2.718819   -0.237150
 C   -5.534246   -2.314732    0.070372
 C   -5.965180   -1.026408   -0.236081
 C   -7.334679   -0.600461    0.086132
 C   -7.935546   -0.953733    1.293267
 C   -9.229177   -0.525512    1.543319
 N   -9.932591    0.200871    0.693378
 C   -9.368392    0.535399   -0.453272
 C   -8.079904    0.168061   -0.806368
 H    1.112066    8.837174   -1.362961
 H    0.539140    7.712700   -2.593219
 H    0.360432    7.315959   -0.881642
 H    2.837955    7.203163   -0.644818
 H    3.023588    7.621315   -2.349559
 H    3.306711    5.228775   -2.095651
 H    1.808678    5.537669   -2.987253
 H    3.167126    4.727009    0.380973
 H    1.924930    3.487895    2.086363
 H   -0.299759    4.804512   -2.098243
 H   -1.553549    3.584667   -0.386968
 H   -0.237737    2.695903    2.960700
 H   -1.700229    2.842436    1.969028
 H    1.181068    0.908911    3.418769
 H    3.530382    0.529864    1.725297
 H    4.710148    0.173432    3.862420
 H    4.522670    2.431890    4.778289
 H    2.957613    2.666079    4.011331
 H    4.409959    2.500647    3.020110
 H    2.771319   -0.903451    5.090674
 H    3.648961    0.310268    6.019172
 H    2.086260    0.707583    5.331892
 H    4.831104   -1.531862    2.448040
 H    3.007533   -3.824799    2.743262
 H    4.690890   -3.775458    3.323358
 H    3.780658   -3.776517    0.406604
 H    4.473389   -5.140924    1.283952
 H    6.596183   -3.817408    1.614533
 H    5.922226   -2.531691    0.604437
 H    6.231206   -4.119665   -0.080533
 H   -0.629899    1.436810   -0.397493
 H   -2.035926    0.703029    3.039836
 H   -0.543718   -0.213110    3.261128
 H   -2.340505   -1.676131    2.720939
 H   -2.775547   -0.768972    1.282306
 H    0.001414   -1.967548    1.502369
 H   -1.360177   -3.034424    1.131656
 H   -1.132665   -0.525161   -0.322495
 H    0.973271   -2.469322   -0.643093
 H    2.734548   -1.029030   -1.396817
 H    2.286753    1.128436   -5.077626
 H    2.126673   -0.615556   -5.167722
 H    0.875940    0.349524   -4.370281
 H    3.113288    2.264468   -2.958551
 H    2.886054    1.408900   -1.429894
 H    1.498181    1.806627   -2.430017
 H    4.724492   -0.092440   -2.504997
 H    4.343381   -1.060059   -3.929172
 H    4.586276    0.674631   -4.084569
 H    2.371592   -2.251280   -3.992870
 H    3.123398   -6.370863   -3.471160
 H    3.707578   -5.705882   -1.916303
 H    1.974673   -6.029121   -2.142186
 H   -1.743763   -1.960433   -2.229040
 H   -1.839697   -3.341844   -1.110012
 H   -3.114895    0.129626   -1.657676
 H   -5.394970    0.852143   -1.096422
 H   -3.935694   -3.725870   -0.003661
 H   -6.217505   -3.010831    0.531887
 H   -7.397998   -1.532432    2.028965
 H   -9.728855   -0.776097    2.469526
 H   -9.980774    1.126840   -1.120665
 H   -7.671927    0.451440   -1.764414
