114 
4cpq_ligand_xtb.xyz
 C   -6.296115    5.091224   -1.898784
 C   -6.053544    4.255760   -0.907520
 C   -7.003270    3.188557   -0.446780
 C   -6.379828    1.828359   -0.595848
 C   -6.025029    1.363534   -1.856753
 C   -5.452873    0.115606   -2.015787
 C   -6.142788    1.010744    0.500651
 C   -5.569599   -0.238412    0.343797
 C   -5.214611   -0.703472   -0.915792
 C   -4.558629   -2.046175   -1.096080
 C   -2.506297   -1.193720    0.124252
 O   -1.765537   -0.213698    0.004054
 N   -2.841092   -1.684573    1.309968
 C   -2.347712   -1.088146    2.534717
 C   -2.471491   -2.060860    3.725106
 C   -1.834383   -3.416674    3.426454
 C   -3.933822   -2.218897    4.138768
 C   -0.886397   -0.673410    2.321071
 O   -0.065923   -1.420290    1.799287
 N   -0.573202    0.532772    2.791264
 C    0.760946    1.095845    2.669075
 C    0.782851    2.520845    3.122263
 C    1.739562    3.049424    3.861440
 O   -2.610476   -1.155270   -2.249544
 C   -2.351295   -3.297082   -1.240157
 C   -0.836064   -3.292407   -1.025753
 C   -0.077820   -2.454923   -2.054613
 N    0.297917   -1.117101   -1.522325
 N    1.342326   -1.219079   -0.563211
 C    2.582157   -1.668000   -0.923399
 C   -3.016750   -1.912985   -1.128784
 O    2.939549   -1.741427   -2.075414
 C    3.484413   -2.030970    0.262468
 C    4.610808   -0.994148    0.504408
 C    3.960804    0.369536    0.750252
 C    5.552579   -0.900819   -0.696477
 C    5.395140   -1.396971    1.756922
 N    4.025605   -3.344988   -0.014309
 C    3.245241   -4.308762   -0.545382
 O    2.050023   -4.192999   -0.717946
 O    3.957918   -5.408719   -0.827399
 C    3.226963   -6.497323   -1.375732
 C    0.622198   -0.162483   -2.621558
 C    1.282450    1.078381   -2.086347
 C    0.680290    1.832725   -1.083802
 C    1.321400    2.942852   -0.568808
 C    2.519383    1.472731   -2.580154
 C    3.151746    2.594273   -2.077378
 C    2.568399    3.335327   -1.052616
 C    3.935088    5.424208   -1.253474
 C    3.262204    4.488293   -0.469844
 C    3.287736    4.678420    0.913014
 N    3.890519    5.690785    1.503024
 C    4.513898    6.578832    0.747296
 C    4.572202    6.485965   -0.636340
 H   -7.223961    5.067636   -2.446571
 H   -5.586285    5.843150   -2.198005
 H   -5.115046    4.297773   -0.369283
 H   -7.262745    3.360310    0.600816
 H   -7.919098    3.236946   -1.039944
 H   -6.209742    1.984282   -2.720680
 H   -5.220476   -0.239059   -3.010798
 H   -6.422681    1.346485    1.488904
 H   -5.421540   -0.864086    1.212600
 H   -4.865258   -2.486299   -2.047108
 H   -4.858498   -2.725652   -0.297551
 H   -3.420720   -2.504437    1.385792
 H   -2.938615   -0.185842    2.747108
 H   -1.928709   -1.599419    4.557291
 H   -2.435110   -3.996222    2.728668
 H   -0.840432   -3.291942    3.005638
 H   -1.748412   -3.990492    4.344802
 H   -4.528336   -2.667291    3.345007
 H   -4.373139   -1.257961    4.396801
 H   -4.000735   -2.866207    5.008643
 H   -1.277686    1.119894    3.209335
 H    1.056596    1.038721    1.612457
 H    1.462978    0.492678    3.254905
 H   -0.044916    3.124968    2.773844
 H    2.575750    2.466099    4.209575
 H    1.735338    4.088272    4.139685
 H   -3.116750   -0.330787   -2.258920
 H   -2.573293   -3.679279   -2.237749
 H   -2.806798   -3.971752   -0.514990
 H   -0.477358   -4.318157   -1.096182
 H   -0.591310   -2.953642   -0.018096
 H    0.850783   -2.955738   -2.329362
 H   -0.690719   -2.302502   -2.941914
 H   -0.531993   -0.707457   -1.007983
 H    1.009864   -1.331397    0.399598
 H    2.862434   -2.091198    1.166355
 H    4.725750    1.114986    0.951496
 H    3.297751    0.326433    1.609409
 H    3.393472    0.693673   -0.117166
 H    6.131056   -1.811913   -0.826370
 H    4.995750   -0.718433   -1.610721
 H    6.251363   -0.081620   -0.548574
 H    5.882605   -2.360677    1.637741
 H    4.737797   -1.453930    2.621423
 H    6.163745   -0.655988    1.960403
 H    5.022350   -3.481587   -0.029748
 H    3.942200   -7.306018   -1.497241
 H    2.422640   -6.795950   -0.700799
 H    2.798843   -6.219699   -2.341044
 H   -0.323930    0.073366   -3.115494
 H    1.292384   -0.660564   -3.323681
 H   -0.291072    1.553370   -0.703204
 H    0.848473    3.528367    0.204721
 H    2.994582    0.891032   -3.355178
 H    4.119893    2.879466   -2.459371
 H    3.936945    5.329967   -2.330021
 H    2.812562    3.965671    1.576065
 H    4.985202    7.395506    1.276491
 H    5.096482    7.229825   -1.214978
