112 
4cpr_ligand_ani.xyz
 C   -0.517562    0.163299    1.982557
 N   -2.354892   -1.301849    1.204476
 O    0.390520   -0.664102    1.982662
 C   -2.006391   -0.214036    2.106751
 C   -2.364845   -0.592200    3.563373
 C    1.729247    3.933794    3.422454
 C   -9.654825    2.491443    0.485128
 C    2.950622   -6.809416   -0.199454
 C    5.795531   -0.964035   -0.194701
 C    5.410304   -1.642338    2.188750
 C    4.016245    0.155539    1.168472
 O    2.189012   -4.489097    0.703007
 S    2.185669    5.765228   -0.111742
 O    3.413127   -2.136230   -1.923510
 O   -1.530640   -0.304776   -0.643071
 O   -2.704705   -1.867762   -2.360988
 C    1.073921    3.477047    2.359988
 C   -9.060498    1.980450   -0.588332
 C    2.966580    1.174686   -2.396287
 C    1.600660    0.886555   -2.350967
 C    3.449198    2.417766   -2.014347
 C    1.095915   -0.459265   -2.789289
 C   -6.240061    0.390827   -2.056618
 C   -6.467574    0.372391    0.326369
 C   -5.446639   -0.747729   -1.997739
 C   -5.676214   -0.768743    0.388801
 C    3.098693    4.733858   -1.164409
 C    4.274718    5.331770   -1.521109
 C    2.578848    3.416529   -1.567464
 C    1.078650    2.038040    1.929874
 C   -0.451553   -3.477986   -0.797232
 C   -7.616336    2.220028   -0.960276
 C    0.204391   -2.716113   -1.955588
 C   -1.978749   -3.625365   -0.880330
 C    3.404702    6.978875   -0.139441
 C   -4.280867   -2.580984   -0.706399
 N   -0.272736    1.494973    1.925664
 N    4.257435   -3.560424    0.302698
 N    1.712306   -1.359280   -0.599033
 O    3.866213   -5.715444   -0.180481
 C    3.334641   -4.579590    0.307187
 C    2.944431   -1.892657   -0.820479
 C   -2.195243   -1.220034   -0.125100
 C   -6.759333    0.971519   -0.898396
 C    4.451262    6.618693   -0.931427
 C   -5.152295   -1.345301   -0.770726
 C    0.730112    1.879735   -1.891543
 C    1.209013    3.123894   -1.510790
 C    3.690400   -2.234864    0.475061
 N    0.675803   -1.313071   -1.587216
 C    4.736911   -1.169255    0.894828
 C   -2.790478   -2.324274   -1.019472
 C   -1.560641   -1.783075    4.090207
 C   -2.218234    0.610967    4.493045
 H   -2.867128   -2.077666    1.597007
 H   -2.594512    0.669856    1.825110
 H   -3.428751   -0.874680    3.537356
 H    2.322880    3.264999    4.044339
 H    1.693328    4.975604    3.732073
 H  -10.698455    2.289045    0.711242
 H   -9.121073    3.139282    1.179071
 H    3.480791   -7.630158   -0.680448
 H    2.052846   -6.543589   -0.764288
 H    2.657036   -7.081889    0.816799
 H    6.500430   -0.182815    0.112186
 H    5.334953   -0.656303   -1.139257
 H    6.373133   -1.877522   -0.378632
 H    4.672972   -1.762731    2.992299
 H    6.150873   -0.906638    2.522350
 H    5.914995   -2.601202    2.041836
 H    4.703554    0.872931    1.629060
 H    3.628013    0.615852    0.253695
 H    3.173704    0.009400    1.858120
 H   -2.198850   -1.042892   -2.312943
 H    0.486557    4.166220    1.748355
 H   -9.627105    1.330969   -1.257468
 H    3.654968    0.394997   -2.713534
 H    4.519256    2.603636   -2.038470
 H    1.867285   -0.992206   -3.343105
 H    0.205859   -0.358681   -3.416679
 H   -6.461270    0.843036   -3.022101
 H   -6.864375    0.807864    1.240278
 H   -5.034953   -1.169705   -2.911022
 H   -5.459807   -1.218361    1.356888
 H    4.980607    4.877766   -2.209297
 H    1.689301    1.443130    2.615905
 H    1.517277    1.932935    0.926230
 H   -0.180579   -3.041360    0.168656
 H   -0.026806   -4.488050   -0.783883
 H   -7.200174    2.984556   -0.291034
 H   -7.565981    2.632667   -1.975825
 H   -0.493044   -2.623975   -2.788202
 H    1.080724   -3.261410   -2.325829
 H   -2.238645   -4.240881   -1.750879
 H   -2.320987   -4.168607    0.010227
 H    3.278479    7.893058    0.425093
 H   -4.625661   -3.315351   -1.444047
 H   -4.370052   -3.058439    0.277218
 H   -1.040153    2.149161    1.900791
 H    4.896802   -3.645923   -0.479607
 H    1.403792   -1.159625    0.348397
 H    5.322162    7.245532   -1.092383
 H   -0.333428    1.670410   -1.815456
 H    0.514486    3.882879   -1.159247
 H    2.966822   -2.325570    1.293224
 H   -0.095504   -0.758568   -1.141775
 H   -1.896031   -2.046547    5.098969
 H   -1.669264   -2.671939    3.459066
 H   -0.495901   -1.536828    4.132406
 H   -1.166574    0.901562    4.597409
 H   -2.598317    0.374192    5.492668
 H   -2.774771    1.479109    4.122307
