112 
4cpr_ligand_xtb.xyz
 C   -0.713879   -0.511744    2.223456
 N   -2.507868   -1.868899    1.330111
 O    0.207051   -1.211489    1.817287
 C   -2.117132   -1.077623    2.482920
 C   -2.176796   -1.925731    3.768052
 C    1.412335    3.635532    3.332122
 C   -9.433170    2.192994    0.119008
 C    4.132318   -6.203518   -0.833733
 C    5.783449   -0.314454   -0.640890
 C    5.660356   -0.647906    1.840489
 C    4.036442    0.858975    0.706997
 O    2.689153   -4.002670   -0.386642
 S    1.481775    5.739555    0.337553
 O    3.323368   -1.595914   -1.963524
 O   -1.592114   -0.426232   -0.116919
 O   -2.256629   -1.690892   -2.265327
 C    0.542764    2.938680    2.626964
 C   -8.612378    1.906694   -0.872406
 C    2.487767    1.576044   -2.579917
 C    1.250824    1.051888   -2.224938
 C    2.874865    2.829484   -2.149012
 C    0.851940   -0.326916   -2.671734
 C   -5.909257    0.466018   -2.145707
 C   -6.066807    0.301241    0.229961
 C   -5.210376   -0.727749   -2.181313
 C   -5.365344   -0.888475    0.197043
 C    2.434263    4.900294   -0.857478
 C    3.528342    5.650132   -1.202971
 C    2.032958    3.597996   -1.340056
 C    0.688347    1.484795    2.312326
 C   -0.267823   -3.449342   -0.800266
 C   -7.152575    2.264247   -0.894650
 C    0.409477   -2.631805   -1.900238
 C   -1.765153   -3.667100   -1.032647
 C    2.571086    7.061607    0.343613
 C   -4.114054   -2.687646   -1.052180
 N   -0.567296    0.780670    2.511625
 N    4.546724   -2.869002    0.232581
 N    1.650768   -1.106931   -0.522712
 O    4.727994   -4.988966   -0.398044
 C    3.888386   -3.960628   -0.209887
 C    2.937475   -1.452153   -0.827153
 C   -2.211703   -1.471170    0.099031
 C   -6.340125    1.000965   -0.939427
 C    3.603055    6.878843   -0.520903
 C   -4.922032   -1.418495   -1.009240
 C    0.398178    1.817076   -1.434269
 C    0.785408    3.067341   -1.000312
 C    3.852185   -1.608865    0.393712
 N    0.619296   -1.215272   -1.495133
 C    4.845939   -0.431760    0.561149
 C   -2.598446   -2.373324   -1.077159
 C   -1.236139   -3.126690    3.713572
 C   -1.865614   -1.052057    4.981475
 H   -3.004537   -2.730285    1.492604
 H   -2.818714   -0.236680    2.579795
 H   -3.208186   -2.288610    3.860584
 H    2.296383    3.185312    3.751648
 H    1.280689    4.687712    3.509685
 H  -10.472007    1.913058    0.096008
 H   -9.105101    2.732908    0.992571
 H    4.943494   -6.921762   -0.913388
 H    3.649765   -6.064606   -1.803190
 H    3.389215   -6.544867   -0.110570
 H    6.391386    0.581168   -0.543064
 H    5.219734   -0.249566   -1.566552
 H    6.455285   -1.166004   -0.712204
 H    5.005636   -0.733033    2.704628
 H    6.325164    0.197512    1.997452
 H    6.269227   -1.546178    1.786667
 H    4.706191    1.702703    0.850590
 H    3.438640    1.050174   -0.179667
 H    3.377822    0.800476    1.568576
 H   -2.851680   -0.934215   -2.363555
 H   -0.332780    3.414691    2.206668
 H   -8.962731    1.362875   -1.739550
 H    3.156681    0.991967   -3.193763
 H    3.843891    3.207656   -2.430571
 H    1.640576   -0.766060   -3.284199
 H   -0.086453   -0.304607   -3.231043
 H   -6.128308    0.981787   -3.069128
 H   -6.418984    0.689903    1.174230
 H   -4.916054   -1.141173   -3.136510
 H   -5.184083   -1.422305    1.119356
 H    4.255539    5.345710   -1.933200
 H    1.457911    1.027721    2.943286
 H    0.987790    1.365383    1.262121
 H   -0.094200   -2.981325    0.169984
 H    0.216836   -4.423598   -0.757545
 H   -6.903591    2.844134   -0.004401
 H   -6.944273    2.869553   -1.780168
 H   -0.199357   -2.636387   -2.803123
 H    1.393764   -3.046379   -2.118574
 H   -1.912378   -4.175566   -1.986701
 H   -2.152963   -4.314073   -0.245432
 H    2.378591    7.898195    0.985292
 H   -4.343576   -3.248011   -1.960687
 H   -4.351458   -3.319298   -0.195602
 H   -1.351927    1.329694    2.824859
 H    5.552630   -2.886084    0.215537
 H    1.313408   -1.153821    0.444402
 H    4.390024    7.596095   -0.667758
 H   -0.572100    1.435451   -1.154748
 H    0.115247    3.656119   -0.392698
 H    3.223630   -1.668892    1.292843
 H   -0.262401   -0.859113   -1.030892
 H   -1.324794   -3.701086    4.631611
 H   -1.469674   -3.784045    2.879208
 H   -0.204648   -2.802952    3.608613
 H   -0.840756   -0.690668    4.943219
 H   -1.986838   -1.630795    5.892814
 H   -2.537079   -0.197627    5.032403
