112 
4cpr_ligand_dft.xyz
 C   -0.772040   -0.525990    2.269304
 N   -2.297189   -2.105999    1.192287
 O    0.300678   -0.955408    1.840607
 C   -1.989188   -1.443697    2.451973
 C   -1.778779   -2.491950    3.567264
 C   -0.723549    4.231747    2.451382
 C   -8.085171    3.411151    1.047356
 C    4.121520   -6.204330   -0.473508
 C    5.321969    0.043092   -0.185154
 C    5.004044   -0.627414    2.219183
 C    3.311787    0.819573    1.097518
 O    2.508060   -4.136991   -0.006627
 S    2.451716    5.264800    0.794198
 O    3.227903   -1.635338   -1.932398
 O   -1.708484   -0.396613   -0.165500
 O   -2.288921   -1.574106   -2.389558
 C   -0.833436    3.036869    1.878919
 C   -8.086376    2.536185    0.045906
 C    2.660733    1.472924   -2.695068
 C    1.350729    1.081577   -2.423838
 C    3.169459    2.653799   -2.170385
 C    0.851361   -0.234811   -2.940024
 C   -5.954309    0.540264   -2.284014
 C   -5.983111    0.441144    0.109043
 C   -5.275033   -0.673916   -2.328328
 C   -5.306195   -0.770990    0.067596
 C    2.943291    4.696845   -0.774560
 C    3.895959    5.524105   -1.307171
 C    2.378935    3.472769   -1.357125
 C   -0.044751    1.828068    2.291122
 C   -0.282528   -3.518481   -1.247138
 C   -7.028560    2.457598   -1.020843
 C    0.391671   -2.623005   -2.284559
 C   -1.805566   -3.648259   -1.368574
 C    3.527526    6.607423    0.708513
 C   -4.131916   -2.622743   -1.199308
 N   -0.961375    0.747549    2.640532
 N    4.299022   -2.783514    0.399222
 N    1.404926   -1.097783   -0.698077
 O    4.634554   -4.919785   -0.123603
 C    3.714421   -3.968952    0.074837
 C    2.719321   -1.446086   -0.841107
 C   -2.176739   -1.529509   -0.014010
 C   -6.312709    1.120233   -1.066925
 C    4.228877    6.618804   -0.460008
 C   -4.936520   -1.346373   -1.151107
 C    0.547512    1.903510   -1.629497
 C    1.056154    3.082558   -1.103232
 C    3.472539   -1.601292    0.488942
 N    0.529266   -1.193330   -1.803013
 C    4.293078   -0.341966    0.887318
 C   -2.608544   -2.347130   -1.249118
 C   -0.665782   -3.500530    3.266323
 C   -1.546108   -1.793222    4.909025
 H   -2.678437   -3.039344    1.249514
 H   -2.854027   -0.826223    2.731779
 H   -2.731860   -3.037374    3.638131
 H   -0.036883    4.406754    3.276155
 H   -1.301684    5.083365    2.106922
 H   -8.879469    3.431754    1.787153
 H   -7.296674    4.153286    1.154790
 H    4.992189   -6.854230   -0.548402
 H    3.598223   -6.159561   -1.431954
 H    3.437644   -6.568571    0.296184
 H    5.857682    0.943430    0.133031
 H    4.844946    0.251940   -1.145961
 H    6.074053   -0.737419   -0.348267
 H    4.286053   -0.924016    2.991806
 H    5.519335    0.275098    2.563931
 H    5.749541   -1.423360    2.131488
 H    3.849918    1.713803    1.428341
 H    2.780302    1.079475    0.177118
 H    2.572588    0.558993    1.862155
 H   -2.778414   -0.739325   -2.314913
 H   -1.527524    2.881430    1.052657
 H   -8.892571    1.807416   -0.031851
 H    3.301013    0.830548   -3.292225
 H    4.204492    2.920881   -2.358030
 H    1.597165   -0.728521   -3.560092
 H   -0.091453   -0.153879   -3.488313
 H   -6.218131    1.037682   -3.213798
 H   -6.276686    0.865661    1.065192
 H   -5.027162   -1.117056   -3.290038
 H   -5.076335   -1.286087    0.997928
 H    4.328019    5.371439   -2.289800
 H    0.625699    2.057576    3.126425
 H    0.568160    1.470543    1.457550
 H    0.015878   -3.204106   -0.240269
 H    0.156384   -4.513709   -1.353407
 H   -6.291517    3.255999   -0.861913
 H   -7.483266    2.647172   -2.001363
 H   -0.174376   -2.572322   -3.215452
 H    1.410193   -2.948126   -2.489421
 H   -2.066848   -4.087646   -2.337949
 H   -2.153396   -4.357012   -0.607744
 H    3.580710    7.314341    1.525044
 H   -4.378686   -3.202380   -2.095042
 H   -4.365763   -3.255115   -0.334953
 H   -1.877787    1.022762    2.962196
 H    5.279764   -2.686954    0.183800
 H    0.946055   -1.039429    0.217493
 H    4.953194    7.382620   -0.715356
 H   -0.478286    1.617194   -1.406046
 H    0.420119    3.714346   -0.490168
 H    2.730360   -1.773070    1.276784
 H   -0.391987   -0.885541   -1.437697
 H   -0.642773   -4.262480    4.050796
 H   -0.811789   -4.013241    2.309639
 H    0.310038   -3.011549    3.226954
 H   -0.588049   -1.261801    4.916669
 H   -1.522320   -2.529888    5.716424
 H   -2.339730   -1.073073    5.137644
