108 
4cpt_ligand_dft.xyz
 C   -4.261700    1.435285   -2.373523
 C   -3.661182    0.178499   -2.396698
 C   -4.321208   -0.937581   -1.880741
 C   -3.655087   -2.293937   -1.812656
 C   -5.618923   -0.768120   -1.386696
 C   -6.224399    0.480179   -1.388744
 C   -5.543246    1.608047   -1.852143
 C   -6.186000    2.972794   -1.792397
 C   -6.168458    3.733206   -0.484954
 C   -5.754466    3.425037    0.748116
 C   -5.124994    2.146380    1.248455
 N   -3.719630    2.081186    0.826249
 C   -2.873424    1.049536    0.960588
 O   -1.863064    0.968008    0.242077
 C   -3.136601   -0.031406    2.030636
 C   -2.541776    0.328353    3.414064
 C   -3.304545    1.453170    4.114299
 C   -1.047255    0.648316    3.345443
 N   -2.546181   -1.260000    1.512527
 C   -3.304559   -2.025960    0.658288
 O   -4.455401   -2.344581    0.881820
 C   -2.616043   -2.412919   -0.674520
 O   -1.519375   -1.536491   -0.935138
 C   -2.031557   -3.828334   -0.559510
 C   -1.051344   -4.222925   -1.683799
 C    0.420787   -4.093925   -1.302989
 N    0.880069   -2.676390   -1.075265
 N    1.988234   -2.643876   -0.203143
 C    1.849346   -1.841076    0.907138
 O    0.751817   -1.421458    1.227664
 C    3.188590   -1.600294    1.627310
 C    3.075592   -0.942025    3.026213
 C    2.561268    0.505451    2.931980
 C    4.474839   -0.945596    3.665747
 C    2.142221   -1.784664    3.910735
 N    4.066518   -0.834579    0.754208
 C    4.873297   -1.417892   -0.165339
 O    4.704834   -2.552924   -0.605580
 O    5.857841   -0.606130   -0.538458
 C    6.709955   -1.094304   -1.579171
 C    1.112123   -1.900503   -2.359225
 C    1.783090   -0.582041   -2.092318
 C    1.175068    0.402007   -1.308352
 C    1.858019    1.568099   -0.996725
 C    3.059532   -0.346243   -2.602176
 C    3.733324    0.830995   -2.303881
 C    3.154515    1.796180   -1.473148
 C    3.904365    3.012315   -1.084191
 C    3.789300    3.565022    0.194252
 C    4.528922    4.694148    0.515767
 C    5.368674    5.235834   -0.453802
 N    5.489208    4.731952   -1.683427
 C    4.768620    3.653382   -1.979410
 H   -3.722733    2.292011   -2.771342
 H   -2.665647    0.072017   -2.819548
 H   -4.413075   -3.067374   -1.667138
 H   -3.139180   -2.506445   -2.755968
 H   -6.149233   -1.623792   -0.982490
 H   -7.235975    0.586771   -1.003959
 H   -7.238862    2.889522   -2.096138
 H   -5.726262    3.624596   -2.546931
 H   -6.592142    4.731165   -0.597350
 H   -5.866897    4.200184    1.502350
 H   -5.655216    1.266577    0.874397
 H   -5.178082    2.132685    2.338118
 H   -3.471633    2.693810    0.058918
 H   -4.209126   -0.212529    2.141341
 H   -2.669016   -0.589148    4.000728
 H   -3.218379    2.398771    3.566474
 H   -2.889781    1.616120    5.113768
 H   -4.365721    1.210400    4.235660
 H   -0.480686   -0.147688    2.856516
 H   -0.644916    0.771773    4.356319
 H   -0.863029    1.578697    2.795890
 H   -1.589667   -1.117533    1.208432
 H   -1.750426   -0.612114   -0.688254
 H   -1.524235   -3.918409    0.410627
 H   -2.869323   -4.529861   -0.527258
 H   -1.263469   -3.684177   -2.612571
 H   -1.186583   -5.283173   -1.920197
 H    1.078414   -4.517356   -2.066860
 H    0.614369   -4.607649   -0.359687
 H    0.101744   -2.165442   -0.585884
 H    2.925330   -2.800538   -0.603958
 H    3.643650   -2.591196    1.756904
 H    1.638977    0.575550    2.351495
 H    3.306477    1.179875    2.490442
 H    2.360391    0.887369    3.937850
 H    4.426129   -0.484076    4.656878
 H    5.205716   -0.383803    3.075372
 H    4.853985   -1.966225    3.790356
 H    2.467116   -2.831813    3.939774
 H    1.106726   -1.750495    3.568824
 H    2.173082   -1.404410    4.936521
 H    4.246789    0.133640    0.973444
 H    7.201008   -2.017768   -1.268185
 H    7.442981   -0.306218   -1.742629
 H    6.134560   -1.277690   -2.490031
 H    1.726302   -2.535228   -3.003063
 H    0.118560   -1.788543   -2.796986
 H    0.178155    0.269023   -0.904804
 H    1.360957    2.317397   -0.388289
 H    3.545254   -1.098286   -3.218972
 H    4.737662    0.982147   -2.686027
 H    3.135129    3.108755    0.933490
 H    4.463549    5.145806    1.499767
 H    5.970098    6.114800   -0.235571
 H    4.867346    3.285113   -2.999225
