108 
4cpt_ligand_ani.xyz
 C   -3.684201    2.740511   -1.336701
 C   -3.111612    1.626975   -1.945806
 C   -3.885615    0.506893   -2.259224
 C   -3.266194   -0.746271   -2.851627
 C   -5.257047    0.559123   -1.993104
 C   -5.829186    1.685987   -1.414229
 C   -5.046317    2.777137   -1.034606
 C   -5.669503    3.962594   -0.334718
 C   -5.833703    3.898832    1.171504
 C   -5.587273    2.941391    2.068824
 C   -5.123194    1.520830    1.854952
 N   -3.665950    1.501326    1.737936
 C   -2.894396    0.440341    1.386107
 O   -1.786233    0.630475    0.879739
 C   -3.401685   -1.006760    1.628805
 C   -3.089736   -1.526224    3.052614
 C   -3.927690   -0.811602    4.112717
 C   -1.604844   -1.466343    3.405710
 N   -2.798171   -1.867041    0.611071
 C   -3.403518   -1.898063   -0.624859
 O   -4.592318   -2.105809   -0.783202
 C   -2.491855   -1.627631   -1.841351
 O   -1.311081   -0.933393   -1.434081
 C   -2.109036   -2.992391   -2.438047
 C   -0.989429   -2.975859   -3.493575
 C    0.419780   -3.210169   -2.949581
 N    0.952265   -2.097472   -2.082618
 N    1.871055   -2.591518   -1.111904
 C    1.577992   -2.367442    0.201525
 O    0.451184   -2.040478    0.564722
 C    2.797399   -2.551083    1.130086
 C    2.462089   -2.826003    2.614713
 C    1.875967   -1.578103    3.291465
 C    3.760996   -3.217440    3.332677
 C    1.472321   -3.991330    2.708628
 N    3.691041   -1.409578    0.987735
 C    4.648867   -1.421771    0.019068
 O    4.827139   -2.320730   -0.787741
 O    5.403909   -0.310081    0.086970
 C    6.479850   -0.273124   -0.854470
 C    1.466816   -0.905233   -2.882002
 C    2.166023    0.158767   -2.065065
 C    1.604707    0.771450   -0.938665
 C    2.266236    1.802204   -0.285731
 C    3.409574    0.619955   -2.503157
 C    4.062625    1.666259   -1.865683
 C    3.495866    2.275984   -0.743696
 C    4.182075    3.406832   -0.072527
 C    4.209673    3.536318    1.315056
 C    4.878395    4.612137    1.880491
 C    5.483667    5.536837    1.034822
 N    5.460144    5.441654   -0.295988
 C    4.828369    4.393833   -0.820750
 H   -3.053745    3.591334   -1.081649
 H   -2.046614    1.638485   -2.172719
 H   -4.058443   -1.366013   -3.282228
 H   -2.570204   -0.469969   -3.652289
 H   -5.881131   -0.300507   -2.219467
 H   -6.900406    1.707424   -1.218208
 H   -6.663839    4.146773   -0.766078
 H   -5.088985    4.866771   -0.563585
 H   -6.222888    4.831872    1.588329
 H   -5.683199    3.242168    3.112125
 H   -5.595992    1.072595    0.967829
 H   -5.422061    0.915557    2.720142
 H   -3.231805    2.372019    1.449464
 H   -4.486488   -1.058701    1.470180
 H   -3.389220   -2.582065    3.035135
 H   -3.707366    0.261717    4.144556
 H   -3.716605   -1.225968    5.104180
 H   -5.001893   -0.938294    3.930344
 H   -0.997961   -2.058466    2.711860
 H   -1.437549   -1.867076    4.412032
 H   -1.219079   -0.439585    3.392268
 H   -1.780285   -1.821399    0.594934
 H   -1.537259   -0.284708   -0.729412
 H   -1.818852   -3.672977   -1.624489
 H   -3.027210   -3.416491   -2.862392
 H   -1.027980   -2.059956   -4.094330
 H   -1.179702   -3.794580   -4.194554
 H    1.123670   -3.386988   -3.774024
 H    0.432781   -4.105324   -2.325499
 H    0.152242   -1.741716   -1.504387
 H    2.845669   -2.626622   -1.404217
 H    3.362604   -3.405637    0.741787
 H    1.090969   -1.122621    2.680769
 H    2.647380   -0.823431    3.483542
 H    1.436391   -1.851563    4.259058
 H    3.567720   -3.383889    4.398424
 H    4.516575   -2.431575    3.236313
 H    4.174918   -4.145669    2.920485
 H    1.869426   -4.886838    2.215160
 H    0.516646   -3.741557    2.241459
 H    1.289614   -4.241731    3.759741
 H    3.334925   -0.493720    1.232117
 H    7.234072   -1.021480   -0.598290
 H    6.893339    0.732654   -0.787093
 H    6.109006   -0.476050   -1.862078
 H    2.161041   -1.275003   -3.646518
 H    0.601387   -0.485140   -3.400854
 H    0.640702    0.456405   -0.548872
 H    1.790949    2.273494    0.572243
 H    3.868875    0.150949   -3.371182
 H    5.041714    1.986758   -2.219517
 H    3.728227    2.786736    1.939959
 H    4.924045    4.738367    2.958360
 H    6.010737    6.397347    1.442559
 H    4.808128    4.342337   -1.909825
