108 
4cpt_ligand_xtb.xyz
 C   -3.637092    2.617933   -1.382169
 C   -3.098006    1.493718   -1.981983
 C   -3.892205    0.386848   -2.252187
 C   -3.293808   -0.879684   -2.806084
 C   -5.249691    0.455824   -1.961064
 C   -5.789037    1.584736   -1.374774
 C   -4.983974    2.670360   -1.048080
 C   -5.570527    3.892756   -0.402856
 C   -6.083671    3.790582    1.006185
 C   -6.041001    2.824773    1.915044
 C   -5.438623    1.451054    1.813441
 N   -4.010948    1.528113    1.544930
 C   -3.161857    0.528109    1.321500
 O   -2.078526    0.737914    0.769260
 C   -3.545217   -0.908202    1.710818
 C   -3.090475   -1.319305    3.125179
 C   -3.944555   -0.661334    4.204595
 C   -1.614569   -1.010499    3.362274
 N   -2.897578   -1.739440    0.708366
 C   -3.487162   -1.834078   -0.513251
 O   -4.671015   -2.020380   -0.667962
 C   -2.522848   -1.650833   -1.706974
 O   -1.381861   -0.897181   -1.308589
 C   -2.072409   -3.047746   -2.169143
 C   -1.003410   -3.076698   -3.271475
 C    0.422165   -3.185160   -2.737013
 N    0.863516   -1.974119   -2.003749
 N    1.882734   -2.280348   -1.081127
 C    1.607285   -2.174542    0.247040
 O    0.482611   -1.957249    0.637963
 C    2.871648   -2.406121    1.083857
 C    2.628634   -2.677581    2.587563
 C    2.098896   -1.428330    3.297212
 C    3.956656   -3.109468    3.218739
 C    1.624077   -3.824746    2.729429
 N    3.761399   -1.273545    0.892058
 C    4.627233   -1.181664   -0.138631
 O    4.525799   -1.839026   -1.161780
 O    5.561742   -0.263963    0.097569
 C    6.577960   -0.084977   -0.886072
 C    1.225679   -0.847262   -2.905603
 C    2.002110    0.221416   -2.182466
 C    1.529089    0.791315   -1.004778
 C    2.292854    1.721380   -0.327087
 C    3.223239    0.642496   -2.693774
 C    3.967020    1.601267   -2.036002
 C    3.528429    2.131982   -0.824623
 C    4.361537    3.089234   -0.091178
 C    4.471641    3.047195    1.298322
 C    5.296486    3.952514    1.940599
 C    5.995877    4.870544    1.169046
 N    5.890139    4.930351   -0.146602
 C    5.096501    4.074124   -0.755644
 H   -2.995730    3.463257   -1.174448
 H   -2.048359    1.486705   -2.238969
 H   -4.085769   -1.523818   -3.184234
 H   -2.606232   -0.640278   -3.619513
 H   -5.884912   -0.386869   -2.184250
 H   -6.848475    1.627761   -1.166691
 H   -6.415125    4.232027   -1.012955
 H   -4.833837    4.703680   -0.420780
 H   -6.572991    4.709220    1.308624
 H   -6.501910    3.031965    2.870830
 H   -5.922340    0.883607    1.007401
 H   -5.605029    0.922441    2.752757
 H   -3.691656    2.428839    1.207152
 H   -4.622793   -1.055776    1.605954
 H   -3.234638   -2.403753    3.181609
 H   -3.815438    0.418700    4.194084
 H   -3.640581   -1.026048    5.182647
 H   -4.996660   -0.901613    4.070850
 H   -0.986362   -1.501701    2.625363
 H   -1.321407   -1.363114    4.347807
 H   -1.433077    0.060869    3.313741
 H   -1.886856   -1.646479    0.726561
 H   -1.620537   -0.235115   -0.612236
 H   -1.707330   -3.593616   -1.295348
 H   -2.967422   -3.561609   -2.518331
 H   -1.102421   -2.208862   -3.921497
 H   -1.168591   -3.959245   -3.890169
 H    1.124892   -3.372918   -3.552487
 H    0.480094   -4.021587   -2.036159
 H    0.007296   -1.625363   -1.426081
 H    2.871716   -2.273310   -1.388027
 H    3.361434   -3.290212    0.650079
 H    1.290416   -0.974454    2.733378
 H    2.881660   -0.687914    3.449646
 H    1.718516   -1.702959    4.277006
 H    3.823767   -3.255124    4.287106
 H    4.733928   -2.362651    3.074301
 H    4.300800   -4.047437    2.789120
 H    1.941567   -4.690195    2.151738
 H    0.635979   -3.524545    2.396147
 H    1.554842   -4.121843    3.771969
 H    3.915561   -0.664617    1.680146
 H    7.436312   -0.710227   -0.634909
 H    6.861104    0.964583   -0.854273
 H    6.203013   -0.360058   -1.871917
 H    1.826765   -1.238615   -3.729984
 H    0.292570   -0.438984   -3.299782
 H    0.564360    0.517223   -0.606603
 H    1.912071    2.151189    0.586610
 H    3.595652    0.219124   -3.614954
 H    4.910398    1.920973   -2.450048
 H    3.930727    2.300504    1.862811
 H    5.403237    3.942221    3.013872
 H    6.667812    5.588276    1.618593
 H    5.025880    4.188162   -1.829683
