108 
4cpx_ligand_xtb.xyz
 C    5.414781   -3.288253    0.141739
 C    4.493729   -3.210686   -0.883844
 C    3.135010   -3.124215   -0.608287
 C    2.139514   -2.921014   -1.719912
 C    2.722131   -3.166862    0.716930
 C    3.645995   -3.242274    1.743417
 C    5.005434   -3.282612    1.469693
 C    6.029891   -3.326042    2.575306
 C    7.178153   -2.389130    2.321439
 C    7.080957   -1.081613    2.132272
 C    5.815484   -0.281076    2.163951
 N    5.567621    0.348585    0.875212
 C    4.361062    0.426452    0.322619
 O    3.349340   -0.037669    0.844816
 C    4.268184    1.132822   -1.044068
 C    4.187303    2.663422   -0.907436
 C    3.948222    3.283032   -2.282827
 C    5.446207    3.253014   -0.277628
 N    3.054443    0.627403   -1.652387
 C    3.045991   -0.633129   -2.156058
 O    3.957159   -1.103491   -2.794906
 C    1.759504   -1.426951   -1.829812
 O    1.225736   -0.978175   -0.583044
 C    0.739178   -1.153009   -2.949451
 C   -0.677235   -1.698974   -2.711400
 C   -1.632317   -0.676074   -2.102167
 N   -1.257502   -0.318337   -0.710752
 N   -1.671548    0.993051   -0.388628
 C   -0.758541    1.999999   -0.463691
 O    0.361064    1.798941   -0.880797
 C   -1.329798    3.328975    0.041867
 C   -0.813557    4.580475   -0.705615
 C   -1.619274    5.789573   -0.222600
 C    0.678005    4.819919   -0.465850
 C   -1.060477    4.372865   -2.202963
 N   -1.068889    3.385350    1.466518
 C   -1.792868    2.665673    2.346969
 O   -2.637950    1.854377    2.013345
 O   -1.455590    2.943779    3.606647
 C   -2.164510    2.241566    4.623250
 C   -1.693817   -1.309727    0.316992
 C   -3.163724   -1.618891    0.255252
 C   -3.620960   -2.702648   -0.488572
 C   -4.972716   -2.975620   -0.576542
 C   -4.088623   -0.828591    0.931636
 C   -5.439103   -1.102916    0.839331
 C   -5.898646   -2.172782    0.078754
 C   -9.055021   -1.394081    1.319440
 C   -8.121783   -2.322867    1.227371
 C   -7.368438   -2.423179   -0.061194
 S   -8.101023   -1.110200   -1.143762
 C   -9.283567   -0.533437    0.126714
 H    6.468304   -3.341888   -0.089313
 H    4.831535   -3.194419   -1.908067
 H    1.240743   -3.509432   -1.528250
 H    2.574658   -3.229482   -2.669132
 H    1.668217   -3.131281    0.955477
 H    3.302598   -3.259277    2.768251
 H    5.551949   -3.078759    3.526858
 H    6.414922   -4.345128    2.658715
 H    8.160126   -2.840237    2.291046
 H    7.976212   -0.501670    1.948295
 H    5.901704    0.502855    2.928993
 H    4.946191   -0.899168    2.387512
 H    6.369189    0.710630    0.381708
 H    5.111175    0.841841   -1.677472
 H    3.332020    2.890413   -0.260228
 H    4.789177    3.075658   -2.939535
 H    3.049806    2.877024   -2.738832
 H    3.837508    4.360496   -2.194141
 H    5.377105    4.338021   -0.277155
 H    5.569415    2.927163    0.751948
 H    6.328469    2.975138   -0.850315
 H    2.211203    0.952497   -1.191624
 H    1.963386   -0.701061    0.019167
 H    1.150214   -1.592841   -3.857536
 H    0.688509   -0.072811   -3.106772
 H   -0.636905   -2.594099   -2.092502
 H   -1.104868   -1.991187   -3.670719
 H   -1.597886    0.244027   -2.689501
 H   -2.658736   -1.049140   -2.104229
 H   -0.159999   -0.341706   -0.685373
 H   -2.484401    1.099599    0.222783
 H   -2.419477    3.282277   -0.088315
 H   -1.257625    6.691262   -0.708706
 H   -1.526501    5.923391    0.852408
 H   -2.673244    5.673363   -0.463681
 H    1.251207    3.931501   -0.709560
 H    1.017939    5.630656   -1.104554
 H    0.883637    5.106035    0.563371
 H   -0.431631    3.577261   -2.593563
 H   -2.102243    4.125624   -2.395746
 H   -0.823886    5.284659   -2.743806
 H   -0.344178    3.992457    1.813457
 H   -1.918673    2.739791    5.556713
 H   -3.238705    2.283669    4.437491
 H   -1.845382    1.198016    4.656261
 H   -1.427958   -0.891192    1.290045
 H   -1.103388   -2.212493    0.155449
 H   -2.917125   -3.347265   -0.995271
 H   -5.311447   -3.818001   -1.160261
 H   -3.759653   -0.007156    1.549423
 H   -6.149490   -0.480102    1.361207
 H   -9.662332   -1.228361    2.194163
 H   -7.862504   -3.009841    2.015975
 H   -7.542364   -3.386202   -0.550254
 H   -9.099783    0.522282    0.335805
 H  -10.295890   -0.641470   -0.266291
