108 
4cpx_ligand_ani.xyz
 C    5.342501   -3.347029   -0.046464
 C    4.406791   -3.150428   -1.050908
 C    3.037471   -3.164786   -0.768286
 C    2.019649   -2.882493   -1.854740
 C    2.637715   -3.397225    0.549613
 C    3.579458   -3.595983    1.554876
 C    4.947212   -3.553960    1.277048
 C    5.979774   -3.738309    2.378631
 C    7.131703   -2.751018    2.372118
 C    7.060139   -1.441057    2.134203
 C    5.811764   -0.604698    2.083535
 N    5.593809   -0.041140    0.755412
 C    4.351500    0.195891    0.274556
 O    3.345093   -0.220701    0.848382
 C    4.230813    1.019738   -1.031806
 C    4.215451    2.539346   -0.758975
 C    4.054047    3.311182   -2.069780
 C    5.458605    3.018125   -0.010484
 N    2.992938    0.637292   -1.689518
 C    2.904065   -0.577811   -2.306679
 O    3.742753   -1.013922   -3.077239
 C    1.635731   -1.389672   -1.965373
 O    1.095576   -0.952489   -0.715961
 C    0.619652   -1.131826   -3.091654
 C   -0.829845   -1.563925   -2.804180
 C   -1.716737   -0.453021   -2.250403
 N   -1.342657   -0.011142   -0.833530
 N   -1.649917    1.363618   -0.621906
 C   -0.600738    2.230766   -0.449093
 O    0.545918    1.959401   -0.785536
 C   -1.004926    3.535553    0.255783
 C   -0.497140    4.830533   -0.421056
 C   -1.209007    6.014938    0.242553
 C    1.019450    5.006655   -0.281736
 C   -0.863914    4.781108   -1.908182
 N   -0.600251    3.432173    1.652024
 C   -1.288204    2.549273    2.434800
 O   -2.325251    1.986911    2.122359
 O   -0.681232    2.376301    3.618847
 C   -1.357335    1.477192    4.497057
 C   -1.893899   -0.941561    0.274713
 C   -3.359392   -1.279757    0.168012
 C   -3.795522   -2.435351   -0.479877
 C   -5.151622   -2.730392   -0.574492
 C   -4.316226   -0.438654    0.742001
 C   -5.670293   -0.728745    0.642610
 C   -6.105836   -1.876936   -0.019899
 C   -9.370286   -1.839165    1.447654
 C   -8.274885   -2.529162    1.160977
 C   -7.581679   -2.208648   -0.144403
 S   -8.556488   -0.838637   -0.877351
 C   -9.805349   -0.804323    0.447487
 H    6.402477   -3.318840   -0.291990
 H    4.739841   -2.946753   -2.064629
 H    1.106544   -3.458088   -1.664751
 H    2.421825   -3.187798   -2.825851
 H    1.578224   -3.396894    0.803330
 H    3.238475   -3.768005    2.574545
 H    5.460026   -3.693698    3.347251
 H    6.402536   -4.750841    2.312060
 H    8.113388   -3.166563    2.597973
 H    7.996000   -0.893621    2.005383
 H    5.887330    0.208218    2.821789
 H    4.924167   -1.185266    2.340266
 H    6.392671    0.308224    0.248589
 H    5.065290    0.772012   -1.702987
 H    3.331502    2.740033   -0.129127
 H    4.915231    3.142927   -2.728971
 H    3.148815    3.010938   -2.605478
 H    3.995126    4.387809   -1.871233
 H    5.431356    4.107205    0.104717
 H    5.536936    2.580531    0.988949
 H    6.369429    2.772965   -0.570937
 H    2.155965    0.923195   -1.184792
 H    1.837590   -0.802525   -0.083765
 H    1.003404   -1.640228   -3.984764
 H    0.621593   -0.058741   -3.334738
 H   -0.857974   -2.445256   -2.151428
 H   -1.285265   -1.877451   -3.748462
 H   -1.640487    0.439271   -2.875160
 H   -2.767602   -0.748512   -2.247964
 H   -0.296035   -0.058531   -0.760522
 H   -2.446463    1.512460   -0.010231
 H   -2.096894    3.580441    0.264770
 H   -0.869508    6.959584   -0.196601
 H   -1.006163    6.040051    1.318036
 H   -2.294302    5.951547    0.099057
 H    1.551199    4.143249   -0.690333
 H    1.336151    5.895353   -0.840132
 H    1.326495    5.151200    0.760373
 H   -0.348693    3.960940   -2.418105
 H   -1.943429    4.646506   -2.048185
 H   -0.576111    5.717643   -2.398328
 H    0.395303    3.439640    1.832580
 H   -0.730363    1.403475    5.384504
 H   -2.347396    1.861805    4.753219
 H   -1.475049    0.499143    4.022695
 H   -1.705740   -0.436691    1.226269
 H   -1.281127   -1.844184    0.229761
 H   -3.063897   -3.104327   -0.929937
 H   -5.473635   -3.630362   -1.092292
 H   -3.995585    0.445196    1.288797
 H   -6.394502   -0.051304    1.085739
 H   -9.955186   -1.987642    2.351909
 H   -7.859028   -3.305745    1.797240
 H   -7.663783   -3.069488   -0.818439
 H   -9.855950    0.197031    0.889480
 H  -10.795137   -1.028834    0.035728
