45 
4cpy_ligand_xtb.xyz
 C   -3.933553    0.232559   -0.153525
 O   -4.825694   -0.563914   -0.023175
 O   -4.120819    1.540028   -0.304913
 C   -2.495556   -0.163168   -0.161244
 C   -2.263669   -1.631819    0.047506
 C   -0.826752   -2.076690   -0.234008
 C    0.156129   -1.055059    0.348920
 N    1.585111   -1.308865    0.173399
 C    2.326171   -2.406531    0.108436
 O    1.867790   -3.566060    0.123456
 C    3.801894   -2.193016    0.008460
 C   -0.067749    0.315681   -0.337040
 C   -1.512962    0.716256   -0.314195
 O    0.769609    1.225145    0.331213
 C    1.202784    2.370367   -0.421729
 C    2.527021    2.055962   -1.136274
 C    1.306986    3.545956    0.550218
 C   -0.063516    4.021201    1.017316
 C    3.694500    1.835772   -0.177889
 N   -0.604904   -3.417361    0.349011
 H   -5.068785    1.752588   -0.292619
 H   -2.967701   -2.185442   -0.577806
 H   -2.525713   -1.856392    1.087208
 H   -0.656711   -2.155163   -1.312695
 H   -0.042357   -0.922657    1.421405
 H    2.077485   -0.416703    0.214600
 H    4.043834   -1.388940   -0.680865
 H    4.277734   -3.114423   -0.316207
 H    4.196500   -1.934400    0.990481
 H    0.243046    0.223160   -1.394506
 H   -1.724892    1.766618   -0.435935
 H    0.445652    2.605089   -1.181357
 H    2.383085    1.164351   -1.756170
 H    2.757809    2.880419   -1.810526
 H    1.830417    4.361497    0.051173
 H    1.892951    3.232543    1.413551
 H   -0.598501    3.211967    1.508649
 H   -0.656471    4.377027    0.177339
 H    0.046799    4.837646    1.725033
 H    3.411043    1.178639    0.643257
 H    4.538926    1.398325   -0.705174
 H    4.020671    2.779063    0.248936
 H   -1.133974   -4.132609   -0.148840
 H   -0.877386   -3.441733    1.332781
 H    0.587628   -3.623303    0.259072
