45 
4cpz_ligand_ani.xyz
 C    0.884770    3.022414    0.632016
 O    1.877317    3.922682    0.743696
 O    0.166006    2.736123    1.559909
 C    0.867370    2.424326   -0.772837
 C    1.963934    1.369834   -0.922119
 C    1.621459    0.098562   -0.148598
 C    0.205238   -0.393723   -0.528939
 N   -0.180847   -1.531616    0.289094
 C    0.076040   -2.822994   -0.054996
 O    0.737741   -3.103676   -1.050261
 C   -0.504269   -3.865380    0.874868
 C   -0.819599    0.735830   -0.388633
 O   -0.390002    1.893760   -1.124326
 C   -2.202451    0.435931   -0.994303
 O   -2.955590    1.636880   -1.084965
 C   -3.109174   -0.522857   -0.218969
 O   -4.365836   -0.592027   -0.885505
 C   -3.370337   -0.094986    1.229480
 O   -4.387731   -0.891628    1.780094
 N    2.592211   -0.942425   -0.430407
 C    3.807018   -1.001567    0.223638
 N    4.530123   -2.151057   -0.103250
 N    4.307318   -0.173474    1.065128
 H    1.854707    4.245545    1.660342
 H    1.068606    3.247527   -1.466191
 H    2.922006    1.781506   -0.589769
 H    2.062973    1.112521   -1.982872
 H    1.612485    0.313503    0.933190
 H    0.232033   -0.734550   -1.570740
 H   -0.683274   -1.340262    1.143337
 H   -0.041632   -3.808696    1.866094
 H   -0.317808   -4.852264    0.451345
 H   -1.584143   -3.723995    1.002398
 H   -0.910211    1.024952    0.665600
 H   -2.054817    0.020624   -2.006563
 H   -2.333637    2.324663   -1.364872
 H   -2.706868   -1.537827   -0.233353
 H   -4.577742    0.325884   -1.119449
 H   -3.640992    0.975115    1.233601
 H   -2.479586   -0.221066    1.857860
 H   -5.028524   -0.992915    1.058180
 H    2.232922   -1.821156   -0.795095
 H    4.501457   -2.401709   -1.082863
 H    5.476671   -2.078724    0.245492
 H    3.678505    0.602082    1.257596
