19 
4cq0_ligand_dft.xyz
 O    1.534965    2.797777   -0.012185
 C    1.221452    1.630300    0.001356
 N    2.126089    0.570778    0.016005
 C   -0.147180    1.061500    0.006027
 C   -1.346534    1.763980    0.005571
 C   -2.539804    1.060545    0.005077
 C   -2.562194   -0.349732    0.005849
 N   -3.759362   -1.026839    0.050046
 C   -1.346322   -1.059208    0.008530
 C   -0.180173   -0.326006    0.007784
 S    1.469939   -0.991007   -0.000742
 O    1.774140   -1.642309   -1.261110
 O    1.776908   -1.672507    1.242057
 H    3.126302    0.715440   -0.018420
 H   -1.334860    2.848878    0.004130
 H   -3.482630    1.600177    0.009284
 H   -4.588303   -0.525369   -0.229872
 H   -3.756749   -1.997910   -0.222266
 H   -1.333462   -2.144641    0.015385
