72 
4crl_ligand_ani.xyz
 C    7.006694   -1.256900    1.721961
 N    6.854402   -1.199663    0.245972
 C    7.112694   -2.524321   -0.348812
 C    5.575689   -0.554137   -0.246301
 C    4.271176   -1.067116    0.350070
 C    3.043931   -0.333177   -0.231584
 C    2.537160   -0.891075   -1.579946
 C    1.032157   -0.557826   -1.527395
 C    0.802186   -0.111737   -0.053229
 O    1.941471   -0.622047    0.626018
 C    0.845755    1.406550    0.102658
 C    2.165172    1.962923   -0.085437
 C    3.235950    1.164846   -0.299995
 C    4.573194    1.673489   -0.760377
 O    4.773115    3.062348   -0.537429
 C    5.685251    0.946647   -0.017099
 O    6.962341    1.344506   -0.470995
 C   -0.220425    2.166232    0.429879
 C   -1.577428    1.612764    0.779339
 C   -1.733893    0.172351    0.268003
 C   -2.006726    0.185332   -1.239781
 C   -2.788804   -0.661525    1.039893
 C   -2.379505   -2.124695    0.763127
 C   -0.842197   -2.099228    0.547105
 C   -0.466423   -0.613700    0.640802
 C   -4.236887   -0.296703    0.796855
 C   -5.006971   -0.868817   -0.188438
 C   -6.364564   -0.494144   -0.376072
 C   -7.188265   -1.074757   -1.379709
 N   -8.444846   -0.762966   -1.581087
 C   -8.985963    0.184050   -0.768190
 C   -8.300665    0.820651    0.230534
 C   -6.939483    0.491303    0.456200
 C   -6.133126    1.091482    1.458090
 C   -4.826047    0.708777    1.614655
 H    6.245725   -1.901323    2.172938
 H    7.990736   -1.665877    1.970595
 H    6.929983   -0.256006    2.152025
 H    7.570245   -0.541022   -0.097727
 H    8.106555   -2.870971   -0.052814
 H    7.071445   -2.467689   -1.439339
 H    6.371995   -3.255766   -0.007332
 H    5.573894   -0.741604   -1.329835
 H    4.247241   -0.897459    1.431964
 H    4.167248   -2.146399    0.183941
 H    2.690513   -1.973684   -1.596525
 H    3.055889   -0.455509   -2.440061
 H    0.765328    0.242632   -2.223583
 H    0.423073   -1.425789   -1.789607
 H    2.267953    3.043029   -0.058097
 H    4.691405    1.446618   -1.834717
 H    4.350354    3.541873   -1.260086
 H    5.570391    1.168438    1.056463
 H    6.950455    2.311701   -0.484401
 H   -0.073850    3.240820    0.498338
 H   -2.373095    2.255613    0.381104
 H   -1.689381    1.640894    1.874649
 H   -1.917979   -0.809393   -1.688587
 H   -3.012071    0.564410   -1.448739
 H   -1.301096    0.852182   -1.741085
 H   -2.592465   -0.468246    2.104164
 H   -2.680929   -2.781039    1.585173
 H   -2.870525   -2.502520   -0.136505
 H   -0.591354   -2.527932   -0.426620
 H   -0.304816   -2.685665    1.297334
 H   -0.293498   -0.400024    1.705411
 H   -4.590335   -1.606148   -0.871241
 H   -6.757144   -1.835723   -2.033649
 H  -10.031323    0.417750   -0.961643
 H   -8.789065    1.570432    0.847316
 H   -6.571335    1.851683    2.098432
 H   -4.220300    1.182431    2.386566
