60 
4csj_ligand_ani.xyz
 C    4.690719    2.041747   -2.156676
 C    4.344122    1.508293   -0.771158
 C    3.124047    2.210413   -0.167165
 N    1.902868    1.763568   -0.798544
 C    0.684924    1.960420   -0.195101
 C    0.481680    2.835736    0.866870
 C   -0.786052    2.976692    1.462153
 C   -1.884347    2.261521    1.028675
 C   -1.678537    1.376750   -0.041221
 N   -2.541477    0.548021   -0.717153
 N   -1.948243   -0.035430   -1.783750
 C   -0.693752    0.369484   -1.777723
 C   -0.439174    1.251032   -0.687882
 C   -3.895119    0.275554   -0.444631
 C   -4.765746    0.075120   -1.515883
 C   -6.110606   -0.182692   -1.283430
 C   -6.562477   -0.265290    0.024683
 F   -7.864277   -0.518901    0.250375
 C   -5.710950   -0.101616    1.104295
 C   -4.368130    0.168696    0.865643
 N    4.106769    0.050091   -0.886126
 S    3.988736   -0.865575    0.536206
 O    4.821795   -2.041621    0.324137
 O    4.285357   -0.002781    1.670263
 C    2.261811   -1.369335    0.545051
 C    1.373169   -0.945244    1.550528
 C    1.731396   -0.081297    2.736489
 C    0.045648   -1.361303    1.464716
 C   -0.432533   -2.189058    0.455329
 C   -1.874518   -2.613538    0.388289
 C    0.489963   -2.613865   -0.499453
 C    1.826544   -2.223376   -0.489321
 C    2.696586   -2.729826   -1.614047
 H    5.559455    1.514552   -2.566545
 H    3.850896    1.916723   -2.848542
 H    4.942418    3.106139   -2.111393
 H    5.186924    1.669383   -0.089016
 H    3.111383    2.010907    0.913619
 H    3.225812    3.297887   -0.283723
 H    1.980072    0.858771   -1.249057
 H    1.311563    3.414564    1.265402
 H   -0.897003    3.668096    2.293892
 H   -2.865133    2.391641    1.469865
 H   -0.025528    0.012351   -2.550048
 H   -4.375252    0.122529   -2.527196
 H   -6.807888   -0.327492   -2.102734
 H   -6.099265   -0.184347    2.113721
 H   -3.681329    0.287888    1.697802
 H    4.842456   -0.393720   -1.431292
 H    2.614969   -0.443800    3.264331
 H    1.924252    0.949814    2.428863
 H    0.881995   -0.061977    3.424441
 H   -0.637128   -1.015331    2.235681
 H   -2.498406   -1.975547    1.025075
 H   -2.008202   -3.651041    0.719115
 H   -2.250212   -2.536465   -0.638142
 H    0.158502   -3.271147   -1.301487
 H    2.139765   -3.475234   -2.189350
 H    2.967500   -1.923468   -2.304258
 H    3.617455   -3.181004   -1.242040
