52 
4css_ligand_xtb.xyz
 C   -6.865577    2.510021   -0.315840
 N   -7.139318    1.255102   -0.981318
 S   -7.036158   -0.083721    0.039643
 O   -7.537342    0.239956    1.347568
 O   -7.632500   -1.174420   -0.672427
 C   -5.268438   -0.288574    0.113231
 C   -4.606476   -0.708319   -1.023969
 C   -3.231415   -0.842015   -0.994787
 C   -4.584470   -0.003007    1.277934
 C   -3.208438   -0.141351    1.306448
 C   -2.515043   -0.559761    0.170300
 C   -1.053213   -0.708365    0.196920
 C   -0.275254   -0.301530   -0.882684
 C    1.100766   -0.440608   -0.873247
 C   -0.409274   -1.263083    1.303076
 C    0.959428   -1.419576    1.317489
 C    1.727038   -1.013562    0.226544
 O    3.078861   -1.217592    0.342658
 C    3.902590   -0.970719   -0.765305
 O    3.961995    0.385285   -1.099195
 C    4.560133    1.214293   -0.117516
 C    4.503514    2.633211   -0.688945
 O    4.970805    3.545914    0.283543
 C    5.996960    0.760886    0.169544
 O    6.616263    1.506979    1.188767
 C    5.975694   -0.704447    0.625417
 O    7.285375   -1.195808    0.782406
 C    5.275555   -1.569653   -0.427076
 O    6.032068   -1.644053   -1.602593
 H   -6.991705    3.330386   -1.019406
 H   -5.829382    2.484579    0.020630
 H   -7.511724    2.663945    0.553942
 H   -8.034560    1.240457   -1.448951
 H   -5.182739   -0.932627   -1.906934
 H   -2.704505   -1.188194   -1.870967
 H   -5.143604    0.317942    2.142947
 H   -2.662370    0.093165    2.207696
 H   -0.749198    0.157514   -1.737592
 H    1.680105   -0.090268   -1.712039
 H   -0.992007   -1.601738    2.146286
 H    1.461641   -1.861537    2.163220
 H    3.517278   -1.462125   -1.670213
 H    3.984799    1.178640    0.820743
 H    3.464548    2.847259   -0.965684
 H    5.121978    2.672580   -1.594845
 H    4.881080    4.441701   -0.057860
 H    6.578552    0.829257   -0.765822
 H    6.303404    2.420818    1.123016
 H    5.422635   -0.768143    1.574287
 H    7.769475   -0.535635    1.294149
 H    5.112208   -2.575278   -0.009302
 H    6.949182   -1.782020   -1.323343
