52 
4css_ligand_ani.xyz
 C   -7.389690    2.442078   -0.653735
 N   -7.266725    1.050198   -1.075569
 S   -7.020598   -0.092539    0.112755
 O   -7.443381    0.439722    1.400169
 O   -7.589195   -1.319485   -0.423365
 C   -5.260569   -0.248684    0.147694
 C   -4.612430   -0.779818   -0.962822
 C   -3.231762   -0.905839   -0.937896
 C   -4.552912    0.137317    1.281149
 C   -3.174104   -0.011633    1.298907
 C   -2.493010   -0.529699    0.190624
 C   -1.019470   -0.683308    0.208419
 C   -0.242357   -0.300250   -0.885723
 C    1.138880   -0.444498   -0.889592
 C   -0.363026   -1.225517    1.319279
 C    1.008202   -1.402611    1.327419
 C    1.765179   -1.015766    0.217645
 O    3.112758   -1.243085    0.309122
 C    3.930441   -0.971433   -0.806544
 O    3.974253    0.400364   -1.096237
 C    4.559162    1.221208   -0.083760
 C    4.509020    2.629671   -0.650491
 O    5.083077    3.518444    0.304642
 C    5.985728    0.745889    0.199231
 O    6.598869    1.440249    1.263331
 C    5.972537   -0.720425    0.603164
 O    7.299624   -1.195041    0.730050
 C    5.304356   -1.545755   -0.484895
 O    6.078709   -1.497522   -1.660917
 H   -7.648513    3.026903   -1.538946
 H   -6.429950    2.798274   -0.271621
 H   -8.155553    2.583173    0.116993
 H   -8.010408    0.709376   -1.675800
 H   -5.186134   -1.088810   -1.831881
 H   -2.712432   -1.323802   -1.796540
 H   -5.089215    0.536818    2.136117
 H   -2.610788    0.294728    2.176585
 H   -0.730144    0.138885   -1.753884
 H    1.707312   -0.115790   -1.751933
 H   -0.948126   -1.536405    2.182325
 H    1.509592   -1.838115    2.186055
 H    3.514483   -1.465912   -1.691178
 H    3.973890    1.177212    0.847181
 H    3.467430    2.898491   -0.865517
 H    5.077388    2.638351   -1.590946
 H    5.247489    4.369125   -0.116645
 H    6.572878    0.838242   -0.730919
 H    6.357228    2.376919    1.165995
 H    5.424849   -0.829711    1.551143
 H    7.780447   -0.520566    1.233312
 H    5.173166   -2.579568   -0.130716
 H    6.988983   -1.653304   -1.367082
