45 
4cst_ligand_ani.xyz
Cl   -0.255848   -2.553301   -1.586441
 C   -2.468300   -0.315560    1.318071
 O   -1.619952   -0.984725    0.410486
 C   -3.791628   -1.068518    1.278501
 O   -4.611029   -0.565652    2.307752
 C   -4.461891   -0.850067   -0.067386
 O   -5.748557   -1.433537    0.006715
 C   -4.587791    0.641301   -0.337442
 O   -5.198956    0.761296   -1.603160
 C   -3.211299    1.307492   -0.273415
 O   -2.604427    1.039545    0.993080
 C   -3.289243    2.823277   -0.347943
 O   -3.913201    3.183891   -1.577875
 C   -0.304011   -0.648591    0.352141
 C    0.293785    0.336397    1.137050
 C    1.661596    0.548533    1.054611
 C    2.461465   -0.177407    0.170742
 C    1.843421   -1.122920   -0.653975
 C    0.484598   -1.363093   -0.561180
 C    3.924810    0.035418    0.112911
 C    4.674268    0.142376    1.289665
 C    6.047755    0.318110    1.246930
 C    6.697969    0.409398    0.011798
 C    5.958690    0.317826   -1.172123
 C    4.587365    0.124215   -1.115349
 C    8.126361    0.596214   -0.038863
 N    9.274588    0.745368   -0.076561
 H   -2.037425   -0.358772    2.324825
 H   -3.584512   -2.140823    1.415145
 H   -5.497416   -0.902715    2.108094
 H   -3.863701   -1.316765   -0.865885
 H   -6.248178   -1.080092   -0.744842
 H   -5.219832    1.076116    0.456105
 H   -5.044133    1.672540   -1.904611
 H   -2.588793    0.927039   -1.098202
 H   -3.876012    3.174475    0.511977
 H   -2.278549    3.243932   -0.279660
 H   -4.180510    4.108476   -1.534919
 H   -0.297083    0.938702    1.817334
 H    2.118783    1.309316    1.682795
 H    2.436145   -1.704254   -1.355716
 H    4.171471    0.064140    2.250435
 H    6.620701    0.392458    2.165925
 H    6.462926    0.389242   -2.130774
 H    4.014849    0.062566   -2.037049
