45 
4cst_ligand_dft.xyz
Cl   -0.206331   -2.807919   -1.314764
 C   -2.502776   -0.304199    1.275183
 O   -1.638521   -0.970255    0.374765
 C   -3.828751   -1.061319    1.191186
 O   -4.635414   -0.617135    2.254069
 C   -4.501684   -0.782004   -0.148885
 O   -5.797447   -1.345957   -0.080696
 C   -4.586989    0.716160   -0.405843
 O   -5.154300    0.861314   -1.688630
 C   -3.196730    1.350258   -0.290255
 O   -2.624851    1.052460    0.979696
 C   -3.236575    2.871656   -0.334510
 O   -3.846203    3.261568   -1.556712
 C   -0.316957   -0.674232    0.367793
 C    0.271794    0.374374    1.076221
 C    1.643630    0.583340    1.003950
 C    2.463629   -0.229873    0.220123
 C    1.868270   -1.273508   -0.495488
 C    0.502628   -1.491877   -0.422795
 C    3.924508    0.006436    0.133180
 C    4.660944    0.363118    1.269495
 C    6.026573    0.591838    1.192486
 C    6.685303    0.460960   -0.034265
 C    5.963531    0.102216   -1.177238
 C    4.597522   -0.118860   -1.088222
 C    8.099855    0.695077   -0.119999
 N    9.241329    0.885206   -0.188732
 H   -2.102995   -0.347467    2.293320
 H   -3.614355   -2.135599    1.276261
 H   -5.537099   -0.874649    2.009832
 H   -3.916139   -1.240877   -0.957428
 H   -6.288215   -0.984377   -0.831968
 H   -5.230027    1.161675    0.369693
 H   -5.072329    1.797493   -1.929915
 H   -2.559116    0.971905   -1.100665
 H   -3.811631    3.227212    0.531919
 H   -2.213704    3.262308   -0.255935
 H   -3.952504    4.218763   -1.557009
 H   -0.348692    1.049683    1.651720
 H    2.074530    1.422005    1.542658
 H    2.473576   -1.942825   -1.098071
 H    4.161098    0.440121    2.230208
 H    6.589324    0.861419    2.079970
 H    6.474223    0.007914   -2.129621
 H    4.039897   -0.369854   -1.985485
