18 
4ctj_ligand_ani.xyz
 C   -2.597174   -0.333660   -0.029071
 O   -3.003462   -1.401854   -0.404420
 C   -1.145312    0.039725   -0.020944
 O   -3.467547    0.601679    0.414370
 C   -0.724542    1.377400   -0.146411
 O    2.876825    0.767714   -0.040927
 C    0.619724    1.715983   -0.170947
 C    1.521050    0.660520   -0.054684
 C    3.358052   -0.507515    0.079859
 C    2.373479   -1.425391    0.142266
 C    1.137116   -0.679384    0.056954
 C   -0.223127   -0.996493    0.059300
 H   -2.993109    1.338428    0.822440
 H   -1.461398    2.171200   -0.269188
 H    0.955921    2.742980   -0.264295
 H    4.435659   -0.585744    0.107330
 H    2.488174   -2.496907    0.237038
 H   -0.587383   -2.017377    0.116557
