18 
4ctj_ligand_dft.xyz
 C   -2.597630   -0.334201   -0.029045
 O   -3.002168   -1.417110   -0.364185
 C   -1.146972    0.042107   -0.032277
 O   -3.468194    0.614842    0.384903
 C   -0.720410    1.381952   -0.142988
 O    2.874765    0.767145   -0.032455
 C    0.625203    1.714864   -0.154833
 C    1.522960    0.661992   -0.046541
 C    3.353693   -0.508207    0.075437
 C    2.368048   -1.428117    0.131392
 C    1.135170   -0.682015    0.052197
 C   -0.223540   -0.995740    0.049009
 H   -2.989780    1.352967    0.784100
 H   -1.448065    2.179164   -0.271847
 H    0.964013    2.739483   -0.255350
 H    4.429612   -0.589668    0.098969
 H    2.488651   -2.497841    0.216307
 H   -0.578784   -2.018922    0.107620
