24 
4cu7_ligand_xtb.xyz
 C    0.831254   -1.735829   -0.106537
 N    1.725578   -0.567030    0.000209
 O    0.606715    1.109573    1.568015
 C   -0.638385   -1.315164   -0.021283
 O   -2.224211    0.343008   -0.533475
 C   -0.958000   -0.107650   -0.939043
 O   -0.947718   -1.028247    1.322841
 C    0.111653    1.013443   -0.864202
 C    1.494661    0.403786   -1.091201
 C    0.088565    1.818346    0.452921
 H    1.012590   -2.248981   -1.053116
 H    1.032981   -2.420727    0.719013
 H    1.448008    0.017324    0.883404
 H    2.700840   -0.866218    0.044806
 H   -0.089873    0.513929    1.911811
 H   -1.253366   -2.160855   -0.358110
 H   -2.621685    0.905871   -1.205541
 H   -0.983308   -0.476478   -1.974885
 H   -1.890396   -0.817052    1.368841
 H   -0.100284    1.726221   -1.666094
 H    2.258950    1.181716   -1.046240
 H    1.555417   -0.095809   -2.061657
 H    0.725302    2.698636    0.337813
 H   -0.931006    2.155358    0.655511
