40 
4cwb_ligand_xtb.xyz
 C    6.915630    2.168159   -0.128456
 C    5.758307    2.740794    0.372537
 C    6.922424    0.829180   -0.482639
 C    4.614929    1.978945    0.523644
 C    5.777772    0.067150   -0.342122
 C    3.018052   -1.094385   -0.659793
 C    2.594717   -0.048940    1.458687
 C    1.870720   -1.847757   -0.526270
 C    1.457779   -0.812917    1.605921
 C    4.609490    0.632269    0.165378
 C    3.393910   -0.176432    0.321875
 C    1.069588   -1.710729    0.608304
 C   -3.697201   -0.007277   -0.003566
 C   -3.226438    1.028165   -0.931984
 C   -2.058403   -0.696025   -1.129933
 C   -4.812208    0.283164    0.942043
 C   -4.789440    2.499993    0.009712
 C   -0.168710   -2.478131    0.825821
 C   -0.892758   -3.012369   -0.415560
 N   -2.904216   -1.037731   -0.104091
 N   -3.779227    2.225532   -0.945092
 N   -2.250187    0.517141   -1.674687
 N   -5.132702    1.583693    0.904016
 N   -5.306045    3.666977   -0.105428
 O   -5.259799   -0.548905    1.695078
 O   -0.629279   -2.693733    1.917297
 S   -0.961116   -1.809639   -1.775837
 H    7.809200    2.763312   -0.242332
 H    5.746786    3.785469    0.646261
 H    7.823864    0.376832   -0.868965
 H    3.710118    2.434760    0.898257
 H    5.794231   -0.981167   -0.602183
 H    3.625684   -1.202284   -1.545726
 H    2.883794    0.638726    2.239107
 H    1.618001   -2.560139   -1.297131
 H    0.840092   -0.725040    2.487185
 H   -1.912444   -3.270428   -0.128954
 H   -0.376455   -3.890131   -0.805095
 H   -3.601309    2.916080   -1.664449
 H   -6.013412    3.862906    0.593779
