30 
4cwf_ligand_dft.xyz
 C   -0.183224    1.144512    0.003074
 N    0.867767    0.336355   -0.332406
 N    0.243036    2.373000    0.230713
 N    2.028168    1.058119   -0.333586
 C    0.736852   -1.003830   -0.635172
 N   -0.425314   -1.570771   -0.617201
 C    1.584828    2.259829    0.016087
 C   -1.482813    0.549114    0.040405
 C   -1.542391   -0.823439   -0.285981
 N    2.425801    3.324656    0.198325
 C   -2.646333    1.261288    0.374823
 C    1.988138   -1.767337   -0.940146
 C   -2.795930   -1.464172   -0.270329
 C    2.841469   -2.032408    0.314211
 C   -3.861213    0.610456    0.383161
 C   -3.932875   -0.757023    0.058771
 C    2.104689   -2.832311    1.386578
 H    1.977478    4.225206    0.123639
 H    3.316514    3.255207   -0.270360
 H   -2.563293    2.314819    0.621317
 H    2.581413   -1.205100   -1.668801
 H    1.675519   -2.712046   -1.392901
 H   -2.831853   -2.518786   -0.521958
 H    3.182068   -1.074058    0.719661
 H    3.737355   -2.577307   -0.004881
 H   -4.765811    1.152219    0.640627
 H   -4.895239   -1.259887    0.068726
 H    1.234816   -2.286784    1.767597
 H    1.743534   -3.787441    0.989248
 H    2.764106   -3.043635    2.234270
