30 
4cwf_ligand_xtb.xyz
 C   -0.179498    1.134924   -0.001195
 N    0.880866    0.317818   -0.332538
 N    0.259964    2.358142    0.210823
 N    2.014144    1.042553   -0.332234
 C    0.724727   -1.005668   -0.617754
 N   -0.438992   -1.554986   -0.594564
 C    1.596266    2.255681    0.003887
 C   -1.474306    0.557845    0.041603
 C   -1.544247   -0.819946   -0.274709
 N    2.431294    3.303513    0.193847
 C   -2.634215    1.269012    0.366666
 C    1.950617   -1.791286   -0.939042
 C   -2.795015   -1.453048   -0.256092
 C    2.819651   -1.995050    0.309440
 C   -3.845483    0.621982    0.376610
 C   -3.923111   -0.738749    0.064736
 C    2.112031   -2.836516    1.363120
 H    1.996843    4.210272    0.190359
 H    3.344637    3.225674   -0.218945
 H   -2.545509    2.317774    0.603592
 H    2.528193   -1.240641   -1.684309
 H    1.642671   -2.753909   -1.346254
 H   -2.838249   -2.503050   -0.498018
 H    3.079490   -1.017774    0.719947
 H    3.745321   -2.489193    0.008725
 H   -4.745732    1.163337    0.626198
 H   -4.884681   -1.230647    0.077789
 H    1.189635   -2.358262    1.684815
 H    1.861117   -3.815962    0.962343
 H    2.750829   -2.971992    2.232801
