36 
4cwo_ligand_ani.xyz
 N    3.827615    3.615875   -0.078027
 C    3.124826    2.435866   -0.088661
 N    1.821168    2.412189   -0.325397
 N    3.725581    1.236890    0.115932
 C    2.714355    0.395545   -0.001684
 C    2.617508   -1.032254    0.097777
 C    3.722447   -1.855190    0.346970
 C    3.556392   -3.220617    0.436756
 C    2.274110   -3.782680    0.278501
 C    1.182269   -2.984297    0.031664
 C    1.332285   -1.585966   -0.068247
 N    0.201520   -0.826080   -0.331004
 N    1.561096    1.072198   -0.267662
 C    0.324327    0.451408   -0.435034
 C   -0.811822    1.364800   -0.803191
 C   -2.164373    0.828587   -0.389642
 C   -2.590976    0.986438    0.925320
 C   -2.960271    0.151411   -1.308185
 C   -4.190444   -0.369142   -0.905979
 O   -4.928750   -1.023483   -1.841518
 C   -4.627900   -0.214380    0.406596
 C   -3.823646    0.466435    1.317345
 O   -4.196448    0.652638    2.611274
 H    3.267451    4.431739    0.118822
 H    4.699394    3.580220    0.428386
 H    4.699854   -1.391413    0.465060
 H    4.407914   -3.866507    0.629717
 H    2.149851   -4.860446    0.352107
 H    0.183629   -3.392952   -0.093568
 H   -0.789218    1.506393   -1.891510
 H   -0.618419    2.345837   -0.357236
 H   -1.981627    1.508429    1.656942
 H   -2.647487    0.017639   -2.339914
 H   -5.746830   -1.337845   -1.435605
 H   -5.591333   -0.621808    0.718627
 H   -5.064982    0.254196    2.751398
