37 
4cwp_ligand_ani.xyz
 N    0.909942    4.225196   -0.126690
 C    1.231807    2.899038    0.045586
 N    0.492076    2.100954    0.805997
 N    1.143770    0.908527    0.665428
 C    2.220935    1.073491   -0.156334
 N    2.299019    2.326238   -0.565014
 C    0.808615   -0.301313    1.253410
 N    1.503090   -1.364887    1.055592
 C    2.620315   -1.281578    0.231299
 C    3.377332   -2.451027    0.016591
 C    4.486623   -2.417566   -0.795351
 C    4.884294   -1.220917   -1.423856
 C    4.155232   -0.067802   -1.226202
 C    3.023519   -0.088568   -0.402510
 C   -0.441524   -0.298449    2.078510
 C   -1.656605   -0.570340    1.214642
 C   -1.977147   -1.884790    0.886560
 C   -3.071297   -2.199131    0.070539
 C   -3.807816   -1.141285   -0.407962
 C   -3.483731    0.175139   -0.102622
 C   -2.415446    0.495191    0.700186
 O   -4.929833   -1.166706   -1.192211
 C   -5.188999    0.191623   -1.530957
 O   -4.389101    1.016252   -0.688785
 H    0.364337    4.615016    0.627546
 H    1.684191    4.805624   -0.413858
 H    3.051521   -3.362600    0.508778
 H    5.065361   -3.324018   -0.956654
 H    5.763358   -1.213200   -2.061510
 H    4.436791    0.871348   -1.698490
 H   -0.538416    0.661192    2.591440
 H   -0.324224   -1.084517    2.828658
 H   -1.350458   -2.687868    1.269289
 H   -3.329049   -3.224745   -0.173816
 H   -2.141623    1.524618    0.910262
 H   -6.245438    0.413635   -1.358707
 H   -4.916811    0.366656   -2.581323
