42 
4cwq_ligand_ani.xyz
 C    3.764894   -0.044454   -0.560743
 C    4.519559   -0.872204    0.235229
 O    5.592324   -0.551629    1.021133
 C    5.892118   -1.734034    1.756518
 O    5.199198   -2.817822    1.146903
 C    4.279765   -2.239072    0.313194
 C    3.266307   -2.839505   -0.395855
 C    2.485272   -2.003965   -1.204649
 C    2.730973   -0.637380   -1.305584
 C    1.823762    0.215779   -2.168811
 C    0.589120    0.596174   -1.412450
 N   -0.471201   -0.130955   -1.415350
 C   -1.547847    0.263148   -0.635012
 C   -2.696665   -0.551053   -0.634514
 C   -3.773033   -0.193644    0.143172
 S   -5.198503   -1.254687    0.187122
 O   -5.243263   -2.000634   -1.060807
 O   -6.324644   -0.465402    0.659730
 N   -4.826194   -2.348814    1.395767
 C   -3.776516    0.975444    0.926030
 C   -2.655404    1.778369    0.929565
 C   -1.538371    1.428414    0.160779
 C   -0.337859    2.212381    0.137429
 N    0.021427    3.330672    0.739562
 N    0.676242    1.751880   -0.652299
 N    1.741125    2.603200   -0.567910
 C    1.283086    3.518335    0.277925
 N    2.062637    4.578840    0.677436
 H    3.931281    1.027795   -0.597508
 H    5.550605   -1.617096    2.795039
 H    6.967853   -1.922560    1.717366
 H    3.084385   -3.907436   -0.328744
 H    1.653528   -2.428946   -1.763046
 H    1.492940   -0.346202   -3.045643
 H    2.341321    1.117265   -2.504606
 H   -2.699919   -1.438460   -1.257220
 H   -4.773232   -3.287211    1.013784
 H   -5.498267   -2.277552    2.152326
 H   -4.658313    1.227952    1.505849
 H   -2.616784    2.687072    1.524348
 H    1.540265    5.369812    1.024263
 H    2.788238    4.824294    0.020386
