37 
4cwr_ligand_ani.xyz
 F    4.344465    0.942596   -1.606107
 C    3.949238   -0.193804   -1.024478
 C    4.679702   -1.341441   -1.230074
 C    4.255002   -2.532066   -0.613872
 C    3.131424   -2.562445    0.176220
 C    2.382362   -1.386744    0.381421
 C    2.801507   -0.181782   -0.222214
 N    1.243763   -1.478951    1.171987
 C    0.548461   -0.418045    1.374055
 N    0.914021    0.805382    0.836938
 N    0.274542    1.997756    1.010243
 C    1.035213    2.812740    0.290061
 N    0.733798    4.148225    0.157529
 N    2.104643    2.252831   -0.323265
 C    2.008869    0.986079    0.039232
 C   -0.737328   -0.431999    2.143191
 C   -1.917971   -0.635598    1.213476
 C   -2.229762   -1.921635    0.780133
 C   -3.283304   -2.168854   -0.109269
 C   -3.987694   -1.073817   -0.551367
 C   -3.675095    0.215191   -0.135764
 C   -2.648822    0.468706    0.741891
 O   -5.068001   -1.032220   -1.392630
 C   -5.263448    0.348103   -1.679247
 O   -4.547637    1.101707   -0.706055
 H    5.562817   -1.308913   -1.858305
 H    4.830655   -3.439837   -0.772607
 H    2.786053   -3.472201    0.656406
 H    0.190791    4.528720    0.918420
 H    1.517502    4.723652   -0.114429
 H   -0.841001    0.502323    2.699425
 H   -0.665695   -1.256828    2.856335
 H   -1.627877   -2.755386    1.136424
 H   -3.533930   -3.172766   -0.436975
 H   -2.382863    1.478490    1.039329
 H   -6.327409    0.586273   -1.612924
 H   -4.869620    0.574966   -2.681042
