37 
4cwr_ligand_dft.xyz
 F    4.394600    1.093410   -1.510543
 C    4.026842   -0.070228   -0.972959
 C    4.802823   -1.185858   -1.180377
 C    4.406847   -2.405943   -0.610314
 C    3.258875   -2.497564    0.147693
 C    2.461017   -1.358956    0.362041
 C    2.850808   -0.121759   -0.206458
 N    1.317243   -1.501049    1.125320
 C    0.563143   -0.473233    1.336345
 N    0.889736    0.759965    0.823393
 N    0.182094    1.915114    0.992079
 C    0.925021    2.775931    0.307926
 N    0.622457    4.107094    0.231710
 N    2.044646    2.272673   -0.286526
 C    2.000469    0.999830    0.054784
 C   -0.725597   -0.589661    2.097753
 C   -1.900720   -0.744047    1.147043
 C   -2.146286   -1.982325    0.557117
 C   -3.201890   -2.174700   -0.345389
 C   -3.982771   -1.076954   -0.626881
 C   -3.738490    0.161558   -0.047264
 C   -2.709121    0.365029    0.841657
 O   -5.080689   -0.992701   -1.438271
 C   -5.373117    0.395895   -1.526792
 O   -4.675371    1.059755   -0.481211
 H    5.703137   -1.101975   -1.778068
 H    5.018973   -3.287228   -0.773472
 H    2.940571   -3.433175    0.593061
 H   -0.342800    4.345245    0.402258
 H    1.049399    4.586978   -0.546090
 H   -0.859291    0.292969    2.728380
 H   -0.635137   -1.470685    2.736866
 H   -1.493563   -2.817036    0.795591
 H   -3.397336   -3.139414   -0.799129
 H   -2.510508    1.338999    1.273005
 H   -6.446843    0.549062   -1.401319
 H   -5.029865    0.780484   -2.497715
