37 
4cwr_ligand_xtb.xyz
 F    4.273203    1.159362   -1.559457
 C    3.927191   -0.015673   -1.011084
 C    4.715264   -1.117484   -1.241031
 C    4.362547   -2.343578   -0.675140
 C    3.239045   -2.462540    0.105220
 C    2.425216   -1.347171    0.348069
 C    2.775113   -0.094924   -0.218658
 N    1.316922   -1.506208    1.125337
 C    0.546056   -0.505336    1.375520
 N    0.814762    0.731266    0.881472
 N    0.122499    1.868492    1.060459
 C    0.819637    2.761131    0.368697
 N    0.513919    4.073937    0.320845
 N    1.919327    2.261697   -0.249393
 C    1.912075    0.991290    0.079153
 C   -0.709598   -0.673851    2.170469
 C   -1.853590   -0.806694    1.193068
 C   -2.134697   -2.039766    0.625652
 C   -3.152593   -2.201825   -0.310807
 C   -3.864971   -1.080255   -0.658795
 C   -3.578433    0.165678   -0.099152
 C   -2.579688    0.329986    0.827926
 O   -4.903730   -0.953415   -1.544203
 C   -5.263746    0.410583   -1.524066
 O   -4.429009    1.105008   -0.622426
 H    5.596523   -1.019675   -1.854679
 H    4.987137   -3.204286   -0.858691
 H    2.954613   -3.402931    0.548097
 H   -0.421194    4.335890    0.578939
 H    0.973366    4.604661   -0.398664
 H   -0.854210    0.204846    2.798630
 H   -0.617335   -1.572553    2.777955
 H   -1.545632   -2.896015    0.915067
 H   -3.373792   -3.161103   -0.747034
 H   -2.352337    1.295517    1.246797
 H   -6.314172    0.510073   -1.205481
 H   -5.150857    0.836883   -2.534069
