46 
4cws_ligand_ani.xyz
 O    7.051157   -2.180648   -1.235170
 C    6.746679   -2.309527    0.145818
 C    5.310562   -1.851210    0.325598
 N    5.175091   -0.530611   -0.238745
 C    3.954885    0.127113   -0.233607
 C    3.828952    1.308432   -1.009781
 C    2.655181    2.023707   -0.996621
 C    2.881995   -0.304671    0.524447
 C    1.678356    0.418966    0.542582
 C    1.567344    1.595430   -0.224400
 N    0.642019   -0.073479    1.325039
 C   -0.464726    0.579819    1.357494
 N   -0.644549    1.747341    0.630743
 N   -1.762058    2.531506    0.593460
 C    0.321938    2.295192   -0.163608
 N   -0.120176    3.406081   -0.724296
 C   -1.380384    3.498933   -0.232214
 N   -2.232938    4.520570   -0.581070
 C   -1.655826    0.105418    2.132596
 C   -2.538543   -0.779462    1.275951
 C   -3.615035   -0.227972    0.559701
 C   -4.345796   -1.081873   -0.230778
 O   -5.449282   -0.804575   -0.990707
 C   -5.691880   -1.986111   -1.747773
 O   -4.953715   -3.046913   -1.151461
 C   -4.044332   -2.435428   -0.329602
 C   -2.991053   -2.995589    0.353857
 C   -2.234194   -2.132553    1.156687
 H    7.994826   -2.338776   -1.353448
 H    7.404647   -1.672966    0.755406
 H    6.854202   -3.349888    0.485369
 H    5.069463   -1.819213    1.394592
 H    4.625358   -2.578375   -0.142181
 H    5.709013   -0.414718   -1.090433
 H    4.673227    1.647523   -1.605054
 H    2.550660    2.931929   -1.585580
 H    2.913105   -1.210506    1.120493
 H   -2.957370    4.697857    0.098849
 H   -1.767353    5.354334   -0.908183
 H   -2.215327    0.966979    2.504283
 H   -1.270782   -0.455751    2.987630
 H   -3.831667    0.834406    0.613729
 H   -5.349337   -1.836161   -2.782123
 H   -6.757838   -2.223675   -1.718544
 H   -2.761590   -4.053333    0.272479
 H   -1.374955   -2.524128    1.697412
