41 
4cxw_ligand_ani.xyz
 O   -7.506045    0.332493   -0.820780
 C   -6.625750    0.917843   -0.252219
 O   -6.898629    1.623372    0.875042
 C   -5.168662    0.899105   -0.668982
 C   -4.331871    0.018397    0.265007
 C   -2.854396    0.135126   -0.066866
 O   -2.412662    0.846583   -0.955819
 N   -2.030522   -0.599161    0.735455
 N   -0.681327   -0.617521    0.399387
 C   -0.018866   -1.795712    0.648572
 O   -0.553792   -2.688110    1.292040
 C    1.365646   -1.949972    0.088886
 C    1.801793   -3.273663   -0.017677
 N    2.962100   -3.652801   -0.542172
 C    3.760360   -2.676598   -0.973934
 C    3.450368   -1.325693   -0.878032
 C    2.243283   -0.921877   -0.307094
 C    1.949137    0.568004   -0.155400
 C    3.174382    1.439257    0.017166
 C    3.917255    1.376862    1.199246
 C    5.049236    2.166751    1.372783
 C    5.454459    3.037406    0.364414
 C    4.719770    3.114231   -0.815046
 C    3.585923    2.321935   -0.982667
 H   -6.103838    2.076138    1.189037
 H   -4.750525    1.912430   -0.671904
 H   -5.107729    0.520964   -1.690640
 H   -4.639827   -1.033531    0.188517
 H   -4.479037    0.307591    1.315461
 H   -2.332290   -1.445973    1.205761
 H   -0.505520   -0.107696   -0.462740
 H    1.144312   -4.062112    0.342524
 H    4.706302   -2.991378   -1.410666
 H    4.163043   -0.584393   -1.227109
 H    1.282348    0.726676    0.698464
 H    1.409195    0.913702   -1.048508
 H    3.601055    0.695935    1.988484
 H    5.616029    2.103538    2.298717
 H    6.338846    3.654992    0.499198
 H    5.026759    3.792574   -1.607963
 H    3.015731    2.383794   -1.908130
