53 
4cxx_ligand_xtb.xyz
 O    8.416168   -2.402458   -0.766815
 C    7.427724   -2.040617    0.070591
 O    7.388205   -2.452405    1.192024
 C    6.404130   -1.100023   -0.535216
 C    5.355146   -0.668355    0.484786
 C    4.131774   -0.107997   -0.210467
 O    3.920205   -0.173316   -1.407105
 N    3.243492    0.465247    0.627369
 N    2.072958    1.033257    0.125838
 C    1.301930    1.802192    0.937663
 O    1.576186    1.941530    2.114545
 C    0.151358    2.449043    0.254998
 C   -0.020258    3.820008    0.460962
 N   -0.978182    4.531280   -0.093255
 C   -1.834911    3.902734   -0.882941
 C   -1.778988    2.543758   -1.133564
 C   -0.770503    1.778426   -0.552773
 C   -0.758122    0.288617   -0.767795
 C   -2.127088   -0.284883   -0.501985
 C   -2.659743   -0.235602    0.777856
 C   -3.917881   -0.744526    1.044129
 C   -4.689351   -1.320566    0.041387
 C   -6.073679   -1.898523    0.288872
 C   -6.512786   -1.772585    1.750122
 C   -7.091574   -1.150576   -0.583851
 C   -6.066372   -3.388494   -0.081252
 C   -4.147612   -1.360701   -1.240260
 C   -2.891626   -0.851346   -1.510459
 H    8.322744   -2.014690   -1.646922
 H    5.899548   -1.610924   -1.361846
 H    6.913838   -0.226924   -0.951240
 H    5.766051    0.070531    1.173406
 H    5.058154   -1.537928    1.076707
 H    3.357956    0.617461    1.622194
 H    2.008456    0.978932   -0.882990
 H    0.663040    4.355077    1.106704
 H   -2.606945    4.520993   -1.320959
 H   -2.519728    2.070639   -1.759801
 H   -0.036070   -0.184963   -0.100603
 H   -0.466526    0.074411   -1.799875
 H   -2.082569    0.207066    1.577696
 H   -4.286521   -0.683432    2.054766
 H   -5.833856   -2.307185    2.410469
 H   -6.562389   -0.730170    2.056245
 H   -7.504535   -2.204376    1.868601
 H   -7.076336   -0.087550   -0.352045
 H   -6.873266   -1.272284   -1.641194
 H   -8.094058   -1.529940   -0.397957
 H   -5.822108   -3.536294   -1.129506
 H   -5.331179   -3.921034    0.518488
 H   -7.045275   -3.825074    0.104874
 H   -4.709538   -1.796606   -2.052590
 H   -2.502289   -0.900921   -2.518286
