24 
4d1b_ligand_ani.xyz
 N   -1.186456    0.920217   -0.226039
 C   -2.529245    1.214753   -0.235646
 O   -3.058309    2.293463   -0.356881
 N   -3.182106   -0.014108   -0.055243
 C   -2.319388   -1.086729    0.010767
 O   -2.606731   -2.240270    0.224229
 C   -0.926940   -0.508461   -0.264952
 C    0.126146   -0.982868    0.740160
 C    1.498745   -0.457567    0.393660
 C    3.585817   -0.648112   -0.823575
 C    1.929216    0.773590    0.893173
 C    3.175123    1.287737    0.546291
 C    4.007012    0.577168   -0.314541
 C    2.340421   -1.159915   -0.471187
 H   -0.546679    1.582726   -0.631413
 H   -4.182265   -0.088989    0.054408
 H   -0.632234   -0.832181   -1.272974
 H    0.109914   -2.077437    0.749599
 H   -0.170606   -0.638266    1.736100
 H    4.229798   -1.208475   -1.497135
 H    1.273675    1.335133    1.557414
 H    3.496396    2.245184    0.948768
 H    4.980347    0.977019   -0.587692
 H    2.020476   -2.120600   -0.871777
