25 
4d1j_ligand_xtb.xyz
 C    0.403329    1.695387    0.152131
 C    1.582036    0.714953    0.272485
 O    2.703648    1.415470   -0.188168
 C    1.328893   -0.573360   -0.560385
 O    2.243097   -1.579069   -0.200002
 C   -0.071964   -1.142512   -0.242596
 O   -0.172234   -1.447674    1.127990
 C   -1.141466   -0.087782   -0.521893
 N   -0.867986    1.014214    0.436016
 C   -2.574767   -0.564062   -0.257773
 O   -3.354677    0.610346   -0.162882
 H    0.393453    2.100947   -0.861949
 H    0.559904    2.521297    0.847675
 H    1.705548    0.411270    1.322845
 H    3.517975    1.010111    0.129339
 H    1.396147   -0.329858   -1.627680
 H    3.071995   -1.479742   -0.679263
 H   -0.238132   -2.037477   -0.855530
 H    0.525753   -2.080122    1.344200
 H   -1.061914    0.305435   -1.538197
 H   -1.690170    1.637051    0.420198
 H   -0.815385    0.547332    1.357539
 H   -2.608831   -1.135227    0.678935
 H   -2.904220   -1.207189   -1.078737
 H   -4.291259    0.388349   -0.178801
