47 
4d1y_ligand_xtb.xyz
 N    0.971941   -2.436826   -0.449165
 C    1.745644   -3.521212   -0.173267
 O    1.346193   -4.655804   -0.252114
 N    3.074805   -3.275644    0.221551
 C    3.690211   -2.065762    0.416964
 O    4.840824   -1.972157    0.769140
 C    2.783397   -0.917484    0.154156
 N    3.203607    0.292047    0.344424
 C    2.348029    1.313378    0.138344
 C    2.774786    2.619782    0.424484
 C    1.938773    3.697389    0.265646
 C    2.412338    5.080974    0.578217
 C    0.614310    3.478141   -0.180572
 C   -0.330126    4.626909   -0.318596
 C    0.180932    2.203010   -0.485023
 C    1.030709    1.102432   -0.353513
 N    0.655324   -0.181159   -0.659350
 C    1.453320   -1.229677   -0.315799
 C   -0.597970   -0.476887   -1.322724
 C   -1.722967   -0.825542   -0.326846
 O   -1.847283   -2.200048   -0.117395
 C   -3.055690   -0.285804   -0.866976
 O   -2.990669    1.121347   -0.879687
 C   -4.270718   -0.752956   -0.049523
 O   -5.370979   -0.014442   -0.540022
 C   -4.110724   -0.507486    1.454949
 O   -5.386279   -0.696290    2.039738
 H    3.634901   -4.103643    0.395053
 H    3.784002    2.737606    0.785795
 H    1.812295    5.521217    1.373565
 H    2.323622    5.723104   -0.296887
 H    3.450936    5.066381    0.895292
 H   -0.434558    5.151425    0.630022
 H    0.046962    5.342383   -1.048326
 H   -1.309555    4.283644   -0.639030
 H   -0.845898    2.063573   -0.784155
 H   -0.433571   -1.343460   -1.968266
 H   -0.885838    0.380927   -1.927382
 H   -1.508863   -0.303542    0.623077
 H   -0.959607   -2.605563   -0.167697
 H   -3.197012   -0.660056   -1.893089
 H   -3.912437    1.414942   -0.948190
 H   -4.423006   -1.826343   -0.216899
 H   -6.080394   -0.128503    0.105995
 H   -3.763938    0.521481    1.628518
 H   -3.382111   -1.216709    1.857034
 H   -5.295623   -0.703855    2.996564
