34 
4d2d_ligand_ani.xyz
 N    1.064569   -1.989907   -0.448195
 C    2.438215   -1.487273   -0.056016
 C    2.130523   -0.221673    0.753361
 O    1.787944   -0.320224    1.917534
 C    3.342307   -1.305071   -1.262285
 N    2.109749    0.990370    0.086852
 C    0.951134    1.824685    0.377002
 C   -0.303432    1.100355   -0.153023
 O   -0.265829    0.410083   -1.169108
 C    1.095143    3.202896   -0.253682
 N   -1.440487    1.247618    0.573024
 C   -2.626337    0.460903    0.282146
 C   -2.320139   -1.036263    0.379512
 O   -1.314581   -1.522450    0.847592
 C   -3.274040    0.839321   -1.052612
 O   -3.337435   -1.786528   -0.064357
 H    0.454563   -1.983440    0.393730
 H    1.083778   -2.943572   -0.854550
 H    0.635204   -1.316883   -1.120357
 H    2.870309   -2.188345    0.657745
 H    3.628532   -2.276911   -1.676517
 H    2.847170   -0.737295   -2.058044
 H    4.259357   -0.782538   -0.978993
 H    2.318928    0.942685   -0.903471
 H    0.884068    1.903135    1.466239
 H    0.238301    3.836306   -0.001573
 H    1.152328    3.127620   -1.346318
 H    2.006190    3.684384    0.112054
 H   -1.380627    1.724661    1.460189
 H   -3.336598    0.656524    1.093861
 H   -2.603429    0.608857   -1.882739
 H   -3.476461    1.913028   -1.059300
 H   -4.210228    0.293192   -1.184168
 H   -3.069222   -2.712290    0.060749
