45 
4d4d_ligand_ani.xyz
 O    4.461499   -1.380295   -0.795459
 C    3.399323   -1.123366    0.114219
 C    3.638608    0.325897    0.564482
 O    2.762778    0.730706    1.625737
 C    3.408245    1.288248   -0.592998
 N    2.027995    1.123704   -1.139474
 C    1.771549   -0.272137   -1.611378
 C    2.029549   -1.351412   -0.548429
 C    0.951608   -1.503815    0.520104
 O   -0.340896   -1.579852   -0.082239
 C   -1.364042   -1.276327    0.824552
 C   -2.712015   -1.522148    0.132132
 C   -3.085910   -0.389040   -0.823211
 C   -2.849356    0.980163   -0.177726
 C   -1.405970    1.021183    0.280305
 C   -0.883761    2.338378    0.820094
 O   -3.758804   -1.543446    1.101025
 O   -4.425473   -0.497908   -1.252283
 O   -3.088757    1.991122   -1.132839
 O   -1.249616    0.037404    1.308534
 O    0.544488    2.337735    0.732772
 H    4.391207   -2.296364   -1.094790
 H    3.480521   -1.786787    0.994534
 H    4.683410    0.404549    0.891307
 H    3.077025    0.331472    2.447123
 H    4.144483    1.084484   -1.373184
 H    3.533254    2.313246   -0.242736
 H    1.339610    1.444567   -0.414822
 H    1.932600    1.765636   -1.941246
 H    2.435916   -0.474840   -2.456405
 H    0.743782   -0.333286   -1.965944
 H    2.075712   -2.308711   -1.087594
 H    1.142881   -2.425690    1.096554
 H    0.996299   -0.667474    1.220319
 H   -1.283993   -1.927306    1.707472
 H   -2.666196   -2.467179   -0.423772
 H   -2.463667   -0.449490   -1.724157
 H   -3.508730    1.094379    0.699081
 H   -0.777570    0.761801   -0.582784
 H   -1.236192    3.168250    0.200360
 H   -1.224967    2.488624    1.852086
 H   -3.696614   -2.362966    1.605707
 H   -4.934235   -0.745904   -0.464106
 H   -3.946668    1.772903   -1.525425
 H    0.937449    1.892702    1.503889
