40 
4d62_ligand_dft.xyz
 C   -2.899581   -0.123412    0.975443
 C   -2.505161    0.391368   -0.426364
 C   -2.002614    1.823533   -0.441142
 C   -0.610105    2.004040    0.166169
 C    0.364006    0.953898   -0.393168
 C   -0.230499   -0.453655   -0.251425
 C    0.538663   -1.582581   -0.953065
 C    1.905384   -2.019005   -0.403980
 C    1.896367   -2.451795    1.064568
 C    2.615544    1.891729   -0.081304
 C    3.943829    1.730476    0.624305
 N    1.651257    1.013268    0.276374
 O   -3.717991   -1.190017    0.873876
 O   -2.509599    0.302502    2.032861
 O   -3.581371    0.303297   -1.286623
 O   -0.189458    3.320995   -0.092811
 O   -1.500110   -0.496471   -0.909153
 O   -0.252394   -2.760840   -0.910384
 O    2.357870   -3.103566   -1.185756
 O    1.799241   -1.304453    1.904901
 O    2.438147    2.757629   -0.936986
 H   -1.963133    2.121832   -1.493522
 H   -2.714531    2.479587    0.066172
 H   -0.666017    1.851899    1.252736
 H    0.525464    1.161616   -1.459006
 H   -0.353818   -0.700653    0.811800
 H    0.696418   -1.276661   -1.998812
 H    2.629461   -1.210560   -0.532737
 H    2.834388   -2.987020    1.251773
 H    1.055655   -3.135838    1.235162
 H    4.191272    2.666308    1.132091
 H    3.948768    0.910288    1.347108
 H    4.715867    1.551294   -0.129088
 H    1.812348    0.365978    1.042169
 H   -3.909655   -1.491062    1.776413
 H   -3.974141   -0.575516   -1.186581
 H    0.674736    3.298257   -0.542521
 H   -1.141514   -2.495410   -1.183934
 H    1.580325   -3.661427   -1.336843
 H    1.649614   -1.585978    2.813382
