72 
4d88_ligand_ani.xyz
 F   -3.065706   -1.139791   -3.534299
 C   -3.476193   -0.877327   -2.273306
 F   -2.396878   -0.956391   -1.488292
 F   -3.915564    0.396440   -2.246862
 C   -4.586221   -1.843040   -1.878195
 O   -4.041714   -3.143747   -1.798142
 C   -5.262845   -1.471556   -0.555110
 C   -4.332474   -1.254852    0.613923
 C   -3.814228   -2.348352    1.325736
 C   -2.987832   -2.069962    2.421957
 C   -2.607720   -0.795690    2.782367
 C   -3.067682    0.298919    2.035898
 C   -3.964348    0.033329    0.997996
 C   -2.612963    1.714447    2.319562
 C   -1.547152    2.277788    1.351240
 C   -0.307459    1.380745    1.222976
 C    0.838049    2.059629    0.450905
 C    0.496931    2.352218   -1.007751
 S   -0.927917    3.435949   -1.072307
 C   -2.106138    2.535122   -0.058445
 O   -0.577839    4.657656   -0.345956
 O   -1.422916    3.494097   -2.441531
 N    2.021559    1.177430    0.632307
 C    3.345794    1.806699    0.465871
 C    4.446147    0.803096    0.741576
 C    4.945438    0.003031   -0.286272
 C    5.918329   -0.974931   -0.063565
 C    6.405788   -1.124418    1.238165
 C    5.929885   -0.326414    2.273181
 C    4.954964    0.632717    2.030591
 C    6.390631   -1.831759   -1.245199
 C    6.963297   -0.922815   -2.347354
 C    7.481741   -2.831225   -0.843828
 C    5.200664   -2.627975   -1.811197
 O    0.304058    1.064475    2.476324
 F   -2.535788   -3.133870    3.128202
 N   -4.168996   -3.655842    1.052449
 H   -5.339678   -1.791017   -2.673317
 H   -3.619956   -3.350796   -2.644105
 H   -5.843099   -0.557223   -0.719703
 H   -5.983816   -2.265041   -0.324249
 H   -1.974399   -0.684440    3.659672
 H   -4.386112    0.873692    0.448083
 H   -3.479424    2.388767    2.292857
 H   -2.216441    1.775861    3.339907
 H   -1.225723    3.242892    1.760335
 H   -0.605339    0.444384    0.710876
 H    1.050062    3.010282    0.946459
 H    0.263808    1.448990   -1.582184
 H    1.299489    2.896828   -1.514778
 H   -2.349604    1.612185   -0.600504
 H   -2.990938    3.180452   -0.036576
 H    1.953504    0.359771   -0.018676
 H    1.910417    0.821761    1.612855
 H    3.450048    2.199396   -0.553038
 H    3.428496    2.657656    1.149758
 H    4.559219    0.148293   -1.294349
 H    7.165754   -1.869570    1.452108
 H    6.325168   -0.460782    3.276914
 H    4.581871    1.251480    2.844517
 H    7.821187   -0.352337   -1.972961
 H    6.222812   -0.207309   -2.718198
 H    7.298660   -1.526163   -3.198836
 H    8.370400   -2.322126   -0.452311
 H    7.790284   -3.413760   -1.718850
 H    7.123570   -3.537052   -0.085148
 H    4.391341   -1.971991   -2.147503
 H    5.520600   -3.231928   -2.668227
 H    4.789077   -3.302611   -1.051613
 H   -0.270526    0.451900    2.948105
 H   -4.260275   -3.873406    0.067379
 H   -3.625408   -4.335231    1.564293
