33 
4d8a_ligand_xtb.xyz
 O    2.651245    1.452465   -1.948627
 N    4.795528   -1.710513    0.598927
 C    1.449040    0.465895   -0.154379
 C    2.594285    0.663423   -1.014551
 N    2.637150   -1.204820    1.133242
 C   -3.059973   -0.689214   -0.410948
 N   -0.626361   -0.020227    1.520778
 C   -0.791354    0.853515    0.546874
 C   -3.973934   -2.722924   -1.133271
 C    1.511027   -0.471496    0.909678
 C    0.256173    1.172807   -0.344523
 C   -3.226481    0.432683    0.584775
 N    0.477183   -0.666225    1.720555
 C    3.650137   -1.030077    0.358182
 C   -2.301284    2.602647    1.461846
 N    3.670698   -0.140063   -0.695124
 O   -2.175137   -0.791060   -1.219618
 O   -4.043200   -1.589299   -0.279871
 C   -2.144135    1.499693    0.414455
 O    0.111192    2.089164   -1.295429
 H    4.730022   -2.434942    1.293312
 H    5.495077   -1.802491   -0.116579
 H   -4.863292   -3.313061   -0.928303
 H   -3.072685   -3.300951   -0.919239
 H   -3.951227   -2.410721   -2.179430
 H   -4.223984    0.859427    0.471631
 H   -3.150556   -0.003660    1.582389
 H   -2.183501    2.184424    2.458363
 H   -3.283768    3.061658    1.383343
 H   -1.547244    3.371996    1.314700
 H    4.503730   -0.031017   -1.261345
 H   -2.209220    1.933634   -0.587292
 H    0.943455    2.126750   -1.820664
