76 
4d8i_ligand_ani.xyz
 C    4.619127    1.575111   -0.344330
 O    3.661159    1.796028   -1.084285
 C    5.025508    2.514966    0.768443
 N    5.356492    0.442942   -0.464668
 C    4.978598   -0.627509   -1.380466
 C    3.939302   -1.547595   -0.709960
 O    4.216015   -2.680749   -0.338268
 C    6.196817   -1.418891   -1.822429
 N    2.707323   -1.008941   -0.528465
 C    1.674022   -1.753737    0.151373
 C    0.299145   -1.193589   -0.262704
 O    0.177215   -0.238890   -1.022979
 C    1.926162   -1.813538    1.671546
 C    1.870068   -0.464242    2.398458
 C    0.463526    0.087539    2.435132
 O   -0.390408   -0.772491    2.982770
 O    0.126959    1.165811    1.980674
 N   -0.778912   -1.863838    0.223449
 C   -2.124068   -1.625063   -0.264202
 C   -2.849956   -0.525446    0.531876
 O   -2.763992   -0.385423    1.752558
 C   -2.942564   -2.938236   -0.292252
 C   -4.215653   -2.838330   -1.142177
 C   -3.283605   -3.449887    1.110473
 C   -3.975390   -2.578394   -2.628066
 C   -5.280851    1.984337   -0.664159
 N   -3.656183    0.270872   -0.208959
 O   -4.699714    2.015032   -1.959577
 C   -4.220987    1.505826    0.318146
 C   -3.152319    2.564922    0.657024
 C   -0.988032    3.763841    0.111582
 C    0.323581    3.690418   -0.674230
 C   -2.034066    2.757277   -0.370419
 N    1.015177    2.398073   -0.443590
 H    6.108539    2.535210    0.916575
 H    4.560989    2.193586    1.708250
 H    4.669665    3.519884    0.536951
 H    6.048475    0.232785    0.240407
 H    4.505547   -0.125072   -2.231722
 H    6.662084   -1.916903   -0.966390
 H    6.924523   -0.752199   -2.294264
 H    5.910103   -2.192611   -2.540045
 H    2.487777   -0.077918   -0.864532
 H    1.729404   -2.791300   -0.202990
 H    1.213469   -2.503853    2.133110
 H    2.921100   -2.247667    1.795028
 H    2.205347   -0.603663    3.432659
 H    2.529555    0.271511    1.927043
 H   -1.306212   -0.483514    2.754218
 H   -0.666453   -2.462440    1.027547
 H   -1.999552   -1.255710   -1.286719
 H   -2.280399   -3.672130   -0.774775
 H   -4.752656   -3.790090   -1.039346
 H   -4.878688   -2.070845   -0.723775
 H   -3.975536   -2.770219    1.618553
 H   -3.759628   -4.434364    1.047652
 H   -2.396818   -3.553977    1.747488
 H   -3.517025   -1.599894   -2.812636
 H   -4.916729   -2.603458   -3.186664
 H   -3.312077   -3.338221   -3.058189
 H   -6.135331    1.291778   -0.632927
 H   -5.641297    2.980796   -0.365276
 H   -3.611129    0.221329   -1.218799
 H   -5.373432    2.310988   -2.583291
 H   -4.723565    1.262674    1.258897
 H   -2.703385    2.265971    1.611883
 H   -3.667514    3.519051    0.840053
 H   -0.757087    3.583434    1.170590
 H   -1.386861    4.783599    0.046742
 H    0.133307    3.803542   -1.746427
 H    0.986716    4.504683   -0.368147
 H   -1.551042    1.790325   -0.552454
 H   -2.443188    3.073538   -1.337234
 H    0.914790    2.106655    0.539909
 H    0.610818    1.641929   -1.013938
 H    2.018056    2.465811   -0.676486
