55 
4dbm_ligand_ani.xyz
 C    0.361705   -1.607557    0.355615
 C    2.626881   -0.496612    0.652793
 C    5.161239   -0.337955    0.914877
 C    4.013443    1.638096    0.455195
 C    2.683368    0.958541    0.124247
 C    5.014989    0.382654   -1.551266
 C   -2.786381    1.198833   -1.580279
 O   -2.297543    1.915547   -2.443200
 N   -3.844618    1.661079   -0.774344
 C   -4.327261    3.011302   -1.026611
 C   -2.330457   -0.157286   -1.320537
 C   -2.908498   -0.916541   -0.360840
 C   -3.980004   -0.410891    0.470785
 C   -4.575740   -1.177025    1.490376
 C   -5.584628   -0.651371    2.266313
 C   -6.023684    0.658188    2.035823
 C   -5.457596    1.427173    1.036914
 C   -4.425925    0.906261    0.235121
 O   -2.531363   -2.194287   -0.084248
 C   -1.560032   -2.794940   -0.931182
 C   -0.188474   -2.220693   -0.742393
 N    0.715097   -2.197712   -1.750636
 N    1.795660   -1.605738   -1.324049
 N    1.600524   -1.253586   -0.058020
 C    4.301952    1.560685    1.935143
 C    4.959954    0.432027    2.197584
 N    5.172506    0.798666   -0.140346
 C    6.444954    1.562830   -0.048086
 C    3.970855   -1.263400    0.649665
 H   -0.028193   -1.382815    1.339188
 H    2.308459   -0.434049    1.693841
 H    6.104809   -0.887998    0.868447
 H    4.049690    2.652172    0.047992
 H    2.519722    0.985148   -0.956966
 H    1.865948    1.527794    0.577946
 H    4.113244   -0.208523   -1.719978
 H    5.876871   -0.224128   -1.865360
 H    4.962626    1.267233   -2.203707
 H   -3.749944    3.408433   -1.859153
 H   -5.390566    3.002273   -1.291843
 H   -4.182136    3.650464   -0.147889
 H   -1.492961   -0.493265   -1.921711
 H   -4.221212   -2.191151    1.649237
 H   -6.038188   -1.247934    3.053968
 H   -6.819343    1.078097    2.646674
 H   -5.818276    2.437834    0.879046
 H   -1.842631   -2.694213   -1.985974
 H   -1.588934   -3.856924   -0.672708
 H    3.955937    2.293917    2.655272
 H    5.257207    0.064174    3.173485
 H    6.635257    1.907742    0.970340
 H    7.283023    0.925280   -0.360939
 H    6.398120    2.439765   -0.708196
 H    4.119455   -1.791456   -0.295334
 H    3.935133   -2.030814    1.430118
