55 
4dbm_ligand_xtb.xyz
 C    0.242698   -2.243373    0.891138
 C    2.400294   -1.001864    1.229663
 C    4.466284    0.198219    0.227291
 C    2.633306    1.513380    0.629444
 C    1.704059    0.375723    1.040953
 C    2.754832    0.419210   -1.610487
 C   -1.191458    1.040788   -1.028942
 O   -0.119314    1.564415   -1.363009
 N   -2.235314    1.809867   -0.570611
 C   -2.093867    3.249017   -0.658792
 C   -1.375677   -0.381809   -1.027008
 C   -2.430805   -0.977205   -0.407749
 C   -3.488900   -0.141544    0.105116
 C   -4.634109   -0.694778    0.691569
 C   -5.659872    0.110002    1.122586
 C   -5.557954    1.490275    0.972044
 C   -4.438859    2.058008    0.405711
 C   -3.378848    1.256961   -0.038037
 O   -2.597090   -2.294096   -0.183619
 C   -1.637527   -3.245703   -0.616259
 C   -0.242276   -2.900592   -0.222745
 N    0.775201   -3.010661   -1.103617
 N    1.815248   -2.457635   -0.620953
 N    1.536743   -1.977870    0.591278
 C    3.644453    1.749828    1.720259
 C    4.705511    0.996637    1.485618
 N    3.494611    1.069043   -0.513430
 C    4.184408    2.239114   -1.087259
 C    3.820394   -1.131957    0.627280
 H   -0.219033   -1.955340    1.810655
 H    2.435956   -1.237313    2.298066
 H    5.359375    0.019372   -0.372950
 H    2.040951    2.383203    0.341655
 H    0.924577    0.289258    0.283301
 H    1.213965    0.666567    1.971018
 H    2.470539   -0.602721   -1.374287
 H    3.377791    0.392299   -2.501070
 H    1.846268    0.990512   -1.819306
 H   -1.124070    3.448416   -1.112490
 H   -2.874925    3.672873   -1.289580
 H   -2.131333    3.704658    0.331295
 H   -0.597340   -0.939984   -1.519636
 H   -4.691827   -1.767180    0.784933
 H   -6.541324   -0.321903    1.568832
 H   -6.363993    2.126959    1.302725
 H   -4.392756    3.129033    0.305056
 H   -1.661290   -3.354157   -1.707627
 H   -1.963266   -4.185815   -0.161402
 H    3.459745    2.403384    2.550512
 H    5.592380    0.887478    2.079100
 H    4.681474    2.814506   -0.309375
 H    4.926498    1.911426   -1.812758
 H    3.453853    2.870044   -1.590104
 H    3.768347   -1.805328   -0.229742
 H    4.478738   -1.602035    1.359171
