61 
4ddl_ligand_xtb.xyz
 C    8.157883    1.352055   -0.069330
 O    6.832049    1.816084   -0.156050
 C    5.833134    0.903585   -0.101795
 C    5.991016   -0.445707    0.036460
 C    4.512047    1.460393   -0.221862
 O    4.484994    2.805038   -0.388301
 C    3.236506    3.437135   -0.522328
 C    3.415014    0.645626   -0.169142
 C    3.558116   -0.747849    0.008143
 C    4.866218   -1.301946    0.082920
 N    5.083554   -2.622602    0.189144
 N    4.097806   -3.444439    0.214113
 C    2.842740   -3.009031    0.168516
 C    2.488546   -1.667484    0.085307
 C    1.085212   -1.262066    0.084489
 C    0.599248   -0.259279    0.929095
 C   -0.730793    0.109523    0.911577
 C   -1.237226    1.088372    1.929745
 C    0.143834   -1.903213   -0.714574
 N   -1.122687   -1.552099   -0.769065
 C   -1.572511   -0.545541   -0.017608
 N   -2.915933   -0.261990   -0.119473
 C   -3.760305   -1.240702   -0.777860
 C   -5.176029   -1.116342   -0.222765
 C   -3.366834    1.087193   -0.389602
 C   -4.774769    1.296683    0.166389
 C   -5.725066    0.289149   -0.478796
 C   -7.206927    0.425609   -0.057351
 C   -7.731251    1.837740   -0.356670
 C   -7.452877    0.100296    1.420318
 O   -7.895545   -0.512041   -0.875451
 H    8.341995    0.842085    0.881419
 H    8.399368    0.675458   -0.895001
 H    8.784343    2.240146   -0.132308
 H    6.958695   -0.912889    0.106435
 H    2.694948    3.076433   -1.403008
 H    2.615513    3.292648    0.368101
 H    3.455043    4.496945   -0.641824
 H    2.420546    1.045898   -0.283193
 H    2.088020   -3.781036    0.226388
 H    1.266109    0.194838    1.650626
 H   -0.642518    1.009273    2.838419
 H   -1.157990    2.117221    1.575043
 H   -2.276254    0.881145    2.172667
 H    0.429005   -2.719133   -1.366148
 H   -3.353271   -2.231281   -0.576836
 H   -3.763617   -1.088415   -1.866208
 H   -5.143645   -1.311355    0.849776
 H   -5.825114   -1.852021   -0.695575
 H   -3.388636    1.254856   -1.479490
 H   -2.675900    1.808779    0.040809
 H   -5.083473    2.320498   -0.043983
 H   -4.755747    1.153518    1.247708
 H   -5.717522    0.452950   -1.562739
 H   -7.300033    2.565686    0.323606
 H   -7.495307    2.119002   -1.380003
 H   -8.813731    1.861769   -0.237397
 H   -7.238296   -0.946009    1.618073
 H   -6.834493    0.720118    2.062156
 H   -8.496714    0.287485    1.669322
 H   -8.832042   -0.484539   -0.651098
