45 
4deg_ligand_xtb.xyz
 C    4.430603    2.028419   -0.628582
 C    3.026500    2.043400   -0.135210
 C    1.878445    1.872672   -0.938769
 N    2.781823    2.202619    1.145298
 S    1.200637    2.121085    1.485343
 C    0.743860    1.887956   -0.164887
 C   -0.640263    1.691944   -0.529423
 C   -1.164872    2.127966   -1.785728
 C   -2.486389    1.953533   -2.065027
 N   -1.372744    1.098190    0.374687
 N   -2.633354    0.868431    0.056853
 C   -3.271559    1.278685   -1.110518
 N   -4.518621    0.862312   -1.079375
 N   -4.691546    0.173780    0.043196
 C   -3.577567    0.165087    0.736357
 C   -3.273656   -0.603692    1.980665
 N   -1.934234   -1.150945    1.942055
 C   -1.435966   -1.719290    0.808234
 C   -2.204714   -2.315217   -0.180881
 C   -1.574857   -2.825553   -1.316442
 N   -0.285952   -2.786294   -1.547865
 C    0.495597   -2.235843   -0.597966
 C    1.889117   -2.165153   -0.805284
 C   -0.022979   -1.696823    0.604750
 N    0.766462   -1.126167    1.535757
 C    2.048794   -1.077864    1.326228
 C    2.675948   -1.583726    0.159702
 O    4.024439   -1.432872    0.102291
 C    4.702296   -1.980906   -1.004980
 H    4.813551    1.009261   -0.586082
 H    4.482502    2.382600   -1.655069
 H    5.053215    2.648443    0.010062
 H    1.896309    1.723247   -2.002667
 H   -0.504054    2.618516   -2.481460
 H   -2.942957    2.287035   -2.982091
 H   -4.018027   -1.402524    2.069071
 H   -3.359036    0.038835    2.860412
 H   -1.217373   -0.650676    2.452187
 H   -3.278021   -2.373141   -0.096583
 H   -2.171282   -3.279975   -2.097708
 H    2.278979   -2.577501   -1.721967
 H    2.657709   -0.614195    2.089891
 H    4.541451   -3.060742   -1.075279
 H    4.389279   -1.507477   -1.941317
 H    5.759196   -1.783141   -0.832886
