29 
4des_ligand_ani.xyz
 C   37.997141   34.721297   29.321122
 C   37.169679   34.154856   30.221800
 C   36.902274   34.736076   31.532109
 C   37.661479   35.991130   31.780704
 C   37.619888   36.712678   32.992424
 C   38.344304   37.888583   33.156291
 C   39.133002   38.375513   32.110450
 C   39.203343   37.693402   30.906449
 C   38.473777   36.520417   30.772942
 O   38.600739   35.916928   29.554335
 O   36.131745   34.220305   32.322194
 O   36.859761   36.236644   33.997179
 O   39.854094   39.517403   32.221727
 C   38.816635   35.022172   26.975648
 C   39.094626   34.519660   25.711099
 C   38.889451   33.170281   25.432283
 C   38.404758   32.324353   26.425586
 C   38.118750   32.825357   27.690278
 C   38.319001   34.178905   27.976751
 H   36.638127   33.242523   29.989885
 H   38.293411   38.427301   34.102422
 H   39.808998   38.057487   30.087256
 H   36.935465   36.831845   34.754868
 H   39.723340   39.894796   33.100872
 H   38.978890   36.071536   27.201238
 H   39.476277   35.183578   24.938836
 H   39.109623   32.779043   24.442629
 H   38.245063   31.269791   26.215683
 H   37.759358   32.148142   28.460941
