37 
4dff_ligand_xtb.xyz
 C   -0.766911   -0.690826   -0.361135
 C   -2.974744    0.842038    0.315180
 C    2.097818   -1.402168    0.987830
 C    2.021743    3.034319   -0.351121
 C    4.002760   -2.310857    0.454035
 C   -0.604652    0.661154   -0.050329
 C   -1.720332    1.434872    0.267702
 C   -2.011935   -1.284726   -0.308958
 C   -3.139866   -0.506176    0.044785
 C    2.012135    0.921723   -0.037575
 C    0.681536    1.318257   -0.093372
 C    2.588855   -0.365219    0.236458
 C   -1.523351    2.897390    0.567068
 C   -0.469261    3.477091   -0.377549
 C   -1.174691   -3.426726   -0.900366
 C   -5.484422   -0.462906    0.430422
 N    2.900892   -2.480803    1.091196
 N    2.816544    2.012197   -0.214706
 N    0.721274    2.678363   -0.275948
 O   -2.261819   -2.593520   -0.577372
 O   -4.324696   -1.172792    0.077315
 S    4.167892   -0.781062   -0.349559
 H    0.099796   -1.256776   -0.656390
 H   -3.825269    1.454145    0.571750
 H    1.154986   -1.398154    1.504038
 H    2.347497    4.044460   -0.500707
 H    4.782506   -3.044175    0.405950
 H   -1.178646    3.013923    1.600214
 H   -2.460044    3.444322    0.458706
 H   -0.229926    4.512156   -0.121693
 H   -0.841472    3.447655   -1.410295
 H   -0.690334   -3.114179   -1.831512
 H   -0.430662   -3.453280   -0.097684
 H   -1.598535   -4.420807   -1.032383
 H   -5.408707   -0.039686    1.437883
 H   -5.701813    0.338340   -0.284333
 H   -6.292590   -1.192191    0.407622
