32 
4dfu_ligand_dft.xyz
 C    4.543022   -0.535463   -0.000101
 C    3.782237    0.620677    0.000024
 C    2.361805    0.535294    0.000067
 C    1.762434   -0.730018   -0.000071
 C    2.512742   -1.899169   -0.000211
 C    3.902530   -1.780285   -0.000210
 C    1.527092    1.699177    0.000123
 C    0.092605    1.472080    0.000115
 C   -0.425432    0.214097    0.000096
 C   -1.835545   -0.190253    0.000108
 C   -2.175844   -1.548172    0.000555
 C   -3.505368   -1.950790    0.000568
 C   -4.522765   -1.006562    0.000142
 C   -4.187781    0.355091   -0.000315
 C   -2.868418    0.764040   -0.000351
 O    0.419262   -0.859922   -0.000029
 O    1.944076    2.878518    0.000289
 O   -5.259012    1.207493   -0.000737
 O   -5.817323   -1.393781    0.000178
 O   -0.651637    2.601127    0.000141
 O    4.706465   -2.865540   -0.000409
 O    4.386565    1.809965    0.000167
 H    5.624506   -0.480774   -0.000114
 H    2.013749   -2.862485   -0.000309
 H   -1.395491   -2.298520    0.000907
 H   -3.771502   -3.002277    0.000919
 H   -2.633187    1.821812   -0.000735
 H   -4.950716    2.120891   -0.000854
 H   -6.363776   -0.594229   -0.000251
 H    0.014401    3.318421    0.000153
 H    4.168885   -3.666960   -0.000065
 H    3.686086    2.502774    0.000308
