82 
4dgb_ligand_ani.xyz
 N   -3.321495   -1.049330    0.581172
 C   -3.313145   -0.388798   -0.749927
 C   -2.991607    1.093955   -0.581449
 O   -2.965106    1.612500    0.524937
 C   -4.727191   -0.597277   -1.357284
 C   -5.396408   -1.620991   -0.431731
 C   -4.740439   -1.335095    0.920819
 N   -2.824811    1.808509   -1.732705
 C   -2.401121    3.199648   -1.677674
 C   -0.887868    3.288726   -1.459031
 O   -0.130206    2.942845   -2.369328
 N   -0.427410    3.709687   -0.260937
 C    1.012457    3.659698    0.027730
 C    1.462533    2.198272    0.246016
 O    1.489679    1.717973    1.381664
 C    1.147018    4.493462    1.300067
 C   -0.195151    4.292896    2.007860
 C   -1.213712    4.230929    0.867819
 N    1.833882    1.556576   -0.884209
 C    2.278783    0.175895   -0.975909
 C    1.092118   -0.822786   -0.935203
 O   -0.045107   -0.500911   -0.601118
 C    3.382693   -0.179258    0.042762
 C    4.585885    0.775360    0.054415
 C    5.282283    0.868428   -1.303763
 C    5.572572    0.331051    1.135609
 N    1.358315   -2.119033   -1.296521
 C    0.249743   -3.089238   -1.309821
 C   -0.459074   -3.192765    0.037522
 O   -1.683380   -3.226661    0.102068
 C    0.912822   -4.391165   -1.771987
 C    2.031617   -3.899103   -2.690403
 C    2.542905   -2.637842   -1.987295
 N    0.340113   -3.256677    1.139937
 C   -0.183261   -2.816132    2.431148
 C   -0.220770   -1.277073    2.417271
 O   -1.236157   -0.619235    2.382336
 C    0.645308   -3.395715    3.567743
 O    1.009563   -0.765077    2.388052
 H   -2.849380   -0.441377    1.263284
 H   -2.771022   -1.925866    0.541630
 H   -2.544208   -0.852634   -1.373377
 H   -5.282240    0.346756   -1.338911
 H   -4.669648   -0.923065   -2.398906
 H   -5.172558   -2.646360   -0.752799
 H   -6.483458   -1.513059   -0.393539
 H   -5.182604   -0.443275    1.376268
 H   -4.813944   -2.161946    1.631500
 H   -2.585945    1.303015   -2.574169
 H   -2.969975    3.716024   -0.904108
 H   -2.628236    3.658833   -2.642630
 H    1.567224    4.073079   -0.820878
 H    1.995568    4.170498    1.906237
 H    1.295825    5.546637    1.035264
 H   -0.420091    5.085542    2.725586
 H   -0.184387    3.335167    2.535059
 H   -2.039771    3.552622    1.091018
 H   -1.616347    5.223053    0.620463
 H    1.411804    1.943576   -1.725987
 H    2.714918    0.097527   -1.980192
 H    3.751115   -1.188107   -0.181156
 H    2.946936   -0.227148    1.044917
 H    4.227216    1.777371    0.317826
 H    5.629884   -0.118940   -1.637827
 H    4.623028    1.276514   -2.077876
 H    6.157168    1.525144   -1.240817
 H    5.090343    0.290915    2.119395
 H    6.420421    1.021916    1.203028
 H    5.971712   -0.667586    0.914422
 H   -0.520454   -2.773216   -2.022588
 H    0.199488   -5.055551   -2.267417
 H    1.329557   -4.927169   -0.910725
 H    1.628056   -3.639452   -3.675641
 H    2.825443   -4.636972   -2.835341
 H    3.334936   -2.894448   -1.273441
 H    2.948787   -1.910777   -2.696492
 H    1.313294   -3.032846    0.970570
 H   -1.218704   -3.158800    2.483033
 H    1.682032   -3.052962    3.505556
 H    0.240518   -3.090422    4.537930
 H    0.628800   -4.486446    3.504236
 H    0.980509    0.194149    2.149725
