87 
4di2_ligand_dft.xyz
 C   -2.713840    4.799422   -0.025009
 C   -2.858724    5.628503   -1.323386
 C   -3.593079    4.427145   -1.966124
 C   -3.013109    3.529948   -0.864124
 C   -1.777777    2.742077   -1.283271
 O   -3.985813    2.639915   -0.328266
 C   -3.565071    1.790031    0.630262
 N   -4.537187    1.193668    1.306759
 C   -4.196959    0.336985    2.267576
 C   -2.883080    0.041913    2.642493
 C   -2.551718   -0.973808    3.702328
 C   -2.301938   -2.414948    3.173277
 C   -3.577485   -2.977498    2.533949
 C   -1.163898   -2.438783    2.141443
 C   -1.908553   -3.282775    4.376785
 C   -1.888376    0.693683    1.923336
 C   -2.205213    1.545893    0.869564
 C   -1.144087    2.089521   -0.055637
 N   -0.285434    0.929707   -0.472697
 C    0.996303    1.234425   -1.168075
 C    2.180761    1.000322   -0.182721
 O    1.685288    0.241254    0.893176
 C    3.405971    0.332245   -0.867203
 N    4.641790    0.718048   -0.190360
 C    4.904720    0.512539    1.113194
 O    4.076156    0.128721    1.945662
 C    6.341104    0.792317    1.547938
 C    6.930680   -0.452612    2.209093
 O    7.062039    1.217322    0.413029
 C    8.307061    1.824135    0.693870
 C    3.326921   -1.212683   -0.968844
 C    2.275385   -1.725753   -1.923543
 C    0.954028   -1.897675   -1.511616
 C    2.596492   -1.989032   -3.257537
 C    1.622578   -2.411616   -4.157635
 C    0.299324   -2.534252   -3.749841
 C   -0.041173   -2.254740   -2.424073
 C   -1.448202   -2.223408   -1.985389
 N   -1.961916   -1.188527   -1.362933
 C   -3.289477   -1.386745   -1.064772
 C   -3.797585   -2.580495   -1.468337
 S   -2.572515   -3.507543   -2.244993
 H   -3.532976    4.986121    0.673501
 H   -1.763585    4.850935    0.515790
 H   -1.894851    5.832100   -1.798324
 H   -3.414441    6.564112   -1.249795
 H   -3.360395    4.163754   -3.001771
 H   -4.676388    4.501657   -1.846281
 H   -1.069862    3.400539   -1.796073
 H   -2.093037    1.967505   -1.994224
 H   -5.027057   -0.147485    2.778765
 H   -3.363446   -1.013916    4.438533
 H   -1.655957   -0.646150    4.245199
 H   -3.881519   -2.391495    1.659444
 H   -4.408379   -2.983071    3.249008
 H   -3.416362   -4.008736    2.200501
 H   -0.244058   -1.998613    2.547832
 H   -1.435018   -1.894564    1.228789
 H   -0.938662   -3.471661    1.853160
 H   -2.695937   -3.280860    5.138767
 H   -1.741682   -4.321297    4.070804
 H   -0.986564   -2.917181    4.843596
 H   -0.846682    0.508605    2.184674
 H   -0.478353    2.785577    0.467679
 H   -0.889094    0.229962   -0.980450
 H    0.010343    0.425872    0.378923
 H    0.980921    2.271027   -1.507647
 H    1.058566    0.591261   -2.043977
 H    2.519129    1.979442    0.181917
 H    2.455813    0.100220    1.501854
 H    3.487178    0.750261   -1.877659
 H    5.444213    0.998882   -0.740836
 H    6.284031    1.608223    2.285846
 H    7.908955   -0.236156    2.645148
 H    7.045600   -1.249961    1.468466
 H    6.267519   -0.796636    3.005563
 H    8.679951    2.228562   -0.248095
 H    8.192770    2.642187    1.418374
 H    9.033498    1.100303    1.081643
 H    3.170111   -1.620375    0.032966
 H    4.312984   -1.553045   -1.300233
 H    0.693238   -1.729995   -0.469947
 H    3.623256   -1.871596   -3.594805
 H    1.891167   -2.624225   -5.187187
 H   -0.469598   -2.814754   -4.463387
 H   -3.845340   -0.612888   -0.550458
 H   -4.803779   -2.955417   -1.347713
