87 
4di2_ligand_ani.xyz
 C   -2.941791    4.480236   -1.372692
 C   -3.050694    4.896959   -2.858608
 C   -3.689433    3.517509   -3.149578
 C   -3.137070    3.013215   -1.812499
 C   -1.861171    2.205033   -1.952342
 O   -4.103987    2.267204   -1.064207
 C   -3.702871    1.812283    0.143741
 N   -4.672554    1.433309    0.961511
 C   -4.335907    0.965845    2.158905
 C   -3.024266    0.845540    2.620624
 C   -2.682283    0.248059    3.961001
 C   -2.284934   -1.252209    3.963844
 C   -3.475234   -2.127583    3.559522
 C   -1.109467   -1.526888    3.012415
 C   -1.860331   -1.612971    5.392825
 C   -2.025669    1.261688    1.737657
 C   -2.335359    1.692181    0.453887
 C   -1.256699    1.933746   -0.575099
 N   -0.352530    0.757034   -0.587718
 C    0.927351    0.886389   -1.302725
 C    2.111205    0.853856   -0.303906
 O    1.650113    0.230328    0.886218
 C    3.371045    0.156267   -0.874801
 N    4.593796    0.773481   -0.339937
 C    4.900100    0.829952    0.968224
 O    4.139517    0.513462    1.885958
 C    6.299424    1.363641    1.296184
 C    6.955194    0.518738    2.385393
 O    7.043666    1.390366    0.091572
 C    8.217822    2.167259    0.165570
 C    3.408986   -1.376505   -0.673756
 C    2.413930   -2.155131   -1.503375
 C    1.078831   -2.269071   -1.111687
 C    2.797315   -2.757646   -2.703654
 C    1.867786   -3.431203   -3.492734
 C    0.532646   -3.493992   -3.112219
 C    0.126504   -2.884435   -1.925795
 C   -1.291194   -2.802027   -1.528100
 N   -1.797416   -1.702467   -1.026694
 C   -3.135902   -1.867835   -0.750985
 C   -3.645896   -3.097842   -1.020363
 S   -2.415327   -4.110395   -1.668416
 H   -3.809343    4.812151   -0.797332
 H   -2.027541    4.724037   -0.820774
 H   -2.073064    5.018270   -3.335432
 H   -3.655387    5.779786   -3.080512
 H   -3.378378    2.974924   -4.046859
 H   -4.781070    3.561558   -3.112648
 H   -1.149752    2.735385   -2.596582
 H   -2.105159    1.247124   -2.425471
 H   -5.166869    0.665528    2.798823
 H   -3.532974    0.375313    4.644046
 H   -1.843792    0.811838    4.394542
 H   -3.836809   -1.892352    2.552422
 H   -4.312936   -2.003780    4.257770
 H   -3.189705   -3.186333    3.566960
 H   -0.257580   -0.862541    3.210617
 H   -1.388028   -1.405992    1.958906
 H   -0.760232   -2.558550    3.134455
 H   -2.671695   -1.421476    6.105963
 H   -1.590975   -2.673443    5.469746
 H   -0.990516   -1.023619    5.708514
 H   -0.985903    1.221311    2.067917
 H   -0.669008    2.810336   -0.265206
 H   -0.900858   -0.081508   -0.917392
 H   -0.070377    0.541766    0.382238
 H    0.955438    1.818433   -1.871806
 H    1.014577    0.077408   -2.029479
 H    2.396791    1.887636   -0.067022
 H    2.407268    0.267911    1.506125
 H    3.399513    0.362845   -1.950715
 H    5.357019    0.960113   -0.973336
 H    6.162077    2.397553    1.659368
 H    7.892858    0.971988    2.722420
 H    7.167866   -0.486070    2.008635
 H    6.279652    0.442702    3.239182
 H    8.610646    2.260680   -0.850071
 H    8.000643    3.173592    0.554197
 H    8.983178    1.699506    0.799484
 H    3.274560   -1.592666    0.389720
 H    4.418505   -1.709800   -0.940235
 H    0.776464   -1.840227   -0.158927
 H    3.837119   -2.708020   -3.020285
 H    2.186482   -3.902010   -4.419059
 H   -0.191039   -3.999994   -3.745788
 H   -3.685685   -1.028334   -0.349084
 H   -4.656078   -3.455407   -0.879111
