75 
4djh_ligand_ani.xyz
 C    3.231786    1.478358   -1.681585
 N    1.788415    1.287035   -1.571877
 C    1.282533    1.817451   -0.281567
 C    1.771712    0.910216    0.854215
 C    3.225348    0.506766    0.660393
 C    3.889076   -0.187635    1.674962
 C    5.216271   -0.579657    1.543957
 C    5.909259   -0.280321    0.371869
 O    7.214020   -0.625331    0.179616
 C    5.258188    0.389742   -0.660042
 C    3.927233    0.775610   -0.524157
 C   -0.242112    1.902361   -0.429160
 O   -0.755129    1.627576   -1.512440
 N   -0.945583    2.256056    0.671332
 C   -2.375261    2.600475    0.764358
 C   -2.626474    4.121633    0.650871
 C   -2.176719    4.865153    1.912960
 C   -1.991203    4.752651   -0.592898
 C   -3.272578    1.828337   -0.216351
 N   -2.914680    0.383464   -0.359719
 C   -3.017174   -0.385602    0.928007
 C   -3.614777   -1.785956    0.769175
 C   -3.601796   -2.495770    2.122200
 C   -2.932222   -2.540401   -0.408608
 C   -3.278086   -1.729493   -1.691043
 C   -3.671520   -0.262822   -1.469933
 C   -3.574700   -3.926208   -0.589889
 C   -1.411235   -2.715343   -0.188165
 C   -0.443722   -1.955386   -0.854804
 C    0.915928   -2.169706   -0.637395
 O    1.790812   -1.385066   -1.356110
 C    1.360959   -3.112266    0.278443
 C    0.410496   -3.867902    0.953035
 C   -0.946909   -3.677189    0.724439
 H    3.608658    1.088503   -2.632194
 H    3.472768    2.550140   -1.653820
 H    1.580369    0.267504   -1.610412
 H    1.238540    1.716975   -2.325920
 H    1.688445    2.826867   -0.125590
 H    1.154595    0.002113    0.915958
 H    1.659573    1.414643    1.820312
 H    3.352408   -0.438490    2.588754
 H    5.711790   -1.111443    2.355621
 H    7.536090   -1.076935    0.969496
 H    5.805614    0.595115   -1.577397
 H   -0.405751    2.450155    1.501843
 H   -2.671712    2.303936    1.778553
 H   -3.718617    4.229488    0.575512
 H   -2.641478    4.453277    2.816399
 H   -1.087495    4.818610    2.041230
 H   -2.449466    5.924304    1.849649
 H   -2.335438    5.786716   -0.706249
 H   -0.898819    4.776302   -0.506723
 H   -2.236147    4.217240   -1.517299
 H   -3.213474    2.273027   -1.211139
 H   -4.317751    1.910251    0.114391
 H   -1.940038    0.409928   -0.674036
 H   -2.010131   -0.471365    1.354634
 H   -3.630577    0.190654    1.627269
 H   -4.669083   -1.677071    0.477226
 H   -2.588329   -2.586026    2.528039
 H   -4.186674   -1.923805    2.853008
 H   -4.047398   -3.495128    2.073055
 H   -4.136941   -2.204478   -2.178507
 H   -2.462108   -1.812744   -2.414396
 H   -3.495972    0.314701   -2.384251
 H   -4.742602   -0.192647   -1.242348
 H   -3.198209   -4.400220   -1.503531
 H   -4.663206   -3.831492   -0.679106
 H   -3.367056   -4.601409    0.240562
 H   -0.706880   -1.173566   -1.563138
 H    2.675381   -1.434363   -0.955917
 H    2.422880   -3.263972    0.461414
 H    0.733340   -4.620861    1.667087
 H   -1.647585   -4.290315    1.285553
