77 
4djo_ligand_ani.xyz
 C   -5.451072    5.508341   -1.138103
 O   -4.295296    4.980237   -1.749758
 C   -3.494379    4.183856   -0.993290
 C   -2.347416    3.698810   -1.631538
 C   -1.469892    2.876388   -0.947477
 C   -3.749042    3.845612    0.335519
 C   -2.860050    3.020568    1.019564
 C   -1.735412    2.528121    0.375993
 S   -0.612063    1.466532    1.245636
 O    0.684937    1.613861    0.589475
 O   -0.755016    1.722037    2.667454
 N   -1.126730   -0.098624    0.961926
 C   -2.343108   -0.545032    1.654940
 C   -2.170623   -1.911106    2.328219
 C   -1.218853   -1.799041    3.525189
 C   -3.543646   -2.464699    2.734338
 C   -3.495923   -3.850654    3.374212
 C   -0.898721   -0.665245   -0.375564
 C    0.483671   -1.321906   -0.488316
 O    0.631213   -2.372946    0.453800
 C    0.799815   -1.861378   -1.896690
 C    0.333650   -3.304411   -2.123063
 C   -1.154600   -3.527649   -1.972827
 C   -1.669078   -4.225375   -0.875868
 C   -3.041389   -4.397396   -0.720283
 C   -3.925148   -3.872019   -1.658700
 C   -3.423321   -3.173938   -2.754258
 C   -2.051053   -3.006552   -2.910300
 N    2.229596   -1.780274   -2.171313
 C    2.725328   -0.617241   -2.704185
 O    2.099141    0.178936   -3.368904
 O    4.025027   -0.480273   -2.362314
 C    4.592454    0.809446   -2.634927
 C    3.884860    1.954198   -1.896944
 N    3.447715    1.610205   -0.560567
 C    4.304245    1.165057    0.380908
 O    5.511737    1.098461    0.251835
 C    3.603928    0.719268    1.680135
Cl    3.549245   -1.072370    1.701909
Cl    4.450734    1.346526    3.087625
 H   -6.130975    4.711607   -0.808181
 H   -5.945415    6.114123   -1.898852
 H   -5.196400    6.140756   -0.277215
 H   -2.170260    3.984038   -2.663437
 H   -0.565893    2.514363   -1.430126
 H   -4.627209    4.221150    0.848284
 H   -3.034785    2.776134    2.064185
 H   -2.616230    0.206490    2.402529
 H   -3.158099   -0.590983    0.919758
 H   -1.727282   -2.601923    1.593409
 H   -0.882318   -2.784738    3.862909
 H   -1.715089   -1.303861    4.371350
 H   -0.329666   -1.202489    3.287831
 H   -4.017351   -1.753392    3.426893
 H   -4.187540   -2.498835    1.843914
 H   -2.995936   -4.573373    2.716786
 H   -2.954797   -3.841464    4.326289
 H   -4.504179   -4.228983    3.573128
 H   -0.996381    0.119886   -1.133871
 H   -1.681790   -1.403812   -0.557883
 H    1.217937   -0.539476   -0.259116
 H    0.507583   -1.973379    1.327297
 H    0.337058   -1.200070   -2.638939
 H    0.875774   -3.949869   -1.426210
 H    0.656675   -3.571522   -3.136316
 H   -0.977915   -4.616597   -0.131686
 H   -3.424966   -4.951208    0.134546
 H   -4.997850   -4.003000   -1.540305
 H   -4.103190   -2.759046   -3.493472
 H   -1.669059   -2.454746   -3.769607
 H    2.858534   -2.228157   -1.515641
 H    4.565851    0.992569   -3.712663
 H    5.624906    0.721989   -2.302512
 H    2.995386    2.240166   -2.456470
 H    4.564299    2.813138   -1.867791
 H    2.458341    1.661207   -0.341230
 H    2.562245    1.050340    1.727026
