77 
4djo_ligand_dft.xyz
 C   -1.404333    7.271723    0.405538
 O   -0.715070    6.248146   -0.282877
 C   -0.624844    5.032836    0.294925
 C    0.103499    4.074138   -0.423138
 C    0.264518    2.799182    0.083809
 C   -1.198853    4.698120    1.525807
 C   -1.045272    3.410625    2.029442
 C   -0.314644    2.469842    1.314310
 S   -0.164321    0.824294    1.953374
 O    1.129959    0.322135    1.481147
 O   -0.447320    0.834799    3.377511
 N   -1.330565   -0.101660    1.220367
 C   -2.580090   -0.406054    1.929526
 C   -2.847724   -1.917108    1.925446
 C   -1.852793   -2.637372    2.835986
 C   -4.310299   -2.182289    2.301373
 C   -4.693999   -3.661038    2.285064
 C   -1.418915   -0.077542   -0.245412
 C   -0.336702   -0.922337   -0.918553
 O   -0.455641   -2.291507   -0.587139
 C   -0.321807   -0.779831   -2.453520
 C   -1.256063   -1.748519   -3.194926
 C   -2.696582   -1.585504   -2.770498
 C   -3.311656   -2.526211   -1.942092
 C   -4.599532   -2.314340   -1.457731
 C   -5.293044   -1.155321   -1.796535
 C   -4.698288   -0.221048   -2.641384
 C   -3.412578   -0.439422   -3.127162
 N    1.043093   -0.940345   -2.943832
 C    1.914354    0.087783   -2.727032
 O    1.582211    1.244463   -2.516412
 O    3.183234   -0.338066   -2.783703
 C    4.205460    0.619800   -2.503989
 C    4.103536    1.255089   -1.107713
 N    3.641722    0.337852   -0.088277
 C    4.371244   -0.746896    0.254495
 O    5.465801   -1.012633   -0.199483
 C    3.643790   -1.647965    1.277217
Cl    2.617140   -2.808702    0.364858
Cl    4.793725   -2.485696    2.325552
 H   -2.459793    7.013903    0.556330
 H   -1.337017    8.155386   -0.229064
 H   -0.937352    7.483981    1.374947
 H    0.539036    4.348953   -1.377282
 H    0.831002    2.070857   -0.489527
 H   -1.759051    5.425664    2.100716
 H   -1.476323    3.144955    2.988972
 H   -2.496321   -0.044543    2.956510
 H   -3.405729    0.133079    1.444529
 H   -2.696993   -2.277887    0.898641
 H   -1.901242   -3.722700    2.707184
 H   -2.050207   -2.409097    3.890601
 H   -0.825920   -2.321371    2.621772
 H   -4.513176   -1.761371    3.296548
 H   -4.952034   -1.637041    1.596074
 H   -4.427856   -4.123636    1.326907
 H   -4.183583   -4.220589    3.075215
 H   -5.770979   -3.788975    2.433302
 H   -1.379820    0.952478   -0.624638
 H   -2.403512   -0.472401   -0.495347
 H    0.630959   -0.549517   -0.568883
 H   -0.136489   -2.391610    0.319127
 H   -0.603712    0.247383   -2.700354
 H   -0.927846   -2.775400   -3.007613
 H   -1.144652   -1.555847   -4.267606
 H   -2.758012   -3.410642   -1.642775
 H   -5.059185   -3.052312   -0.806293
 H   -6.294324   -0.985811   -1.411652
 H   -5.235399    0.680553   -2.921262
 H   -2.950740    0.298431   -3.779759
 H    1.446516   -1.863972   -2.847898
 H    4.192411    1.408700   -3.262364
 H    5.124285    0.041753   -2.585476
 H    3.407124    2.091657   -1.126022
 H    5.099537    1.629707   -0.845584
 H    2.743628    0.501902    0.353121
 H    2.961756   -1.080214    1.908257
