49 
4djv_ligand_ani.xyz
 O    3.713458    0.031425   -1.675913
 C    3.338333   -0.200756   -0.547995
 C    1.940287    0.038299    0.063148
 N    2.175799   -0.347610    1.462704
 C    3.388266   -0.998749    1.616516
 N    4.114773   -0.771124    0.440689
 N    3.715756   -1.656907    2.651834
 C    5.456885   -1.256143    0.221309
 C    1.563323    1.513382   -0.074104
 C    1.173274    2.008115   -1.319661
 C    0.820364    3.344349   -1.467841
 C    0.863010    4.200200   -0.370478
 C    1.268693    3.715672    0.870020
 C    1.624642    2.379292    1.014595
 C    0.858975   -0.868831   -0.543626
 C    1.141699   -1.888709   -1.449382
 C    0.123130   -2.726239   -1.895077
 C   -1.179519   -2.559503   -1.439004
 C   -1.487744   -1.531502   -0.543029
 C   -0.455074   -0.700097   -0.109784
 C   -5.491622   -0.833696    0.820230
 C   -3.383610    0.003731   -0.016576
 C   -2.882988   -1.302327   -0.072636
 C   -3.695715   -2.366449    0.317532
 C   -4.989658   -2.124282    0.770714
 C   -4.688045    0.237207    0.415060
 O   -5.267068    1.466231    0.489240
 C   -4.519237    2.566744    0.023083
 H    1.403071   -0.758138    1.965782
 H    4.654927   -2.037100    2.561501
 H    5.491045   -2.352428    0.238903
 H    5.772910   -0.905915   -0.761507
 H    6.135988   -0.862276    0.984576
 H    1.154262    1.330791   -2.172011
 H    0.509188    3.720981   -2.438641
 H    0.585459    5.245479   -0.483010
 H    1.310709    4.382147    1.728508
 H    1.953936    1.988804    1.972914
 H    2.158202   -2.027253   -1.805815
 H    0.348603   -3.522036   -2.599697
 H   -1.970475   -3.214214   -1.799370
 H   -0.668482    0.101401    0.596646
 H   -6.499279   -0.623215    1.165326
 H   -2.740820    0.821874   -0.333896
 H   -3.307391   -3.381341    0.288753
 H   -5.614451   -2.956586    1.082703
 H   -4.260791    2.455282   -1.037933
 H   -5.158757    3.441609    0.148503
 H   -3.599282    2.702109    0.606484
