44 
4djw_ligand_ani.xyz
 O   -1.387304   -0.562092    2.206047
 C   -1.998457   -0.632542    1.162684
 C   -1.563265   -0.134244   -0.234680
 N   -2.700196   -0.575731   -1.055685
 C   -3.747654   -1.048349   -0.284304
 N   -3.251455   -1.190832    1.017948
 N   -4.910596   -1.290498   -0.733129
 C   -4.024513   -1.714303    2.119350
 C   -1.419368    1.390447   -0.315516
 C   -1.585428    2.228587    0.784920
 C   -1.469543    3.608958    0.646684
 C   -1.179639    4.170385   -0.593157
 C   -1.000516    3.340588   -1.697664
 C   -1.119674    1.963062   -1.556451
 C   -0.265635   -0.848284   -0.630229
 C   -0.298802   -2.051136   -1.334854
 C    0.885909   -2.712482   -1.639232
 C    2.108409   -2.196473   -1.221910
 C    2.156929   -1.014044   -0.481458
 C    0.962321   -0.347438   -0.206419
 C    5.838234    0.456174    0.951574
 N    5.781189   -0.015622   -0.295353
 C    4.607493   -0.477480   -0.722452
 C    3.437729   -0.483291    0.043179
 C    3.522561    0.029117    1.337700
 C    4.741402    0.496610    1.806702
 H   -2.966831   -0.003940   -1.842932
 H   -5.517440   -1.651942   -0.000899
 H   -4.911333   -1.097951    2.310257
 H   -3.383681   -1.700312    3.001216
 H   -4.338716   -2.743061    1.914516
 H   -1.798169    1.798257    1.759221
 H   -1.605293    4.247774    1.515760
 H   -1.090084    5.248490   -0.698620
 H   -0.773119    3.767810   -2.671226
 H   -0.965877    1.313840   -2.417493
 H   -1.257876   -2.449258   -1.650999
 H    0.857740   -3.640790   -2.203817
 H    3.028908   -2.732085   -1.443730
 H    0.982421    0.606358    0.316705
 H    6.809540    0.821101    1.280128
 H    4.585878   -0.847126   -1.747714
 H    2.639529    0.032806    1.974563
 H    4.839285    0.892381    2.813416
