41 
4djx_ligand_ani.xyz
 C    2.095977    1.255619    0.004379
 C    2.157650   -0.265118    0.275374
 N    3.426063   -0.606667   -0.362930
 C    4.145154    0.509277   -0.742862
 N    3.276424    1.600616   -0.623459
 N    5.365877    0.487669   -1.099097
 C    3.639070    2.956642   -0.962897
 O    1.214674    2.026769    0.314635
 C    0.976949   -1.008935   -0.349920
 C    2.159223   -0.460356    1.792396
 C    1.162010   -2.118053   -1.172713
 C    0.063140   -2.821441   -1.654295
 C   -1.226570   -2.422004   -1.323593
 C   -1.428077   -1.296576   -0.520931
 C   -0.318073   -0.602482   -0.043032
 C   -2.792944   -0.822004   -0.191148
 C   -3.819518   -1.708888    0.144398
 C   -5.339557   -0.030363    0.425602
 C   -3.094945    0.540143   -0.201303
 N   -5.058329   -1.331285    0.454084
 C    2.702849   -1.704280    2.428055
 C    3.421855   -0.395326    2.595159
 C   -4.388828    0.931926    0.098130
Cl   -4.831512    2.609083    0.079339
 H    3.966670   -1.382410   -0.015930
 H    5.686823    1.419354   -1.351138
 H    2.765689    3.582367   -0.777851
 H    4.471158    3.311368   -0.342807
 H    3.920417    3.027077   -2.018879
 H    1.269098   -0.036108    2.251666
 H    2.171025   -2.424536   -1.430213
 H    0.214230   -3.690639   -2.289189
 H   -2.083899   -2.965123   -1.714094
 H   -0.457430    0.277329    0.582289
 H   -3.620172   -2.779007    0.188170
 H   -6.356280    0.265448    0.673634
 H   -2.336467    1.273406   -0.464951
 H    3.142267   -2.454795    1.775535
 H    2.168509   -2.118265    3.278116
 H    4.346644   -0.251886    2.043380
 H    3.387578    0.098841    3.561420
