40 
4dk7_ligand_dft.xyz
 C    1.486379   -0.542434    0.492703
 C    1.001574   -1.395643   -0.501429
 C    0.633076   -0.158096    1.525628
 C   -0.309469   -1.847446   -0.465628
 C   -0.686294   -0.588433    1.552718
 C   -1.173815   -1.418985    0.543395
 N   -2.552659   -1.786460    0.483836
 S   -3.426307   -1.020903   -0.760853
 O   -4.816353   -1.381625   -0.546054
 O   -2.747647   -1.309249   -2.009507
 C   -3.218590    0.711772   -0.403095
 C   -2.047587    1.351614   -0.808304
 C   -4.176831    1.365029    0.367403
 C   -3.954383    2.688238    0.737278
 C   -1.831832    2.668707   -0.421257
 C   -2.782866    3.334171    0.349858
 C   -3.278850   -1.895639    1.750383
 C    2.882266    0.077773    0.455759
 C    2.831504    1.369514   -0.397463
 C    3.965446   -0.896838   -0.079448
 F    4.022259    1.962896   -0.480778
 F    1.972821    2.240234    0.143425
 F    2.413892    1.098002   -1.640023
 F    5.188149   -0.396562    0.079453
 F    3.817358   -1.199671   -1.376119
 F    3.900413   -2.040753    0.625320
 O    3.307288    0.505520    1.722096
 H    1.639177   -1.715285   -1.315437
 H    0.988926    0.524858    2.288704
 H   -0.685760   -2.502910   -1.240882
 H   -1.343089   -0.234102    2.339503
 H   -1.317987    0.822918   -1.412230
 H   -5.085378    0.844607    0.651815
 H   -4.697778    3.214167    1.327929
 H   -0.915857    3.169615   -0.717053
 H   -2.610601    4.363831    0.648216
 H   -3.498701   -0.921619    2.210878
 H   -4.215666   -2.420285    1.570468
 H   -2.663007   -2.483236    2.434236
 H    3.276563   -0.257207    2.315847
