55 
4dk8_ligand_ani.xyz
 C    1.391206   -0.977802    0.108766
 C    0.359941   -1.385054    0.951875
 C    1.121425   -0.765299   -1.242668
 C   -0.931297   -1.520867    0.461540
 C   -0.169369   -0.893250   -1.739027
 C   -1.205001   -1.262465   -0.881939
 N   -2.538277   -1.416522   -1.388908
 S   -3.546607   -0.070836   -1.380279
 O   -4.764724   -0.480380   -2.058408
 O   -2.765076    1.063718   -1.835077
 C   -3.959816    0.201244    0.332977
 C   -3.065403    0.884603    1.150147
 C   -5.173894   -0.261945    0.826212
 C   -5.480841   -0.062523    2.167659
 C   -3.379350    1.080244    2.489912
 C   -4.585451    0.605070    2.999963
 C   -3.179198   -2.711421   -1.178731
 C    2.814361   -0.829155    0.651503
 C    3.547091    0.359390    0.081370
 C    3.578656   -2.116622    0.323924
 F    4.823834   -2.067186    0.848419
 F    2.980658   -3.210314    0.801581
 F    3.712083   -2.269997   -1.005882
 O    2.748197   -0.752817    2.066819
 C    4.660040    0.465473   -0.732792
 N    3.104338    1.636822    0.357991
 C    3.901109    2.535530   -0.297351
 C    4.875068    1.844199   -0.975443
 C    1.947985    2.025831    1.150878
 C    0.771179    2.503473    0.309265
 O    1.088353    3.774700   -0.208584
 C    0.152391    4.234937   -1.149116
 H    0.562115   -1.592558    1.996745
 H    1.928786   -0.491595   -1.921738
 H   -1.747437   -1.778816    1.131524
 H   -0.392769   -0.701157   -2.784002
 H   -2.121008    1.241860    0.741960
 H   -5.863520   -0.765211    0.153657
 H   -6.423911   -0.426924    2.565631
 H   -2.682857    1.605609    3.137565
 H   -4.828499    0.757801    4.048398
 H   -2.524747   -3.485009   -1.584582
 H   -4.120947   -2.712510   -1.729506
 H   -3.376002   -2.925522   -0.119035
 H    3.659064   -0.756673    2.397639
 H    5.257135   -0.355991   -1.103556
 H    3.677831    3.588773   -0.228582
 H    5.665129    2.273927   -1.579891
 H    1.654640    1.184407    1.777702
 H    2.256156    2.844446    1.810263
 H   -0.134216    2.552837    0.941204
 H    0.566771    1.783534   -0.500739
 H    0.107702    3.575317   -2.029289
 H    0.474147    5.228480   -1.471151
 H   -0.858434    4.310408   -0.717947
