44 
4dkq_ligand_ani.xyz
 C    0.979682   -0.436128    0.012131
 C    3.422421    0.069673   -0.006504
 C    6.166843   -0.436868   -0.000873
 C    5.686727    0.867851    0.051444
 C    4.327313    1.129923    0.047195
 C   -4.911567   -3.007875   -1.297743
 C   -4.015520   -1.954226   -1.483765
 C   -3.740870   -1.121115   -0.408483
 C   -4.343043   -1.322332    0.835637
 C   -5.227053   -2.376601    1.024361
 C   -5.506395   -3.216281   -0.055328
 C   -2.772727    0.048394   -0.339758
 C   -3.308311    0.844038    0.899588
 C   -3.882698   -0.259380    1.814961
 N   -4.370411    1.775407    0.543870
 N   -1.418723   -0.437919   -0.103961
 C   -0.343545    0.357902   -0.111922
 N    2.050576    0.388917   -0.025822
 O    0.971812   -1.652278    0.125016
 O   -0.345744    1.583957   -0.206354
 C    3.884334   -1.244668   -0.051258
 C    5.254241   -1.483677   -0.050711
Cl    7.868646   -0.748002   -0.004577
 F    6.542444    1.891065    0.104140
 C   -4.110538    2.915997   -0.227765
 N   -2.997505    3.393947   -0.622962
 N   -5.300622    3.555445   -0.587582
 H    4.000773    2.164997    0.089889
 H   -5.142142   -3.672450   -2.126762
 H   -3.543675   -1.794264   -2.451562
 H   -5.696417   -2.550442    1.991009
 H   -6.199354   -4.044052    0.077061
 H   -2.781559    0.666749   -1.243832
 H   -2.499830    1.400157    1.377443
 H   -3.094870   -0.655269    2.469313
 H   -4.684404    0.127821    2.451409
 H   -5.233270    1.321601    0.267992
 H   -1.233372   -1.428998   -0.005884
 H    1.801486    1.367537   -0.102809
 H    3.180777   -2.066701   -0.086056
 H    5.624399   -2.503662   -0.089564
 H   -2.190908    2.842914   -0.328034
 H   -5.968170    3.631790    0.169744
 H   -5.095964    4.456934   -1.000147
