46 
4dlj_ligand_ani.xyz
 N   -4.066515   -2.375612  -21.372781
 C   -3.621137   -2.628170  -20.120182
 N   -2.443232   -3.100887  -19.793571
 C   -1.599635   -3.416709  -20.822064
 C   -1.954396   -3.213083  -22.168739
 C   -3.247256   -2.608612  -22.386959
 N    1.816623   -4.815647  -21.181015
 C   -1.239033    1.610501  -21.588882
 C   -6.342433   -1.755348  -16.943491
 C   -0.953177    1.420258  -22.936071
 C   -2.511780    1.320085  -21.105751
 C   -5.010258   -2.048771  -16.662568
 C   -6.790670   -1.751599  -18.261525
 C   -1.938959    0.940411  -23.795051
 C   -3.490842    0.840858  -21.969835
 C   -4.127190   -2.336769  -17.695906
 C   -5.909136   -2.036047  -19.297374
 C    0.179483   -4.143262  -22.853049
 C   -1.039452   -3.602135  -23.175342
 C   -0.337222   -3.961927  -20.502522
 C   -4.745398   -1.343350  -23.866875
 C   -4.270390    0.073083  -24.251377
 N   -3.658764   -2.284022  -23.639634
 C    0.550300   -4.326265  -21.492774
 C   -3.217640    0.643850  -23.325447
 C   -4.572391   -2.326344  -19.019202
 H    1.899202   -5.232081  -20.263874
 H    2.236000   -5.393237  -21.894456
 H   -0.472671    1.984732  -20.914312
 H   -7.031748   -1.531362  -16.133845
 H    0.038567    1.644921  -23.321965
 H   -2.741852    1.462705  -20.051661
 H   -4.658328   -2.055343  -15.633829
 H   -7.830601   -1.525648  -18.484031
 H   -1.712022    0.786273  -24.848958
 H   -4.475500    0.587241  -21.579686
 H   -3.087060   -2.574635  -17.491145
 H   -6.254624   -2.041868  -20.328066
 H    0.878424   -4.428268  -23.635952
 H   -1.293546   -3.494425  -24.229394
 H   -0.099339   -4.083945  -19.449916
 H   -5.326843   -1.317211  -22.943149
 H   -5.389508   -1.735016  -24.663856
 H   -3.876334    0.052453  -25.275693
 H   -5.151902    0.727522  -24.275289
 H   -2.956816   -2.323295  -24.361936
