31 
4do4_ligand_ani.xyz
 O   -1.835152   -1.379078   -0.826165
 C   -2.620444   -0.719425   -0.144199
 C   -4.105431   -1.011678   -0.145006
 N   -2.202212    0.303813    0.642442
 C   -0.781437    0.644755    0.804480
 C   -0.225797    1.292348   -0.484746
 O   -0.496646    2.692421   -0.507881
 C    1.290659    1.161223   -0.567578
 O    1.882977    1.777169    0.564482
 C    1.683409   -0.318835   -0.645853
 C    3.080845   -0.601368   -0.095426
 O    3.176653   -2.026469   -0.063967
 N    0.710768   -1.215191    0.066636
 C    0.088446   -0.553118    1.242024
 H   -4.687077   -0.320602    0.472144
 H   -4.261663   -2.032438    0.216108
 H   -4.470639   -0.969004   -1.174965
 H   -2.873729    0.752678    1.245462
 H   -0.746169    1.404687    1.588828
 H   -0.675529    0.799245   -1.354196
 H   -1.450510    2.800197   -0.611993
 H    1.640389    1.659899   -1.484331
 H    1.456278    2.643264    0.637472
 H    1.666104   -0.611087   -1.700824
 H    3.187147   -0.171938    0.908020
 H    3.842343   -0.159357   -0.752529
 H    3.951339   -2.270821    0.454682
 H    1.274590   -2.038329    0.345258
 H   -0.064009   -1.512778   -0.561319
 H    0.880864   -0.193484    1.902813
 H   -0.513781   -1.276234    1.791903
