91 
4dpf_ligand_xtb.xyz
 O    3.619943   -1.685397   -1.060685
 S    2.769884   -2.028880    0.039366
 O    2.195005   -0.897467    0.748730
 C    3.666900   -3.033601    1.223361
 N    1.488102   -3.016358   -0.406413
 C    1.841438   -4.084329   -1.323137
 C    0.324595   -2.261060   -0.715346
 C   -0.883283   -2.565207   -0.108107
 C   -1.982404   -1.727848   -0.284271
 C    0.444762   -1.113041   -1.484447
 C   -0.624050   -0.231281   -1.594095
 C   -1.847934   -0.557638   -1.019873
 C   -0.258466    1.146303   -2.025786
 O    0.696588    1.390218   -2.747896
 N   -0.960508    2.097867   -1.375436
 C   -0.535374    3.454958   -1.094444
 C    0.868597    3.489873   -0.444139
 C    1.008539    2.438966    0.708953
 N    2.325516    1.788232    0.597452
 C    3.354143    2.197582    1.585340
 C    4.513001    1.239149    1.509995
 C    5.248684    1.130616    0.336301
 C    6.289477    0.220373    0.219834
 C    7.064794    0.103878   -1.065517
 C    6.897423   -1.298669   -1.655560
 C    8.541912    0.438463   -0.846733
 C    6.589833   -0.581643    1.316314
 C    5.868794   -0.475538    2.491343
 C    4.823293    0.427516    2.590247
 O    1.888295    3.294116   -1.389436
 C   -1.632999    4.044548   -0.183571
 O   -2.007326    3.048023    0.741820
 C   -3.346062    3.104786    1.229966
 C   -3.717779    1.742752    1.738327
 C   -4.879194    1.145537    1.519087
 C   -5.245592   -0.193494    2.069559
 C   -5.506367   -1.265073    0.975942
 N   -4.333764   -1.392744    0.130511
 C   -3.192652   -1.948035    0.579562
 O   -3.090794   -2.507312    1.653048
 C   -6.744423   -0.956845    0.176126
 C   -7.949412   -1.543213    0.545683
 C   -9.115913   -1.256817   -0.140043
 C   -9.094500   -0.378878   -1.210334
 C   -7.901017    0.211556   -1.586330
 C   -6.734894   -0.072604   -0.896450
 H    2.947170   -3.441425    1.920012
 H    4.197253   -3.811408    0.691006
 H    4.369565   -2.378258    1.727424
 H    0.940960   -4.642469   -1.571711
 H    2.546040   -4.750883   -0.830767
 H    2.293161   -3.693473   -2.239537
 H   -0.975268   -3.418832    0.545032
 H    1.394098   -0.855438   -1.930165
 H   -2.683953    0.120667   -1.106993
 H   -1.665912    1.795602   -0.712316
 H   -0.475342    4.039680   -2.020348
 H    1.033998    4.494112   -0.037064
 H    0.905435    2.932900    1.673437
 H    0.229634    1.681331    0.635945
 H    2.649279    2.077046   -0.360732
 H    2.257493    0.739884    0.629476
 H    3.667189    3.221357    1.363739
 H    2.913712    2.166130    2.583635
 H    5.018059    1.772174   -0.502884
 H    6.652644    0.824090   -1.779410
 H    7.374933   -2.043653   -1.023874
 H    5.840926   -1.541127   -1.745571
 H    7.354820   -1.343844   -2.640350
 H    8.649334    1.434658   -0.423475
 H    9.007972   -0.273635   -0.170846
 H    9.073261    0.406990   -1.794297
 H    7.399313   -1.292153    1.255737
 H    6.124040   -1.094291    3.339159
 H    4.259490    0.505212    3.507566
 H    1.560596    2.706252   -2.115319
 H   -1.269557    4.943905    0.327383
 H   -2.494856    4.325429   -0.802832
 H   -4.029910    3.420559    0.431035
 H   -3.405155    3.843181    2.043069
 H   -2.951658    1.262456    2.331202
 H   -5.643627    1.639855    0.933273
 H   -6.157958   -0.101229    2.662433
 H   -4.446112   -0.563533    2.712027
 H   -5.638362   -2.219278    1.500930
 H   -4.403614   -1.057637   -0.815502
 H   -7.970990   -2.231558    1.377795
 H  -10.042187   -1.722271    0.159702
 H  -10.002426   -0.155374   -1.748708
 H   -7.876311    0.899084   -2.418763
 H   -5.817640    0.412627   -1.203385
