91 
4drn_ligand_dft.xyz
 C    3.065793    0.995482    2.448790
 C    3.552475    0.817630    1.012705
 C    4.852894    0.004786    0.906538
 C    6.085156    0.848975    1.263852
 C    7.377085    0.030091    1.234997
 C    7.565902   -0.641787   -0.125898
 C    6.355756   -1.506580   -0.480295
 C    5.058808   -0.663800   -0.466653
 O    5.151664    0.315103   -1.503161
 C    3.885752   -1.568692   -0.858633
 O    3.515914   -1.595295   -2.017074
 C    3.310818   -2.561153    0.156464
 O    4.113842   -3.241830    0.783657
 N    1.968620   -2.706465    0.223293
 C    1.412331   -3.796768    1.028357
 C    0.495733   -4.669275    0.170471
 C   -0.576549   -3.828290   -0.528504
 C    0.067118   -2.689781   -1.322362
 C    0.991694   -1.848804   -0.430638
 C    0.243327   -1.033912    0.626721
 O    0.595752   -0.895613    1.772400
 O   -0.842509   -0.460995    0.095596
 C   -1.530198    0.505690    0.918866
 C   -2.957519    0.580395    0.392389
 C   -3.695333   -0.762923    0.469402
 C   -5.134866   -0.643870    0.032471
 C   -6.105389   -0.189506    0.939168
 C   -5.520643   -0.924105   -1.267289
 C   -6.850119   -0.759821   -1.671886
 C   -7.808816   -0.311211   -0.776053
 O   -9.120744   -0.120840   -1.060588
 C   -9.552066   -0.413317   -2.367956
 C   -7.427301   -0.021034    0.555304
 O   -8.425662    0.407507    1.365248
 C   -8.100956    0.709373    2.700977
 C   -0.802132    1.827983    0.849071
 C   -0.300483    2.274029   -0.371498
 C   -0.640977    2.611454    1.990389
 C    0.008792    3.839555    1.905507
 C    0.506676    4.291064    0.687414
 C    0.352293    3.497268   -0.447744
 O    0.796118    3.919494   -1.679774
 C    2.189437    4.031177   -1.805699
 C    2.884250    2.674343   -1.826428
 O    2.324698    1.615646   -2.000988
 O    4.190361    2.821620   -1.624417
 H    2.135385    1.571187    2.466100
 H    2.860659    0.025908    2.912473
 H    3.803755    1.524756    3.062161
 H    2.752522    0.341102    0.433646
 H    3.704006    1.800445    0.556846
 H    4.795811   -0.825455    1.624393
 H    6.161791    1.683182    0.553343
 H    5.941658    1.292889    2.255096
 H    8.234494    0.673015    1.464241
 H    7.336416   -0.739170    2.018523
 H    8.467309   -1.264860   -0.125939
 H    7.700635    0.124109   -0.898910
 H    6.246599   -2.328723    0.232565
 H    6.469785   -1.944212   -1.478944
 H    4.655129   -0.065004   -2.253626
 H    0.863034   -3.360443    1.869618
 H    2.251353   -4.364482    1.428535
 H    0.035454   -5.433601    0.805965
 H    1.101774   -5.190514   -0.581072
 H   -1.263321   -3.408953    0.220835
 H   -1.180873   -4.454535   -1.192932
 H   -0.688759   -2.040613   -1.770014
 H    0.685284   -3.094023   -2.131591
 H    1.500351   -1.111230   -1.055754
 H   -1.524722    0.133797    1.948059
 H   -3.491145    1.335264    0.982072
 H   -2.945660    0.942637   -0.642480
 H   -3.173778   -1.492614   -0.159323
 H   -3.645524   -1.141903    1.499297
 H   -5.804235    0.026770    1.959343
 H   -4.786785   -1.275953   -1.987570
 H   -7.121201   -0.988652   -2.696130
 H   -9.048325    0.218909   -3.111233
 H   -9.384949   -1.468893   -2.620647
 H  -10.622495   -0.204686   -2.385175
 H   -7.717274   -0.171822    3.232150
 H   -9.030149    1.035663    3.169511
 H   -7.360363    1.517768    2.764149
 H   -0.375213    1.670861   -1.269019
 H   -1.012327    2.255452    2.947526
 H    0.131269    4.449209    2.795524
 H    1.001753    5.254418    0.612404
 H    2.381771    4.537531   -2.756148
 H    2.634649    4.637666   -1.007366
 H    4.596201    1.916688   -1.554616
