91 
4drn_ligand_ani.xyz
 C    3.073500    0.819544    2.633861
 C    3.493284    0.678883    1.172618
 C    4.792216   -0.111552    0.959399
 C    6.021380    0.716318    1.362501
 C    7.326907   -0.052391    1.151705
 C    7.455663   -0.535852   -0.293392
 C    6.240743   -1.368422   -0.699178
 C    4.931877   -0.591812   -0.501371
 O    4.937134    0.534701   -1.370119
 C    3.772820   -1.504593   -0.936261
 O    3.336253   -1.415239   -2.066502
 C    3.249258   -2.605618    0.006372
 O    4.016881   -3.150740    0.788269
 N    1.939748   -2.956286   -0.115576
 C    1.463578   -4.033115    0.760623
 C    0.463828   -4.905995    0.016727
 C   -0.680102   -4.062616   -0.539669
 C   -0.120711   -2.951001   -1.422485
 C    0.896042   -2.099383   -0.659080
 C    0.259568   -1.244579    0.431964
 O    0.686622   -1.131876    1.556436
 O   -0.823622   -0.595615   -0.025528
 C   -1.432870    0.349876    0.886694
 C   -2.862593    0.572110    0.413370
 C   -3.710453   -0.706367    0.448189
 C   -5.137865   -0.484714    0.009654
 C   -6.143880   -0.252047    0.956917
 C   -5.481326   -0.472179   -1.333518
 C   -6.799619   -0.251177   -1.737482
 C   -7.798633   -0.030805   -0.800827
 O   -9.103995    0.186675   -1.096262
 C   -9.471412    0.161603   -2.458196
 C   -7.459373   -0.025411    0.574139
 O   -8.482699    0.203325    1.435367
 C   -8.174228    0.221924    2.810509
 C   -0.643666    1.645847    0.917711
 C   -0.163433    2.210746   -0.261917
 C   -0.488594    2.337480    2.119548
 C    0.118998    3.589119    2.138632
 C    0.603566    4.152740    0.961430
 C    0.455423    3.455003   -0.234509
 O    0.860899    4.004027   -1.435408
 C    2.238521    4.257782   -1.538254
 C    3.058386    2.993754   -1.708472
 O    2.622132    1.940524   -2.123716
 O    4.328624    3.194577   -1.359406
 H    2.091842    1.300362    2.698789
 H    2.991816   -0.158793    3.120425
 H    3.778314    1.429141    3.210918
 H    2.679001    0.198779    0.614562
 H    3.610016    1.675750    0.727880
 H    4.767574   -1.025918    1.569158
 H    6.034714    1.637530    0.761773
 H    5.930378    1.023731    2.411599
 H    8.184928    0.573195    1.425728
 H    7.344274   -0.920809    1.827438
 H    8.369511   -1.126341   -0.423929
 H    7.531199    0.329291   -0.964525
 H    6.169674   -2.284720   -0.100743
 H    6.305264   -1.662504   -1.753055
 H    4.122881    0.490715   -1.910698
 H    1.012841   -3.590932    1.658552
 H    2.340978   -4.601202    1.072534
 H    0.087655   -5.688773    0.686652
 H    0.985309   -5.409642   -0.807917
 H   -1.259425   -3.622383    0.285466
 H   -1.372469   -4.686790   -1.114886
 H   -0.916200   -2.313969   -1.819833
 H    0.409150   -3.390116   -2.275765
 H    1.352062   -1.399031   -1.363541
 H   -1.428722   -0.093934    1.888280
 H   -3.317612    1.339798    1.049715
 H   -2.832297    0.981197   -0.603749
 H   -3.235117   -1.459639   -0.192461
 H   -3.699164   -1.111420    1.470133
 H   -5.885135   -0.258918    2.010825
 H   -4.721164   -0.642211   -2.093371
 H   -7.032597   -0.256720   -2.796550
 H   -8.957583    0.948023   -3.027154
 H   -9.254781   -0.813747   -2.914350
 H  -10.546889    0.341446   -2.482562
 H   -7.770992   -0.743172    3.143964
 H   -9.114264    0.418823    3.327932
 H   -7.455466    1.016944    3.048506
 H   -0.252802    1.689738   -1.210725
 H   -0.835146    1.889043    3.048881
 H    0.232768    4.125320    3.078054
 H    1.071346    5.135089    0.967169
 H    2.377096    4.876039   -2.430317
 H    2.633057    4.812949   -0.678442
 H    4.789287    2.321291   -1.404072
