84 
4dro_ligand_dft.xyz
 C   -3.089581    1.357979    1.690722
 C   -1.595137    1.640971    1.844247
 C   -1.087350    2.822047    1.003314
 C   -1.859187    4.117236    1.295717
 C   -1.351598    5.306813    0.477902
 C    0.141915    5.538962    0.704518
 C    0.931774    4.267894    0.393324
 C    0.435971    3.088611    1.243918
 O    0.673119    3.408455    2.599997
 C    1.255191    1.837266    0.930953
 O    1.603540    1.092698    1.828065
 C    1.534712    1.461713   -0.526189
 O    0.575039    1.447316   -1.291486
 N    2.791296    1.109348   -0.892421
 C    3.905198    0.951259    0.050786
 C    5.246455    1.222036   -0.624437
 C    5.411836    0.377959   -1.886397
 C    4.267024    0.680135   -2.850028
 C    2.902268    0.457315   -2.194566
 C    2.550697   -1.035331   -2.129366
 O    2.594364   -1.756358   -3.096872
 O    2.172506   -1.410026   -0.906777
 C    1.607429   -2.727015   -0.737363
 C    0.095061   -2.620090   -0.965439
 C   -0.608302   -1.666098    0.009945
 C   -2.016641   -1.335052   -0.419075
 C   -3.113184   -2.001366    0.144536
 C   -2.246031   -0.376513   -1.395069
 C   -3.547204   -0.082253   -1.812197
 C   -4.634954   -0.737902   -1.251209
 O   -5.934486   -0.521573   -1.578063
 C   -6.205346    0.472868   -2.535269
 C   -4.411921   -1.713440   -0.253627
 O   -5.527882   -2.301338    0.245738
 C   -5.362779   -3.252837    1.268406
 C    1.986917   -3.213784    0.640853
 C    2.123225   -4.584306    0.861458
 C    2.154872   -2.330682    1.709556
 C    2.456889   -2.818575    2.977441
 C    2.589193   -4.187510    3.192857
 C    2.419755   -5.071380    2.130786
 H   -3.364350    1.260372    0.635362
 H   -3.349570    0.415344    2.181975
 H   -3.704623    2.145514    2.137721
 H   -1.368435    1.830416    2.901568
 H   -1.047721    0.734199    1.562708
 H   -1.210426    2.567118   -0.056240
 H   -2.920798    3.956620    1.082200
 H   -1.773728    4.342177    2.366536
 H   -1.530013    5.114720   -0.589808
 H   -1.918993    6.208200    0.736840
 H    0.319847    5.823305    1.747707
 H    0.505669    6.359039    0.075152
 H    0.812638    4.013217   -0.666313
 H    2.000294    4.421131    0.588206
 H    0.857197    2.569428    3.049603
 H    3.762723    1.642756    0.880247
 H    3.885076   -0.066441    0.459512
 H    6.040253    1.008921    0.099057
 H    5.316811    2.286281   -0.883268
 H    6.373401    0.585295   -2.366488
 H    5.409101   -0.689182   -1.624578
 H    4.326816    1.726215   -3.172241
 H    4.314201    0.052845   -3.743844
 H    2.124468    0.889318   -2.829148
 H    2.040233   -3.379808   -1.500332
 H   -0.063423   -2.277947   -1.994758
 H   -0.340503   -3.623979   -0.893809
 H   -0.607644   -2.100049    1.015886
 H   -0.031038   -0.738816    0.064410
 H   -2.931794   -2.747286    0.911691
 H   -1.408378    0.165032   -1.824555
 H   -3.696682    0.675124   -2.573324
 H   -5.751281    0.236473   -3.506960
 H   -7.290464    0.499512   -2.643789
 H   -5.849948    1.458382   -2.204826
 H   -4.884712   -2.814651    2.154864
 H   -4.770758   -4.114035    0.930514
 H   -6.366963   -3.589021    1.530269
 H    2.000708   -5.277780    0.032330
 H    2.044128   -1.261937    1.554967
 H    2.584938   -2.120846    3.799863
 H    2.824308   -4.565057    4.183630
 H    2.527761   -6.140528    2.287540
