84 
4dro_ligand_ani.xyz
 C   -2.221630    2.916033    1.437793
 C   -0.749659    2.681376    1.776980
 C    0.227950    3.464739    0.888873
 C    0.100509    4.979984    1.094378
 C    1.079212    5.769968    0.221339
 C    2.521810    5.308164    0.432115
 C    2.635976    3.804097    0.197932
 C    1.696695    3.034026    1.130574
 O    2.073628    3.324600    2.460876
 C    1.856640    1.524181    0.903160
 O    1.875581    0.758323    1.847104
 C    1.897577    0.984827   -0.537654
 O    0.974179    1.254568   -1.298666
 N    2.972408    0.243469   -0.926561
 C    3.946816   -0.318349    0.019019
 C    5.269808   -0.592353   -0.682076
 C    5.063021   -1.488944   -1.895365
 C    4.122108   -0.795601   -2.872993
 C    2.792407   -0.436842   -2.207659
 C    1.868863   -1.656080   -2.139248
 O    1.456347   -2.204083   -3.135415
 O    1.592406   -2.051372   -0.886745
 C    0.602686   -3.092389   -0.726274
 C   -0.803475   -2.517453   -0.934134
 C   -1.179301   -1.384089    0.030617
 C   -2.504979   -0.748197   -0.302304
 C   -3.698160   -1.236280    0.242161
 C   -2.570023    0.322431   -1.184730
 C   -3.797206    0.890700   -1.531922
 C   -4.982183    0.404035   -0.998134
 O   -6.218825    0.890814   -1.273567
 C   -6.302284    1.979372   -2.166473
 C   -4.926272   -0.680015   -0.090922
 O   -6.119966   -1.102357    0.399367
 C   -6.096778   -2.176719    1.310671
 C    0.828798   -3.699123    0.640194
 C    0.630633   -5.065909    0.836089
 C    1.217224   -2.910771    1.727061
 C    1.394177   -3.483942    2.983269
 C    1.189701   -4.848586    3.169481
 C    0.806944   -5.639717    2.091323
 H   -2.416833    2.702744    0.379895
 H   -2.866479    2.255554    2.027050
 H   -2.532665    3.946770    1.636682
 H   -0.559267    2.940232    2.828120
 H   -0.529419    1.610166    1.686025
 H    0.017947    3.216111   -0.161714
 H   -0.925457    5.300931    0.879093
 H    0.291528    5.203008    2.152841
 H    0.808624    5.627888   -0.835929
 H    0.985124    6.843687    0.424514
 H    2.836888    5.532269    1.458233
 H    3.199179    5.843937   -0.242686
 H    2.373399    3.560405   -0.839938
 H    3.660952    3.453680    0.370472
 H    1.835705    2.542626    2.981090
 H    4.102419    0.401222    0.824382
 H    3.544127   -1.238467    0.461328
 H    5.965031   -1.046900    0.034147
 H    5.708871    0.362708   -0.997229
 H    6.018922   -1.706552   -2.383593
 H    4.636533   -2.454034   -1.585149
 H    4.587073    0.130354   -3.232136
 H    3.912478   -1.420732   -3.748109
 H    2.261240    0.263195   -2.857140
 H    0.789698   -3.848778   -1.494387
 H   -0.864992   -2.161678   -1.969691
 H   -1.519203   -3.342020   -0.840202
 H   -1.199774   -1.775613    1.056523
 H   -0.400218   -0.612007    0.001125
 H   -3.659077   -2.060989    0.947473
 H   -1.652312    0.748257   -1.589773
 H   -3.808627    1.729245   -2.219400
 H   -5.911958    1.715950   -3.158949
 H   -7.362601    2.222548   -2.247033
 H   -5.756166    2.852781   -1.784752
 H   -5.519087   -1.926831    2.210305
 H   -5.678511   -3.081995    0.851227
 H   -7.135819   -2.360499    1.588343
 H    0.344315   -5.698140   -0.003630
 H    1.367211   -1.838732    1.598804
 H    1.693221   -2.856657    3.819209
 H    1.329480   -5.292223    4.151956
 H    0.649213   -6.707094    2.226050
