91 
4drp_ligand_xtb.xyz
 C   -5.160460    0.809767   -1.420548
 C   -4.180621   -0.298394   -1.787087
 C   -4.408456   -1.589408   -0.991409
 C   -5.752861   -2.235753   -1.325525
 C   -5.978566   -3.506374   -0.514390
 C   -4.873226   -4.511074   -0.809425
 C   -3.514999   -3.906267   -0.475842
 C   -3.280860   -2.622381   -1.293920
 O   -3.240607   -2.940313   -2.664057
 C   -1.945027   -2.018014   -0.897806
 O   -1.153159   -1.647226   -1.738154
 C   -1.686790   -1.819272    0.586843
 O   -2.317411   -0.974132    1.200520
 N   -0.755574   -2.612195    1.146035
 C    0.085245   -3.521864    0.394678
 C    0.344456   -4.790522    1.201730
 C    0.984768   -4.428708    2.537046
 C    0.044330   -3.511528    3.311103
 C   -0.303823   -2.277565    2.483811
 C    0.865314   -1.282034    2.420768
 O    1.598850   -1.048407    3.343631
 O    0.899153   -0.707824    1.231053
 C    1.803028    0.381131    0.986780
 C    0.957792    1.568821    0.515148
 C   -0.037347    2.015905    1.591871
 C   -0.964661    3.070270    1.058802
 C   -0.545143    4.396095    0.973120
 C   -2.232062    2.737053    0.623654
 C   -3.082762    3.710745    0.117705
 C   -2.674827    5.029611    0.033117
 O   -3.433752    6.060309   -0.443033
 C   -4.740149    5.777017   -0.871744
 C   -1.377569    5.377904    0.468613
 O   -1.053547    6.698617    0.352403
 C    0.217726    7.110641    0.782629
 C    2.794525   -0.045489   -0.065676
 C    4.142908    0.208982    0.097505
 C    2.348509   -0.701633   -1.209954
 C    3.261040   -1.098061   -2.166654
 C    4.615574   -0.844153   -2.012710
 C    5.062328   -0.181607   -0.876174
 O    6.363313    0.129596   -0.606618
 C    7.347738   -0.238634   -1.531046
 C    8.699541    0.233150   -1.023377
 O    8.906318    0.887857   -0.047016
 O    9.670051   -0.190030   -1.846586
 H   -5.148048    0.982167   -0.346718
 H   -6.174879    0.563509   -1.723008
 H   -4.873858    1.730640   -1.923358
 H   -4.258333   -0.516588   -2.854648
 H   -3.169779    0.066387   -1.589576
 H   -4.368562   -1.356521    0.076210
 H   -5.767622   -2.478859   -2.389587
 H   -6.554724   -1.526882   -1.120048
 H   -6.949812   -3.936889   -0.765038
 H   -5.981038   -3.264918    0.551566
 H   -5.017903   -5.423593   -0.227819
 H   -4.889247   -4.769364   -1.868943
 H   -2.725618   -4.623553   -0.711937
 H   -3.463879   -3.661961    0.587000
 H   -2.512969   -2.429211   -3.052079
 H   -0.408285   -3.768260   -0.546384
 H    1.039163   -3.031607    0.163397
 H   -0.599544   -5.311022    1.377358
 H    0.996406   -5.448766    0.626717
 H    1.934125   -3.917481    2.364677
 H    1.185876   -5.329543    3.117963
 H    0.513196   -3.173852    4.235660
 H   -0.872143   -4.050028    3.559131
 H   -1.126147   -1.725920    2.961083
 H    2.315903    0.618892    1.926434
 H    1.625702    2.388597    0.247566
 H    0.408771    1.266714   -0.378292
 H   -0.630294    1.154894    1.904864
 H    0.511611    2.392848    2.458241
 H    0.446184    4.646712    1.317451
 H   -2.569357    1.713415    0.686901
 H   -4.070758    3.424420   -0.203589
 H   -5.353838    5.370587   -0.060281
 H   -5.156841    6.730098   -1.194108
 H   -4.747370    5.077033   -1.714681
 H    1.016139    6.624881    0.210703
 H    0.366918    6.914761    1.850126
 H    0.253618    8.184740    0.606932
 H    4.515828    0.710723    0.976170
 H    1.296332   -0.901071   -1.342096
 H    2.918797   -1.612168   -3.052452
 H    5.301642   -1.166929   -2.780080
 H    7.396583   -1.328871   -1.667070
 H    7.179832    0.225771   -2.514433
 H   10.535865    0.113713   -1.529135
