91 
4drp_ligand_ani.xyz
 C   -4.772222    1.284217   -1.679009
 C   -3.981802   -0.014564   -1.827930
 C   -4.552859   -1.186430   -1.020254
 C   -6.013970   -1.497174   -1.361615
 C   -6.558690   -2.649705   -0.512372
 C   -5.687560   -3.902907   -0.621417
 C   -4.231337   -3.579344   -0.291200
 C   -3.707416   -2.469633   -1.208610
 O   -3.814831   -2.923696   -2.541983
 C   -2.227053   -2.191020   -0.918916
 O   -1.421752   -2.117774   -1.825462
 C   -1.798754   -1.907003    0.527835
 O   -2.305701   -0.956588    1.116766
 N   -0.908296   -2.753258    1.109046
 C   -0.110654   -3.741851    0.375083
 C    0.174200   -4.942770    1.266671
 C    0.865738   -4.502154    2.551217
 C   -0.025104   -3.513784    3.295331
 C   -0.389801   -2.327522    2.403778
 C    0.764358   -1.330171    2.312905
 O    1.284364   -0.869685    3.303478
 O    1.104313   -1.014731    1.051022
 C    1.931318    0.153985    0.853120
 C    1.039608    1.324301    0.434881
 C   -0.065700    1.669648    1.442500
 C   -0.898255    2.849355    0.996851
 C   -0.380564    4.148568    1.033402
 C   -2.184564    2.661587    0.511102
 C   -2.954659    3.745728    0.082724
 C   -2.443935    5.034749    0.125862
 O   -3.114350    6.146264   -0.268590
 C   -4.426277    5.968606   -0.754550
 C   -1.130304    5.237363    0.610494
 O   -0.695910    6.523050    0.620398
 C    0.609244    6.760433    1.097237
 C    2.956626   -0.173642   -0.210163
 C    4.297903    0.113279    0.010424
 C    2.564777   -0.747766   -1.422387
 C    3.518093   -1.026734   -2.389789
 C    4.867876   -0.752019   -2.172058
 C    5.255405   -0.183642   -0.962405
 O    6.545005    0.123522   -0.638406
 C    7.561159   -0.288971   -1.506670
 C    8.898556    0.028376   -0.867462
 O    9.079740    0.588462    0.178750
 O    9.892542   -0.417408   -1.662393
 H   -4.931433    1.527624   -0.620336
 H   -5.751755    1.231007   -2.164639
 H   -4.225734    2.120008   -2.128806
 H   -3.925807   -0.297900   -2.887632
 H   -2.949433    0.167782   -1.500191
 H   -4.484156   -0.925945    0.044791
 H   -6.076647   -1.754626   -2.427106
 H   -6.633904   -0.606293   -1.205806
 H   -7.592818   -2.876231   -0.799473
 H   -6.591310   -2.327466    0.539502
 H   -6.058187   -4.685451    0.050382
 H   -5.737052   -4.297636   -1.643065
 H   -3.594155   -4.464974   -0.409524
 H   -4.139788   -3.244640    0.751058
 H   -3.056374   -2.547652   -3.013740
 H   -0.657405   -4.053907   -0.515668
 H    0.828680   -3.276765    0.050033
 H   -0.773087   -5.441076    1.507136
 H    0.789299   -5.663116    0.714129
 H    1.828975   -4.025441    2.316826
 H    1.086038   -5.365851    3.187899
 H    0.461419   -3.133697    4.199532
 H   -0.953340   -4.012622    3.597482
 H   -1.192554   -1.759138    2.883861
 H    2.435389    0.376660    1.797862
 H    1.684654    2.197908    0.279740
 H    0.588142    1.090704   -0.537768
 H   -0.737332    0.814525    1.577376
 H    0.395216    1.871162    2.421300
 H    0.631015    4.300649    1.402293
 H   -2.590764    1.652796    0.478911
 H   -3.965141    3.574776   -0.276523
 H   -5.085842    5.550414    0.017726
 H   -4.783037    6.959930   -1.037092
 H   -4.442465    5.309295   -1.633448
 H    1.359749    6.237572    0.489670
 H    0.714598    6.456209    2.146949
 H    0.767643    7.836883    1.017204
 H    4.627446    0.561665    0.945152
 H    1.518137   -0.981601   -1.606642
 H    3.214907   -1.469697   -3.335794
 H    5.593784   -0.984088   -2.944563
 H    7.523054   -1.368783   -1.705036
 H    7.509554    0.231414   -2.473102
 H   10.722248   -0.191238   -1.210464
