27 
4dt2_ligand_xtb.xyz
 C    1.887922   -1.163558    0.022209
 C    2.117675    0.369677    0.001421
 C    2.837749    0.816860   -1.270288
 C    2.861802    0.850920    1.245965
 O    0.809821    0.985655    0.004471
 C   -0.135461    0.012003    0.000480
 C    0.392882   -1.274240    0.008541
 C   -0.440250   -2.372380    0.007175
 C   -1.811820   -2.160588   -0.003122
 C   -2.331830   -0.876594   -0.011174
 C   -1.504819    0.238628   -0.009175
 C   -2.025014    1.649385   -0.018348
 O   -3.433628    1.665024    0.026072
 H    2.314929   -1.618308    0.918166
 H    2.336793   -1.645470   -0.848200
 H    2.278053    0.494423   -2.145531
 H    2.913454    1.901062   -1.289696
 H    3.836474    0.389808   -1.307274
 H    2.941972    1.934900    1.232475
 H    2.317398    0.556689    2.140497
 H    3.859442    0.420801    1.276743
 H   -0.032912   -3.372409    0.014191
 H   -2.482721   -3.006242   -0.004206
 H   -3.398072   -0.718035   -0.017894
 H   -1.657540    2.152442   -0.927287
 H   -1.599687    2.184145    0.845631
 H   -3.730134    2.580092    0.025943
