49 
4dtk_ligand_ani.xyz
 C   -4.636932    0.889885    2.169553
 N   -0.391893    0.655520   -0.140381
 O   -2.908293   -0.052356    0.875975
 S    1.989916   -1.663148    1.147333
 C   -4.339385    0.006374    0.969776
 N    1.470588    2.294002   -2.018643
 O    3.509574    0.516650   -1.621144
 C   -4.959544    0.557968   -0.308270
 N    4.047089   -0.241716    0.490005
 O    4.127049   -1.066536    2.649966
 C   -2.308799   -0.911695    0.004729
 C   -2.925785   -2.052265   -0.507530
 C   -2.238585   -2.891906   -1.384018
 C   -0.927911   -2.622551   -1.736109
 C   -0.277591   -1.505022   -1.195405
 C   -0.984294   -0.612311   -0.374524
 C   -0.276956    1.166328    1.212147
 C    0.910070    2.121335    1.228922
 C    0.694871    3.244141    0.208050
 C    0.291558    2.775223   -1.199154
 C   -0.759182    1.664567   -1.121513
 C    1.141156   -1.219372   -1.464619
 C    2.036793   -0.985589   -0.473270
 C    3.265273   -0.169742   -0.647609
 C    3.578420   -0.949360    1.589845
 H   -4.176801    0.487126    3.076581
 H   -5.717310    0.966457    2.334275
 H   -4.242661    1.897118    1.996698
 H   -4.722891   -1.001898    1.173245
 H    2.310360    2.883717   -1.871572
 H    1.233260    2.313993   -3.029701
 H    1.736387    1.324178   -1.769067
 H   -6.043270    0.655044   -0.183707
 H   -4.772029   -0.091400   -1.169105
 H   -4.545534    1.548360   -0.529025
 H    4.926257    0.254915    0.556895
 H   -3.953063   -2.287152   -0.248725
 H   -2.743068   -3.766188   -1.788237
 H   -0.379450   -3.277020   -2.408691
 H   -0.115025    0.317788    1.880502
 H   -1.198428    1.676373    1.536210
 H    1.049716    2.541850    2.231489
 H    1.819955    1.555005    0.991575
 H    1.590204    3.872338    0.132498
 H   -0.107392    3.902927    0.568457
 H   -0.141606    3.622481   -1.733104
 H   -1.750733    2.095720   -0.904307
 H   -0.820103    1.171578   -2.096709
 H    1.518395   -1.225706   -2.485049
