74 
4dus_ligand_ani.xyz
 C    5.293068   -1.412232   -0.160117
 C    5.770087   -2.777108   -0.710574
 C    4.767109   -2.605068   -1.876108
 C    4.039628   -1.535552   -1.053502
 C    2.791411   -2.054234   -0.368825
 O    3.716349   -0.376924   -1.824727
 C    3.091479    0.628816   -1.171452
 N    3.227955    1.823130   -1.730591
 C    2.617496    2.849293   -1.152001
 C    1.821689    2.757735   -0.011440
 C    1.137248    3.961870    0.583112
 C   -0.370579    4.134089    0.264793
 C   -1.181102    2.941955    0.780744
 C   -0.852854    5.407999    0.968956
 C   -0.596016    4.270682   -1.244102
 C    1.700876    1.483107    0.552945
 C    2.329480    0.383089   -0.014661
 C    2.252109   -1.001704    0.603750
 N    0.899311   -1.339963    1.130071
 C   -0.234560   -1.292596    0.179752
 C   -1.337361   -2.260018    0.624980
 O   -0.653741   -3.365341    1.219092
 C   -2.443135   -1.714299    1.575502
 N   -2.052390   -1.560352    2.977293
 C   -1.218814   -0.622038    3.496225
 C   -1.086261   -0.661126    5.008081
 O   -0.601953    0.180343    2.798690
 C   -3.148117   -0.452145    1.038773
 C   -3.629111   -0.590642   -0.388797
 C   -4.633429   -1.508802   -0.713500
 C   -5.060462   -1.684682   -2.025158
 C   -4.467686   -0.927778   -3.023029
 F   -4.870115   -1.094683   -4.296255
 C   -3.476705   -0.001840   -2.745806
 C   -3.066526    0.161186   -1.424890
 H    5.919469   -0.593072   -0.522071
 H    5.144731   -1.303207    0.919809
 H    5.510111   -3.611064   -0.051205
 H    6.827218   -2.860893   -0.974574
 H    5.236901   -2.152193   -2.753095
 H    4.175570   -3.470830   -2.187369
 H    2.051683   -2.267035   -1.146734
 H    3.014965   -2.987843    0.159712
 H    2.771834    3.818211   -1.630018
 H    1.241978    3.932620    1.678403
 H    1.657525    4.867825    0.244706
 H   -0.982990    2.727978    1.838797
 H   -0.956340    2.031441    0.212701
 H   -2.256382    3.131505    0.670475
 H   -0.293624    6.286445    0.624064
 H   -0.723024    5.332747    2.055993
 H   -1.916437    5.589937    0.771576
 H   -1.664598    4.391345   -1.459007
 H   -0.073260    5.147223   -1.648057
 H   -0.247527    3.384616   -1.787082
 H    1.078115    1.369199    1.440747
 H    2.909961   -1.004246    1.481632
 H    0.867751   -2.299050    1.524910
 H    0.660603   -0.673963    1.885842
 H    0.106972   -1.593696   -0.811857
 H   -0.603042   -0.271483    0.080310
 H   -1.870580   -2.587382   -0.281138
 H   -1.276979   -4.093594    1.332884
 H   -3.194850   -2.513285    1.603430
 H   -2.448719   -2.224721    3.623950
 H   -0.721865   -1.639354    5.341399
 H   -2.051889   -0.477152    5.491953
 H   -0.379228    0.106724    5.323248
 H   -3.997391   -0.247569    1.702917
 H   -2.469923    0.397759    1.132136
 H   -5.097916   -2.100837    0.073900
 H   -5.837471   -2.397740   -2.282924
 H   -3.042637    0.573430   -3.557618
 H   -2.300808    0.901271   -1.200230
