53 
4dvi_ligand_ani.xyz
 C   -5.502443    1.217528   -0.790412
 N   -3.592904   -0.173885   -0.549587
 O   -3.259925    2.128555   -0.556682
 C   -6.257564    1.936551    0.371934
 N    4.106073    1.495485   -0.113076
 O   -4.632979   -2.246687   -0.331370
 C   -5.961701   -0.241754   -0.668846
 N    2.806365   -0.783725   -0.181571
 O    2.134050   -2.937564    0.220164
 C   -3.993133    1.171664   -0.627835
 C   -4.689434   -1.050362   -0.490214
 C   -6.910397   -0.219361    0.569714
 C   -5.696433    1.403323    1.674148
 C   -7.593047    1.151996    0.334524
 C   -6.072495    0.125958    1.785958
 C    4.192384   -0.882697   -0.024605
 C    1.867466   -1.775425   -0.047193
 C    6.115217    2.791403    0.080157
 C    6.912394    1.680742    0.200439
 C    6.279384    0.399846    0.155093
 C    4.872739    0.375580    0.004829
 C    4.720183    2.654572   -0.076702
 C    6.975951   -0.833802    0.252517
 C    6.290204   -2.023357    0.211721
 C    4.887097   -2.060636    0.075956
 C    8.397855    1.814009    0.375766
 C   -0.543324   -2.042555    0.449977
 C   -1.875015   -1.676891    0.348338
 C   -2.229548   -0.580142   -0.441598
 C   -1.245502    0.124202   -1.142449
 C    0.082496   -0.252510   -1.028174
 C    0.450291   -1.326517   -0.216892
 H   -5.737460    1.664906   -1.759898
 H   -6.288144    3.023796    0.277677
 H   -6.483204   -0.607257   -1.558067
 H    2.513386    0.186010   -0.228552
 H   -7.543117   -1.104749    0.663352
 H   -5.010215    1.948513    2.313582
 H   -8.119345    1.222476   -0.624066
 H   -8.272701    1.433165    1.145368
 H   -5.760318   -0.590388    2.539306
 H    6.551919    3.787289    0.105658
 H    4.096662    3.542465   -0.172272
 H    8.057761   -0.829893    0.360773
 H    6.830475   -2.963860    0.289087
 H    4.349757   -3.000405    0.057189
 H    8.736040    1.354168    1.311705
 H    8.688281    2.868798    0.401245
 H    8.946212    1.338781   -0.445947
 H   -0.251700   -2.902103    1.046574
 H   -2.635180   -2.245912    0.869466
 H   -1.511413    0.973248   -1.760890
 H    0.834656    0.293200   -1.595449
