21 
4dzy_ligand_dft.xyz
 O   -1.372322    1.812278   -0.720151
 C   -1.477953    1.093420    0.241630
 O   -1.736323    1.539172    1.477847
 C   -1.352577   -0.425115    0.212626
Cl   -3.005684   -1.078695   -0.129075
 C   -0.353509   -0.899618   -0.838693
 C    1.059283   -0.524807   -0.446153
 C    1.787758   -1.340937    0.423154
 C    1.646103    0.652453   -0.914984
 C    2.936098    1.002462   -0.526734
 C    3.654410    0.181777    0.337868
 C    3.076581   -0.992472    0.813661
 H   -1.832559    2.503251    1.413613
 H   -1.087879   -0.786723    1.207080
 H   -0.623860   -0.454126   -1.799986
 H   -0.447406   -1.985648   -0.931911
 H    1.342745   -2.263061    0.791279
 H    1.081555    1.298558   -1.580634
 H    3.381471    1.918403   -0.903670
 H    4.662180    0.453216    0.637967
 H    3.632394   -1.640641    1.484716
