14 
4e3h_ligand_dft.xyz
 C   -0.692910    1.214515    0.000091
 C    0.692906    1.214555   -0.000029
 C    1.397792    0.009294    0.000015
 O    2.761395    0.077694    0.000230
 C    0.697327   -1.192362    0.000181
 C   -0.697336   -1.192402    0.000026
 C   -1.397784    0.009275    0.000026
 O   -2.761390    0.077721   -0.000206
 H   -1.248656    2.146286    0.000170
 H    1.248682    2.146303   -0.000176
 H    3.121159   -0.816741   -0.002850
 H    1.231988   -2.139842    0.000474
 H   -1.231997   -2.139869    0.000027
 H   -3.121182   -0.816705    0.000293
