55 
4e4x_ligand_ani.xyz
 N   18.997714  -25.179460   -1.143191
 C   18.341213  -24.019364   -1.410600
 N   17.069698  -23.896719   -1.785920
 C   16.374496  -25.027674   -1.910404
 C   16.936532  -26.296919   -1.660819
 C   18.291226  -26.278567   -1.270396
 N   15.071305  -24.908231   -2.289592
 C   14.203242  -26.007007   -2.446636
 C   14.818426  -27.332294   -2.235117
 C   16.112949  -27.437238   -1.819547
 C   14.547781  -23.564882   -2.523515
 O   13.030514  -25.831546   -2.723456
 C   13.978798  -28.524976   -2.485446
 C   13.310475  -28.744140   -3.682981
 C   12.523293  -29.863082   -3.957341
 C   12.386293  -30.826375   -2.964263
 C   13.048935  -30.661419   -1.753343
 C   13.830890  -29.541416   -1.538260
 F   14.449316  -29.417412   -0.348918
 F   13.442913  -27.845449   -4.684490
 N   11.907989  -29.914449   -5.219334
 N   19.061865  -22.883807   -1.259628
 S   11.326993  -31.277053   -5.972999
 C   12.783878  -32.275385   -6.232912
 O   10.466084  -31.992650   -5.048326
 O   10.842966  -30.813063   -7.260682
 C   13.836635  -31.602128   -7.106953
 C   14.977525  -32.561809   -7.433348
 C   18.564452  -21.580307   -1.657894
 C   18.508524  -21.351586   -3.171224
 C   18.041546  -19.948312   -3.519096
 O   18.050870  -19.824704   -4.929220
 H   18.802373  -27.220106   -1.059204
 H   16.529861  -28.419479   -1.614733
 H   13.513241  -23.662947   -2.845582
 H   14.612706  -22.973259   -1.605960
 H   15.150310  -23.064921   -3.287484
 H   11.757797  -31.693260   -3.124914
 H   12.965050  -31.402766   -0.967418
 H   12.060624  -29.122334   -5.829981
 H   20.050541  -23.026772   -1.124815
 H   13.165776  -32.531422   -5.237082
 H   12.401698  -33.193062   -6.694433
 H   13.357674  -31.250037   -8.027247
 H   14.232693  -30.717158   -6.590531
 H   15.730092  -32.078710   -8.064298
 H   15.479990  -32.908306   -6.522697
 H   14.609285  -33.443492   -7.970206
 H   17.560826  -21.465685   -1.231728
 H   19.213297  -20.831420   -1.186493
 H   19.495837  -21.513284   -3.618187
 H   17.820022  -22.077748   -3.620757
 H   17.028393  -19.781268   -3.114190
 H   18.711738  -19.205794   -3.052591
 H   17.761841  -18.932345   -5.151621
