55 
4e4x_ligand_xtb.xyz
 N    4.386706   -1.684105   -1.860583
 C    4.887780   -0.976191   -0.826575
 N    4.183152   -0.469110    0.183184
 C    2.872621   -0.686771    0.172496
 C    2.240421   -1.416115   -0.863395
 C    3.094433   -1.891838   -1.866626
 N    2.140715   -0.186336    1.199155
 C    0.761671   -0.353641    1.312779
 C    0.119484   -1.067415    0.207226
 C    0.836421   -1.590756   -0.816335
 C    2.832952    0.538749    2.243996
 O    0.169898    0.057477    2.291874
 C   -1.341085   -1.214409    0.304402
 C   -2.164940   -0.114623    0.505108
 C   -3.546886   -0.221419    0.675908
 C   -4.122936   -1.487798    0.616055
 C   -3.335262   -2.601181    0.386849
 C   -1.969855   -2.457000    0.238647
 F   -1.216915   -3.559253    0.033847
 F   -1.632963    1.128046    0.472411
 N   -4.306212    0.912741    0.902039
 N    6.218861   -0.813262   -0.829050
 S   -5.905430    1.094194    0.441942
 C   -5.868799    0.835736   -1.354328
 O   -6.692552    0.060251    1.038727
 O   -6.218633    2.458451    0.727963
 C   -4.996382    1.894584   -1.995484
 C   -5.087835    1.862704   -3.518258
 C    6.930609    0.025303    0.099275
 C    7.269496    1.388148   -0.507854
 C    8.023338    2.276185    0.476840
 O    8.324955    3.490131   -0.173912
 H    2.703207   -2.459752   -2.701371
 H    0.351868   -2.133313   -1.615532
 H    3.359723    1.388484    1.811697
 H    2.085992    0.875532    2.960281
 H    3.556354   -0.114580    2.730901
 H   -5.185484   -1.580323    0.767348
 H   -3.770505   -3.586251    0.337819
 H   -3.799827    1.780054    0.987002
 H    6.695334   -1.139442   -1.655667
 H   -6.903849    0.911683   -1.677243
 H   -5.506762   -0.175720   -1.516755
 H   -3.957811    1.744161   -1.693167
 H   -5.318482    2.868780   -1.623186
 H   -4.770868    0.894816   -3.899860
 H   -6.109179    2.043339   -3.843397
 H   -4.449422    2.628745   -3.949709
 H    7.849652   -0.486463    0.401877
 H    6.286429    0.152119    0.970639
 H    6.351779    1.896022   -0.806038
 H    7.886744    1.260998   -1.398826
 H    8.946945    1.772310    0.799333
 H    7.401937    2.456193    1.365886
 H    8.788628    4.072877    0.435794
