51 
4e8w_ligand_xtb.xyz
 O    5.765245    4.852884   -0.662809
 C    6.257127    3.657057   -0.285733
 O    7.386344    3.529033    0.060264
 C    5.226228    2.525722   -0.353613
 O    5.847535    1.338591    0.049273
 C    5.109230    0.191729    0.082944
 C    3.773057    0.103676   -0.265563
 C    5.812634   -0.946933    0.508893
 C    5.200936   -2.175738    0.595176
 C    3.861741   -2.270665    0.249439
 C    3.144925   -1.136716   -0.181811
 N    1.838408   -1.378006   -0.496167
 S    2.812481   -3.657593    0.250609
 C    1.517067   -2.602220   -0.324644
 C    0.168904   -3.172994   -0.603313
 N   -0.794664   -2.158609   -0.928317
 C   -1.797971   -1.827311   -0.089706
 N   -2.045201   -2.624831    0.953341
 N   -3.059989   -2.349315    1.719423
 C   -3.818978   -1.308856    1.458674
 N   -2.505652   -0.730701   -0.408896
 C   -3.540194   -0.464103    0.365754
 C   -4.385896    0.696127    0.052166
 C   -4.911680    0.845593   -1.239611
 O   -4.605140   -0.135097   -2.124171
 C   -5.094714   -0.038724   -3.439062
 C   -4.686066    1.637689    1.046076
 O   -4.110640    1.423213    2.260303
 C   -4.358225    2.339870    3.298974
 C   -5.503123    2.721617    0.744407
 C   -6.014128    2.855457   -0.533107
 C   -5.730992    1.934137   -1.523348
 H    4.834872    4.830227   -0.921121
 H    4.854222    2.447983   -1.389040
 H    4.381841    2.777413    0.309650
 H    3.189468    0.946052   -0.597536
 H    6.851339   -0.822959    0.767526
 H    5.747350   -3.044978    0.923978
 H   -0.206261   -3.707363    0.275697
 H    0.253472   -3.889453   -1.432304
 H   -0.526733   -1.450374   -1.595141
 H   -4.655114   -1.145344    2.118702
 H   -6.189340   -0.058686   -3.465320
 H   -4.734451    0.866290   -3.938412
 H   -4.707529   -0.913842   -3.958698
 H   -3.996537    3.341826    3.046924
 H   -5.423047    2.388168    3.548384
 H   -3.804636    1.962579    4.157302
 H   -5.744585    3.460155    1.490892
 H   -6.649857    3.697902   -0.761331
 H   -6.150531    2.070660   -2.506417
