41 
4e96_ligand_ani.xyz
 C   -3.528839    2.749556   -0.191611
 O   -3.007433    1.441681   -0.326851
 C   -2.730788    0.751052    0.806526
 C   -2.772547    1.300242    2.087412
 C   -2.443587    0.518227    3.192509
 C   -2.076533   -0.812322    3.035340
 C   -2.043715   -1.365630    1.759343
 C   -2.373636   -0.593322    0.654625
 S   -2.366648   -1.340099   -0.953465
 O   -3.688327   -1.268313   -1.542307
 O   -1.656936   -2.602401   -0.841744
 N   -1.442916   -0.292338   -1.872080
 C   -0.151062    0.126119   -1.464863
 C    0.817808   -0.783911   -1.057225
 C    2.089944   -0.341177   -0.727257
 C    3.209075   -1.288958   -0.373767
 N    4.174969   -0.663146    0.512326
 C    5.044932   -1.540896    1.267408
 C    4.554543    0.645463    0.344298
 O    5.561093    1.131997    0.833059
 N    3.686693    1.409354   -0.424455
 C    2.396482    1.015600   -0.784737
 C    1.431858    1.934642   -1.198203
 C    0.162599    1.486654   -1.531948
 H   -4.441818    2.746230    0.414785
 H   -2.789634    3.423758    0.257257
 H   -3.765765    3.085399   -1.201741
 H   -3.057421    2.337011    2.228995
 H   -2.477749    0.962481    4.184676
 H   -1.818621   -1.419829    3.897195
 H   -1.764743   -2.404286    1.604775
 H   -2.035698    0.463010   -2.201007
 H    0.566463   -1.839047   -1.012596
 H    3.707886   -1.641234   -1.294240
 H    2.801577   -2.174146    0.127603
 H    4.450204   -2.177469    1.931295
 H    5.648737   -2.183765    0.611558
 H    5.718641   -0.924449    1.862421
 H    3.929228    2.387655   -0.448961
 H    1.675586    2.993682   -1.258862
 H   -0.598105    2.197745   -1.842612
