41 
4e96_ligand_xtb.xyz
 C   -2.805433    2.531232    1.529327
 O   -2.668420    1.385484    0.715501
 C   -2.183715    0.250015    1.268187
 C   -1.757072    0.112235    2.587155
 C   -1.262777   -1.102921    3.031440
 C   -1.182599   -2.195336    2.185014
 C   -1.601889   -2.063631    0.871459
 C   -2.093512   -0.856610    0.425494
 S   -2.606842   -0.697137   -1.287195
 O   -3.992785   -0.359737   -1.386549
 O   -2.144162   -1.858788   -1.984072
 N   -1.765456    0.651418   -1.842485
 C   -0.483359    0.872641   -1.343723
 C    0.371828   -0.212206   -1.166997
 C    1.627689   -0.033883   -0.619480
 C    2.535514   -1.198679   -0.352161
 N    3.916984   -0.801332   -0.183876
 C    4.882488   -1.872748   -0.204502
 C    4.313012    0.429965    0.225962
 O    5.458176    0.710535    0.520723
 N    3.323487    1.393929    0.274848
 C    2.059862    1.245445   -0.270153
 C    1.219684    2.334082   -0.475809
 C   -0.047160    2.147406   -0.995886
 H   -3.468387    2.342679    2.377919
 H   -1.832233    2.879536    1.888849
 H   -3.250433    3.291990    0.890616
 H   -1.803919    0.944509    3.270684
 H   -0.935465   -1.190505    4.056667
 H   -0.797986   -3.137032    2.542863
 H   -1.555002   -2.880956    0.169643
 H   -2.363556    1.463873   -1.846402
 H    0.037341   -1.193333   -1.461450
 H    2.483134   -1.908920   -1.186058
 H    2.187581   -1.731235    0.551733
 H    4.652768   -2.616903    0.563657
 H    4.880660   -2.358497   -1.182441
 H    5.863666   -1.445132   -0.010048
 H    3.651495    2.324338    0.489963
 H    1.558847    3.326121   -0.216219
 H   -0.701986    2.993563   -1.141050
