69 
4ea3_ligand_ani.xyz
 C   -8.859461    1.236504   -0.151891
 C   -7.897781    1.829965   -0.971557
 C   -6.574582    1.396322   -0.934499
 O    2.555660    0.751890    0.785297
 C   -6.243766    0.366169   -0.066459
 O   -5.138881   -1.091780    1.353415
 N   -2.145391   -1.032743   -0.592687
 C   -2.434585   -0.145732    0.599028
 C   -4.575551   -1.292949   -1.010139
 C   -3.263473   -2.023099   -0.760727
 C   -0.799857   -1.663405   -0.534970
 C    0.305462   -0.694176   -0.942649
 C    1.696327   -1.325180   -0.852117
 C    3.145962    0.570400   -0.272493
 C    4.333487    1.425678   -0.715378
 C    3.874505    2.766516   -1.289944
 C    3.558458    3.604184   -0.046841
 N    2.767809   -0.386601   -1.158547
 C    4.545717    3.117037    1.027115
 C    5.491203    0.798533    1.477251
 C    6.080663   -0.434543    0.829558
 C    7.248472   -0.330403    0.070543
 C    7.808170   -1.454319   -0.527467
 C    7.201968   -2.698971   -0.377844
 C    6.038586   -2.814535    0.376016
 C    5.482774   -1.687353    0.976423
 N    5.181742    1.861394    0.473876
 C   -8.514564    0.203309    0.718270
 C   -7.195915   -0.222486    0.754330
 C   -6.528170   -1.298178    1.570679
 C   -4.918748   -0.331787    0.144390
 C   -3.742154    0.614298    0.397504
 H   -9.889218    1.583345   -0.191160
 H   -8.184873    2.635318   -1.642597
 H   -5.825656    1.858996   -1.575980
 H   -2.150809   -0.427903   -1.439396
 H   -1.602842    0.549368    0.735058
 H   -2.494824   -0.778515    1.488860
 H   -4.490622   -0.708198   -1.935924
 H   -5.393543   -2.008246   -1.142434
 H   -3.019021   -2.682350   -1.598949
 H   -3.326279   -2.632839    0.144773
 H   -0.628283   -2.035315    0.484409
 H   -0.804115   -2.537686   -1.196383
 H    0.282605    0.186102   -0.292008
 H    0.114959   -0.346572   -1.966498
 H    1.856400   -1.717559    0.160020
 H    1.786182   -2.162256   -1.552351
 H    4.959388    0.863400   -1.408382
 H    3.027661    2.660229   -1.972869
 H    4.709387    3.204546   -1.849574
 H    2.536444    3.409223    0.284776
 H    3.657328    4.676184   -0.234249
 H    3.313391   -0.521641   -1.993581
 H    4.036480    2.860672    1.956417
 H    5.331496    3.844464    1.253036
 H    4.562560    0.541988    1.986968
 H    6.186197    1.207598    2.223072
 H    7.722479    0.644409   -0.050098
 H    8.717803   -1.358306   -1.116088
 H    7.639423   -3.576842   -0.846579
 H    5.566083   -3.786424    0.500126
 H    4.570810   -1.776440    1.565097
 H    6.103460    2.146831    0.079902
 H   -9.269487   -0.254493    1.354655
 H   -6.827966   -2.306258    1.245831
 H   -6.722366   -1.214501    2.645058
 H   -3.632764    1.286654   -0.464342
 H   -3.960097    1.226998    1.276395
