24 
4ef6_ligand_dft.xyz
 C    1.962955   -0.739862    0.192720
 C    0.934697   -1.497751    0.700953
 C   -0.270410   -0.830620    0.968135
 C    1.816788    0.620596   -0.049742
 C    0.640393    1.284652    0.204855
 C   -0.427967    0.532919    0.730083
 C   -1.756241    1.209682    0.980382
 C   -2.691914    1.162007   -0.244473
 C   -3.057318   -0.247235   -0.684870
 O   -3.656008   -1.018005    0.259389
 C    3.923262    0.060280   -0.480323
 O   -2.860666   -0.690691   -1.781627
 O    3.219933   -1.135574   -0.168753
 O    2.976954    1.119671   -0.569157
 H    1.050286   -2.559894    0.882166
 H   -1.106381   -1.402669    1.360281
 H    0.543654    2.347345    0.006712
 H   -1.597116    2.261406    1.241098
 H   -2.242940    0.757622    1.855011
 H   -2.214191    1.643982   -1.099659
 H   -3.617980    1.709913   -0.023244
 H   -3.774420   -0.513997    1.075087
 H    4.428566   -0.055532   -1.441845
 H    4.643351    0.280605    0.319259
