28 
4egh_ligand_xtb.xyz
 O   -0.713031    2.307553    0.056137
 C   -0.501763    1.118242    0.214305
 N   -1.492223    0.249667    0.546322
 C   -1.429730   -1.189601    0.436152
 C   -2.351729   -1.647387   -0.704942
 O   -3.670243   -1.195197   -0.516957
 C   -3.718049    0.214335   -0.448071
 C   -2.849381    0.737943    0.697932
 C    0.875410    0.552270    0.106617
 C    1.459086   -0.146445    1.160658
 C    2.763523   -0.585929    1.073454
 C    3.509064   -0.333949   -0.075991
 O    4.785861   -0.792442   -0.125245
 C    2.935012    0.375661   -1.124971
 C    1.631996    0.824494   -1.026213
 H   -1.777130   -1.631927    1.377366
 H   -0.409323   -1.514296    0.236598
 H   -2.403137   -2.736741   -0.742204
 H   -1.955596   -1.267923   -1.660385
 H   -4.765123    0.477219   -0.293112
 H   -3.368445    0.647787   -1.397167
 H   -2.818479    1.828070    0.691744
 H   -3.245275    0.378863    1.654072
 H    0.892540   -0.329010    2.061944
 H    3.229029   -1.121830    1.885061
 H    5.198756   -0.531724   -0.957542
 H    3.515255    0.584280   -2.014256
 H    1.191163    1.392437   -1.831426
