28 
4egh_ligand_ani.xyz
 O    2.692930    9.784949  -26.768895
 C    1.683207    9.672227  -26.088061
 N    0.671645    8.795686  -26.431638
 C   -0.075148    8.006856  -25.452554
 C    0.509726    6.597043  -25.338245
 O    0.585636    5.966184  -26.601268
 C    1.381013    6.710880  -27.505826
 C    0.800924    8.106878  -27.713106
 C    1.496311   10.486614  -24.844667
 C    0.252973   10.972132  -24.431567
 C    0.139456   11.752408  -23.291253
 C    1.281067   12.053545  -22.545485
 O    1.110721   12.807600  -21.427077
 C    2.531308   11.595932  -22.961397
 C    2.632416   10.831717  -24.115306
 H   -0.055119    8.497436  -24.477086
 H   -1.117526    7.933113  -25.788717
 H   -0.135247    5.972274  -24.712427
 H    1.506417    6.638458  -24.871118
 H    1.397216    6.147815  -28.444838
 H    2.413784    6.797303  -27.131492
 H    1.443408    8.708880  -28.358490
 H   -0.196059    8.021085  -28.162371
 H   -0.636277   10.744711  -25.015337
 H   -0.822085   12.123606  -22.954607
 H    1.967931   12.947267  -21.005367
 H    3.424480   11.845171  -22.389742
 H    3.601892   10.491230  -24.467063
