27 
4eh2_ligand_dft.xyz
 C    2.533360   -0.806370   -0.859274
 C    3.915516   -0.934325   -0.800238
 C    4.662076   -0.134896    0.063091
 C    4.020966    0.790284    0.879916
 C    2.635362    0.915327    0.837182
 C    1.899063    0.123372   -0.039089
 N    0.476999    0.295880   -0.107650
 C   -0.027288    1.554492   -0.369830
 N   -1.265195    1.883874   -0.417941
 C   -2.189610    0.873079   -0.180719
 C   -3.556911    1.188463   -0.210359
 C   -4.498576    0.203121    0.018505
 C   -4.104065   -1.117756    0.280752
 C   -2.761621   -1.442328    0.311636
 C   -1.798872   -0.450751    0.081602
 C   -0.375468   -0.804390    0.122633
 O    0.064488   -1.917994    0.335415
 H    1.945240   -1.426418   -1.525317
 H    4.412298   -1.660776   -1.435605
 H    5.742094   -0.237633    0.101245
 H    4.595008    1.410363    1.561229
 H    2.123435    1.616231    1.490108
 H    0.733927    2.307381   -0.559498
 H   -3.841972    2.214761   -0.416002
 H   -5.555059    0.453609   -0.005232
 H   -4.853784   -1.882192    0.458413
 H   -2.423305   -2.453586    0.511620
