27 
4eh2_ligand_xtb.xyz
 C    2.497049   -0.860878   -0.789800
 C    3.871324   -1.009228   -0.734572
 C    4.636438   -0.161548    0.048474
 C    4.024232    0.836321    0.788106
 C    2.650255    0.988567    0.746717
 C    1.887734    0.141335   -0.047636
 N    0.477990    0.314319   -0.098927
 C   -0.032426    1.555201   -0.342209
 N   -1.267969    1.867224   -0.389699
 C   -2.188053    0.871353   -0.171596
 C   -3.551769    1.178117   -0.208595
 C   -4.483567    0.188254    0.004987
 C   -4.083110   -1.123268    0.258987
 C   -2.744932   -1.442129    0.298493
 C   -1.784463   -0.451149    0.084013
 C   -0.364030   -0.786420    0.133627
 O    0.087682   -1.887221    0.365271
 H    1.897971   -1.519487   -1.397765
 H    4.345441   -1.789966   -1.309834
 H    5.708687   -0.280428    0.086206
 H    4.615639    1.495313    1.405977
 H    2.166321    1.752816    1.337643
 H    0.697883    2.333320   -0.526408
 H   -3.842103    2.197597   -0.406691
 H   -5.536569    0.427255   -0.023783
 H   -4.826656   -1.888051    0.425163
 H   -2.406319   -2.448559    0.493729
