32 
4eh3_ligand_xtb.xyz
 C    2.147916   -1.804036    0.146615
 C    3.538344   -1.728772    0.097614
 C    4.177232   -0.498746    0.011804
 C    3.434865    0.672802   -0.053668
 C    2.019057    0.611692   -0.029802
 C    1.392088   -0.647202    0.097058
 C    1.235263    1.807370   -0.233708
 C   -0.249793    1.564877   -0.393565
 C   -0.690060    0.392447    0.484115
 O    0.053225   -0.782699    0.176415
 O    1.717566    2.932583   -0.326473
 C   -2.154778    0.095975    0.290964
 C   -2.578101   -0.656989   -0.794752
 C   -3.922131   -0.907739   -0.994940
 C   -4.866616   -0.397895   -0.111654
 C   -4.446585    0.361193    0.976915
 C   -3.101863    0.600063    1.173297
 O   -6.198087   -0.614508   -0.269550
 O    4.232078   -2.884901    0.152854
 O    4.077138    1.835732   -0.156073
 H    1.664256   -2.761409    0.235071
 H    5.254356   -0.428687   -0.013005
 H   -0.441594    1.328169   -1.444980
 H   -0.807076    2.466880   -0.140586
 H   -0.499068    0.651238    1.538978
 H   -1.848007   -1.062583   -1.477964
 H   -4.242133   -1.501590   -1.840995
 H   -5.188755    0.747974    1.656508
 H   -2.784269    1.185237    2.023776
 H   -6.353509   -1.155694   -1.053191
 H    5.180598   -2.704409    0.127647
 H    3.400813    2.554977   -0.226397
