29 
4eh4_ligand_ani.xyz
 C    2.634337   -0.396291   22.224129
 C    1.403693    0.498730   22.359498
 C    1.818987    1.971789   22.358441
 C    2.665789    2.296608   21.125924
 C    3.844546    1.326641   20.998344
 N    3.398164   -0.065550   21.024250
 C    3.098789   -0.785846   19.887081
 O    2.160789   -1.571296   19.854519
 C    3.967391   -0.575194   18.680073
 C    3.359847   -0.666087   17.427496
 C    4.111298   -0.496748   16.270755
 C    5.482767   -0.268916   16.357636
 C    6.100797   -0.218354   17.604450
 C    5.345972   -0.371069   18.764124
 H    2.357271   -1.449514   22.162315
 H    3.296507   -0.255774   23.089001
 H    0.733635    0.293177   21.515032
 H    0.856908    0.247829   23.276764
 H    2.400698    2.185684   23.267842
 H    0.935080    2.618826   22.393835
 H    3.046822    3.323880   21.174944
 H    2.049197    2.231223   20.220847
 H    4.532658    1.473362   21.842623
 H    4.397003    1.517689   20.077129
 H    2.293950   -0.871328   17.378740
 H    3.627962   -0.552021   15.298382
 H    6.071978   -0.140411   15.453435
 H    7.170509   -0.045747   17.677595
 H    5.831653   -0.341291   19.736787
