25 
4eh6_ligand_ani.xyz
 C    3.762962   -1.865734   17.853368
 C    4.129450   -2.519741   16.681930
 C    5.230625   -2.107311   15.938436
 C    5.975655   -1.016810   16.376517
 C    5.619820   -0.350886   17.542326
 C    4.515721   -0.773221   18.289473
 N    4.199043   -0.047615   19.458944
 C    3.345010   -0.405580   20.471516
 O    2.675564   -1.425537   20.480983
 C    3.305342    0.546842   21.634663
 C    2.948023    0.033456   22.879737
 C    2.909213    0.886266   23.973025
 C    3.203620    2.231196   23.771349
 N    3.516773    2.749433   22.582071
 C    3.567798    1.915174   21.543977
 H    2.912077   -2.193301   18.436168
 H    3.539417   -3.371338   16.351050
 H    5.504416   -2.631954   15.027390
 H    6.839345   -0.678849   15.809224
 H    6.205058    0.503357   17.876168
 H    4.808552    0.733512   19.646802
 H    2.709603   -1.023386   22.963356
 H    2.649662    0.519792   24.962066
 H    3.178969    2.932949   24.603037
 H    3.794280    2.388290   20.587422
