30 
4eh8_ligand_ani.xyz
 C   -0.674217   -5.013070  -13.394286
 C   -1.898334   -5.121513  -14.044128
 C   -2.427143   -4.022868  -14.716954
 C   -1.725036   -2.820988  -14.734510
 C   -0.499246   -2.713527  -14.083534
 C    0.032125   -3.810616  -13.409282
 C    1.361364   -3.732212  -12.700106
 O    1.848429   -2.407266  -12.737958
 C    3.037499   -2.155897  -12.121969
 C    3.802334   -3.126707  -11.478417
 C    3.469975   -0.825627  -12.166698
 C    4.670568   -0.479662  -11.565995
 C    5.442656   -1.444964  -10.925643
 C    5.012896   -2.767965  -10.882328
 C    5.868524   -3.821776  -10.220325
 O    5.054629   -4.905330   -9.813991
 H   -0.261885   -5.872606  -12.868295
 H   -2.441399   -6.063691  -14.025852
 H   -3.384008   -4.103021  -15.226517
 H   -2.133803   -1.959263  -15.258260
 H    0.050564   -1.777297  -14.093950
 H    1.250477   -4.060073  -11.656062
 H    2.086080   -4.408474  -13.176993
 H    3.486452   -4.162812  -11.414789
 H    2.853915   -0.087835  -12.672512
 H    5.008384    0.553228  -11.597108
 H    6.383763   -1.168332  -10.455483
 H    6.392684   -3.373892   -9.362332
 H    6.641981   -4.162068  -10.929254
 H    5.632775   -5.591881   -9.462473
