43 
4eh9_ligand_ani.xyz
 O   -2.014486    3.204274    0.606844
 C   -2.662880    2.396299   -0.054662
 C   -3.339807    2.701739   -1.293501
 C   -4.043842    1.752337   -1.959532
 C   -4.135218    0.432445   -1.469218
 C   -3.500137    0.106019   -0.303164
 N   -2.790480    1.072202    0.383110
 C   -2.104531    0.817291    1.656008
 C   -2.084326   -0.643156    2.107441
 C   -0.945410   -1.476176    1.512485
 C   -3.423526   -1.275229    1.770721
 C   -3.534514   -1.301733    0.248113
 C   -2.410711   -2.179988   -0.328298
 N   -1.107617   -1.667319    0.074000
 C   -0.061819   -1.908053   -0.786981
 O   -0.173505   -2.683024   -1.726401
 C    1.226143   -1.181846   -0.529666
 C    1.261007    0.158044   -0.140140
 C    2.474239    0.796985    0.076619
 C    3.661705    0.094075   -0.109443
 C    4.986602    0.765573    0.104749
 F    5.653860    0.924916   -1.055860
 F    4.859208    1.983349    0.660599
 F    5.787350    0.036948    0.907864
 C    3.636851   -1.234013   -0.532156
 C    2.422616   -1.864493   -0.755733
 H   -3.250214    3.721801   -1.644083
 H   -4.547766    2.012445   -2.888511
 H   -4.708964   -0.313473   -2.008370
 H   -1.090740    1.217439    1.566408
 H   -2.596816    1.428895    2.419810
 H   -1.931006   -0.629737    3.192491
 H    0.014257   -0.997000    1.710886
 H   -0.923693   -2.455886    2.019008
 H   -3.493735   -2.292289    2.175843
 H   -4.241457   -0.682938    2.191955
 H   -4.490471   -1.733740   -0.059867
 H   -2.438865   -2.185835   -1.418430
 H   -2.536276   -3.220761    0.009843
 H    0.330173    0.708592   -0.014931
 H    2.499674    1.830145    0.404986
 H    4.570986   -1.764332   -0.689112
 H    2.387101   -2.891143   -1.106511
