43 
4ehe_ligand_dft.xyz
 C   -4.180189    1.048652   -2.054739
 N   -5.455008    0.648334   -2.061245
 C   -5.872738   -0.116053   -1.048419
 C   -4.967492   -0.468335   -0.026267
 C   -3.661029    0.013700   -0.122127
 N   -3.249689    0.786884   -1.151066
 S   -5.197179   -1.434019    1.403452
 C   -3.553948   -1.172572    1.865291
 C   -2.845866   -0.407747    0.993976
 N   -7.159477   -0.540685   -1.075817
 C   -1.409414   -0.091496    1.255452
 O   -0.853742   -0.442300    2.280233
 N   -0.798696    0.609605    0.247192
 C    0.518138    1.076649    0.339550
 C    1.592619    0.246733    0.645022
 C    2.899112    0.723910    0.756655
 C    3.145516    2.073125    0.506580
 C    2.102974    2.914957    0.134987
 C    0.816063    2.413436    0.071644
 N    3.928747   -0.177267    1.112862
 F    1.384841   -1.065868    0.820613
 F   -0.200539    3.220676   -0.264828
 S    5.263451   -0.409015    0.115504
 O    5.950170    0.864043   -0.013183
 O    5.922947   -1.583396    0.658912
 C    4.580637   -0.804456   -1.501412
 C    3.768879   -2.094686   -1.523477
 C    3.229315   -2.382113   -2.924099
 H   -3.878234    1.668797   -2.894763
 H   -3.163464   -1.603659    2.777716
 H   -7.755548   -0.125902   -1.776061
 H   -7.599673   -0.913236   -0.250290
 H   -1.398964    0.981410   -0.491314
 H    4.158825    2.446240    0.591879
 H    2.274594    3.964229   -0.074277
 H    3.611910   -1.059730    1.498992
 H    5.452556   -0.856957   -2.161536
 H    3.984587    0.064743   -1.798446
 H    2.933592   -2.013975   -0.820029
 H    4.401649   -2.919979   -1.181895
 H    2.574989   -1.574159   -3.269556
 H    4.043677   -2.490376   -3.648738
 H    2.648841   -3.309245   -2.929910
