49 
4ehg_ligand_ani.xyz
 O   -6.121495   18.239131    6.136846
 C   -7.041011   18.736904    6.749060
 N   -8.181747   17.965334    7.046962
 C   -9.326288   18.210691    7.781699
 N   -9.477350   19.379689    8.412974
 C  -10.604724   19.529244    9.105744
 N  -11.599121   18.675008    9.245208
 C  -11.442958   17.499104    8.600746
 C  -10.304338   17.212810    7.850137
 N  -12.492300   16.630404    8.720554
 N   -7.088697   20.037871    7.190995
 C   -6.017610   20.921856    7.014595
 C   -5.391946   21.170905    5.800421
 C   -4.320510   22.059148    5.663360
 C   -3.853392   22.722368    6.791923
 C   -4.490346   22.529425    8.015042
 C   -5.558480   21.662961    8.104098
 F   -6.193296   21.504476    9.284282
 F   -5.853633   20.595941    4.666342
 N   -3.773753   22.204723    4.375754
 S   -2.930286   23.527200    3.825017
 C   -4.044765   24.915518    4.017017
 O   -1.808600   23.763333    4.716826
 O   -2.741390   23.279370    2.406843
 C   -5.290465   24.883352    3.136347
 C   -6.405908   23.961312    3.628643
 C  -12.380328   15.225370    8.396059
 C  -11.520572   14.430057    9.366327
 O  -12.161673   14.487446   10.627696
 H   -8.091023   17.039690    6.652736
 H  -10.722159   20.479891    9.622558
 H  -10.161297   16.265443    7.342282
 H  -13.091299   16.856203    9.502265
 H   -7.804415   20.273473    7.876577
 H   -2.996352   23.381034    6.722098
 H   -4.163861   23.055250    8.905071
 H   -4.178510   21.635040    3.642927
 H   -4.284650   24.970096    5.086375
 H   -3.412585   25.777050    3.774910
 H   -5.670896   25.911351    3.107890
 H   -4.996325   24.625863    2.112738
 H   -7.324337   24.149988    3.063551
 H   -6.166025   22.900205    3.508625
 H   -6.622471   24.132382    4.689974
 H  -13.392011   14.807919    8.398290
 H  -11.997759   15.124756    7.375357
 H  -11.431788   13.393126    9.006022
 H  -10.508953   14.863469    9.410113
 H  -11.571326   14.110826   11.290117
