40 
4ehv_ligand_xtb.xyz
 O   -0.702929    2.530842    1.424971
 C   -1.549754    2.092896    0.657844
 C   -2.228060    2.846349   -0.352611
 C   -3.174016    2.283121   -1.144750
 C   -3.489905    0.921563   -0.999493
 C   -2.841288    0.172067   -0.059890
 N   -1.913013    0.737138    0.746973
 C   -1.255665    0.029007    1.835753
 C   -1.371862   -1.489097    1.777630
 C   -0.395488   -2.097710    0.756578
 C   -2.806584   -1.856960    1.411692
 C   -3.063792   -1.314142    0.010380
 C   -2.071687   -1.970991   -0.970728
 N   -0.715257   -1.662741   -0.580624
 C   -0.034441   -0.706786   -1.270189
 O   -0.499432   -0.161618   -2.252464
 C    1.355438   -0.417604   -0.797354
 C    2.329206   -1.411690   -0.827437
 C    3.630878   -1.128215   -0.458317
 C    3.956266    0.157009   -0.051209
Cl    5.578843    0.508923    0.427576
 C    3.000418    1.160029   -0.027841
 C    1.703730    0.872040   -0.413877
 H   -1.946455    3.883386   -0.440767
 H   -3.681262    2.867042   -1.897942
 H   -4.220779    0.457723   -1.640510
 H   -1.691403    0.398225    2.772826
 H   -0.206513    0.344687    1.833310
 H   -1.114231   -1.884540    2.764655
 H   -0.471376   -3.191368    0.795499
 H    0.626385   -1.810905    1.005383
 H   -3.504449   -1.415821    2.126068
 H   -2.943619   -2.939916    1.426165
 H   -4.082261   -1.540471   -0.314885
 H   -2.206340   -3.057756   -0.965908
 H   -2.221598   -1.585873   -1.980917
 H    2.068465   -2.408592   -1.151842
 H    4.388795   -1.895253   -0.484656
 H    3.265025    2.156786    0.286522
 H    0.957681    1.651051   -0.403374
