40 
4ehv_ligand_ani.xyz
 O   -1.777142    3.143275    0.574999
 C   -2.389738    2.282582   -0.053589
 C   -3.158546    2.529180   -1.250949
 C   -3.809322    1.521812   -1.884687
 C   -3.748736    0.196509   -1.404182
 C   -3.021819   -0.074811   -0.278599
 N   -2.384115    0.953655    0.387213
 C   -1.644763    0.766832    1.641631
 C   -1.480186   -0.683218    2.097533
 C   -0.272732   -1.400850    1.489343
 C   -2.753050   -1.447866    1.779560
 C   -2.885607   -1.481388    0.258750
 C   -1.684036   -2.231409   -0.343031
 N   -0.431821   -1.599607    0.051575
 C    0.629463   -1.751693   -0.810987
 O    0.583898   -2.528636   -1.753750
 C    1.850652   -0.921884   -0.540381
 C    3.104820   -1.510505   -0.701661
 C    4.261566   -0.784604   -0.451313
 C    4.156782    0.548691   -0.069428
Cl    5.602364    1.463944    0.247867
 C    2.917124    1.167710    0.054597
 C    1.767948    0.424751   -0.186302
 H   -3.182137    3.554425   -1.597187
 H   -4.388479    1.738351   -2.780414
 H   -4.280350   -0.596086   -1.918975
 H   -2.168043    1.336610    2.416992
 H   -0.673118    1.254221    1.522048
 H   -1.315117   -0.651306    3.180447
 H   -0.149614   -2.375260    1.991563
 H    0.636885   -0.829324    1.678722
 H   -3.620444   -0.943506    2.215766
 H   -2.711822   -2.467554    2.182062
 H   -3.793275   -2.014627   -0.035924
 H   -1.701741   -3.284687   -0.021150
 H   -1.725871   -2.223005   -1.432749
 H    3.164372   -2.546424   -1.022739
 H    5.240321   -1.243061   -0.554874
 H    2.855708    2.210121    0.347463
 H    0.791116    0.899591   -0.104117
