50 
4ej2_ligand_xtb.xyz
 N    0.803379    0.765287   -0.477199
 C    0.411703    2.004174   -0.945665
 O    1.215261    2.867420   -1.238486
 N   -0.937181    2.176767   -1.046757
 C   -1.953163    1.285702   -0.693224
 O   -3.110662    1.592941   -0.840149
 C   -1.438446    0.024023   -0.157134
 C   -0.102857   -0.174691   -0.073360
 C   -2.390689   -0.932634    0.251960
 C   -3.284317   -1.677012    0.561278
 C   -4.386571   -2.527882    0.943862
 C    2.229751    0.522864   -0.386484
 C   -5.604920   -1.682868    1.340434
 C   -6.089447   -0.807324    0.187552
 C   -7.276509    0.063564    0.590177
 C   -7.731631    0.951640   -0.560793
 C    2.794075    0.992080    0.966936
 O    2.525660    2.339012    1.246251
 C    4.308084    0.719056    0.960825
 O    4.882168    1.017017    2.208134
 C    4.569605   -0.761285    0.649998
 O    5.937960   -1.011730    0.498003
 C    3.855913   -1.149239   -0.651062
 O    2.468647   -0.840484   -0.579285
 C    3.963543   -2.651941   -0.927369
 O    3.420700   -2.996432   -2.169266
 H   -1.238338    3.078766   -1.401525
 H    0.322991   -1.093056    0.298866
 H   -4.643479   -3.172121    0.097552
 H   -4.081498   -3.165312    1.778826
 H    2.703911    1.119956   -1.188354
 H   -5.337835   -1.047698    2.187882
 H   -6.407563   -2.351744    1.660666
 H   -6.377589   -1.442148   -0.654457
 H   -5.271093   -0.164826   -0.143910
 H   -8.105528   -0.571843    0.913341
 H   -6.989543    0.690409    1.437400
 H   -8.053542    0.346713   -1.405919
 H   -6.913302    1.588525   -0.888009
 H   -8.562402    1.583448   -0.254569
 H    2.333786    0.408275    1.775772
 H    2.481928    2.847482    0.420967
 H    4.778599    1.337948    0.176200
 H    4.481986    1.837971    2.524095
 H    4.157834   -1.360176    1.479442
 H    6.388374   -0.603082    1.248895
 H    4.314659   -0.596343   -1.484343
 H    5.018417   -2.927376   -0.950429
 H    3.461917   -3.193855   -0.113585
 H    2.511302   -2.675600   -2.196308
