25 
4ejl_ligand_ani.xyz
 C  -11.430172   56.315377   23.955089
 O  -10.792480   56.895545   24.791246
 O  -12.781340   56.255180   24.054416
 C  -10.809975   55.648528   22.733220
 C  -11.430291   54.304415   22.323246
 N  -11.979123   51.983307   25.163076
 C  -12.414565   52.923207   24.253532
 C  -11.398197   53.275019   23.415261
 C  -10.248160   52.505032   23.832858
 C   -8.921606   52.419713   23.382049
 C   -8.050301   51.559239   24.022281
 C   -8.475115   50.773838   25.112808
 C   -9.775665   50.836876   25.579412
 C  -10.651693   51.710468   24.926392
 H  -13.152726   55.806339   23.283066
 H  -10.867390   56.362281   21.899538
 H   -9.750074   55.517641   22.962820
 H  -12.463278   54.455618   21.979751
 H  -10.888826   53.934666   21.445289
 H  -12.544709   51.558887   25.878140
 H  -13.436297   53.284102   24.283511
 H   -8.585221   53.022012   22.540524
 H   -7.021070   51.484056   23.681903
 H   -7.766043   50.106168   25.595592
 H  -10.104682   50.231487   26.420980
