40 
4ek9_ligand_ani.xyz
 C    1.940749    3.318959   -0.430437
 N    1.649887    2.129064    0.391644
 C    1.143054    2.554382    1.719999
 C    2.847233    1.241640    0.520435
 C    2.503560   -0.242886    0.437972
 O    1.368120   -0.526256    1.260891
 C    0.648627   -1.634981    0.751561
 N   -0.765603   -1.325140    0.664919
 C   -1.360663   -0.252253    0.035371
 N   -0.783810    0.804697   -0.552354
 C   -1.690899    1.639414   -1.084256
 N   -3.015830    1.554014   -1.065117
 C   -3.567557    0.497291   -0.436164
 N   -4.907622    0.380855   -0.394549
 C   -2.728939   -0.464845    0.151859
 N   -2.998326   -1.636216    0.839992
 C   -1.815733   -2.106685    1.114927
 C    1.262909   -1.982342   -0.618178
 O    2.181627   -3.058888   -0.485202
 C    2.090624   -0.740812   -0.954872
 O    3.165918   -0.993611   -1.817026
 H    2.277784    3.019657   -1.425884
 H    1.038375    3.927954   -0.527343
 H    2.724172    3.926052    0.041698
 H    0.887169    1.578916   -0.051776
 H    0.268837    3.196332    1.583985
 H    0.868154    1.671060    2.292724
 H    1.916390    3.119619    2.256907
 H    3.559427    1.488125   -0.273649
 H    3.339464    1.453791    1.475706
 H    3.376285   -0.814168    0.788224
 H    0.732516   -2.475367    1.446660
 H   -1.294517    2.519075   -1.588873
 H   -5.322820   -0.388347    0.107760
 H   -5.483522    1.106158   -0.790023
 H   -1.620687   -3.030188    1.649089
 H    0.510480   -2.190483   -1.384172
 H    1.728044   -3.887302   -0.678393
 H    1.428896   -0.004946   -1.420383
 H    3.451569   -1.898121   -1.612600
