52 
4eke_ligand_dft.xyz
 N    0.709749   -0.540191    0.200784
 C    0.119497   -1.411865    1.086610
 O    0.729006   -1.932008    2.020967
 N   -1.225231   -1.654030    0.909366
 C   -1.865706   -1.121014   -0.191169
 C   -1.271471   -0.417132   -1.172578
 O   -3.192169   -1.219246   -0.346499
 C    0.205721   -0.209179   -1.147235
 C   -2.343821   -0.031512   -2.045498
 C   -3.486772   -0.540797   -1.515623
 C   -4.920224   -0.475522   -1.915257
 C    2.098402   -0.220389    0.483090
 C   -5.734385    0.610067   -1.188189
 C   -5.903008    0.368374    0.311355
 C   -6.748088    1.443788    0.994719
 C   -6.927472    1.191499    2.490553
 C    3.090709   -1.224028   -0.122301
 O    2.903147   -2.544389    0.333131
 C    4.503236   -0.751081    0.203600
 O    5.477192   -1.580821   -0.387949
 C    4.720429    0.665432   -0.304301
 O    5.980121    1.164686    0.076850
 C    3.644683    1.572262    0.290228
 O    2.349429    1.063486   -0.034777
 C    3.671896    2.991832   -0.247767
 O    2.663670    3.778206    0.339816
 H   -1.630140   -2.389295    1.467946
 H    0.718045   -0.828242   -1.899101
 H    0.469192    0.830955   -1.348142
 H   -2.275966    0.543898   -2.958244
 H   -4.952602   -0.287314   -2.993823
 H   -5.385807   -1.455586   -1.751504
 H    2.210462   -0.217939    1.575251
 H   -5.252976    1.582764   -1.353092
 H   -6.725075    0.666372   -1.658269
 H   -6.367368   -0.615709    0.469539
 H   -4.918602    0.321671    0.793332
 H   -7.732107    1.496447    0.509824
 H   -6.277403    2.424010    0.841030
 H   -7.532764    1.974285    2.958860
 H   -7.423940    0.230765    2.669352
 H   -5.958812    1.164628    3.002549
 H    2.972029   -1.228229   -1.214338
 H    2.357719   -2.518729    1.140207
 H    4.624453   -0.744371    1.301165
 H    5.243665   -2.487067   -0.141767
 H    4.612306    0.660461   -1.401919
 H    6.620893    0.471931   -0.134425
 H    3.759634    1.601917    1.384519
 H    3.571190    2.954211   -1.344841
 H    4.633115    3.450263   -0.008126
 H    1.844315    3.273737    0.249230
