52 
4eke_ligand_ani.xyz
 N    0.711836   -0.502254    0.298326
 C    0.118561   -1.429612    1.114462
 O    0.740886   -2.063859    1.963734
 N   -1.243522   -1.615302    0.950700
 C   -1.883699   -1.022779   -0.094840
 C   -1.328395   -0.173596   -0.986604
 O   -3.189377   -1.253732   -0.343906
 C    0.097800    0.218065   -0.832427
 C   -2.374636    0.155514   -1.897305
 C   -3.483948   -0.515009   -1.483272
 C   -4.888410   -0.552192   -1.967419
 C    2.120009   -0.232882    0.556786
 C   -5.804397    0.489289   -1.297549
 C   -5.861217    0.381023    0.223481
 C   -6.910917    1.304226    0.838423
 C   -6.964356    1.201230    2.360179
 C    3.057991   -1.253546   -0.116471
 O    2.964850   -2.545274    0.433666
 C    4.508559   -0.820263    0.027789
 O    5.353234   -1.659065   -0.728781
 C    4.710841    0.606959   -0.441688
 O    6.022343    1.044902   -0.164963
 C    3.735272    1.506618    0.304279
 O    2.394381    1.064618    0.069897
 C    3.786299    2.964719   -0.133415
 O    2.864531    3.734428    0.604574
 H   -1.683113   -2.295419    1.555402
 H    0.673081    0.005979   -1.743651
 H    0.197124    1.296474   -0.662981
 H   -2.309161    0.815009   -2.754079
 H   -4.884320   -0.378007   -3.049454
 H   -5.293812   -1.557692   -1.804015
 H    2.284096   -0.265392    1.644562
 H   -5.473231    1.498427   -1.574998
 H   -6.813735    0.365906   -1.711704
 H   -6.074251   -0.658581    0.510667
 H   -4.876048    0.618437    0.643594
 H   -7.897549    1.062887    0.417912
 H   -6.697180    2.341884    0.545594
 H   -7.720743    1.870916    2.782766
 H   -7.206669    0.179789    2.676618
 H   -5.997353    1.464351    2.804947
 H    2.816708   -1.286105   -1.192372
 H    2.285312   -2.534300    1.136029
 H    4.781015   -0.870714    1.098595
 H    5.139204   -2.564841   -0.460444
 H    4.487948    0.660856   -1.521271
 H    6.617488    0.396532   -0.566628
 H    3.951399    1.456746    1.384837
 H    3.588984    3.028313   -1.217260
 H    4.784387    3.368722    0.052811
 H    2.023318    3.260000    0.541134
