74 
4ekg_ligand_ani.xyz
 C    0.076168    0.398361   -2.209021
 C   -2.110908    0.416133   -1.824551
 C   -2.136407    1.810015   -1.879933
 C   -0.900794    2.455473   -2.027420
 C   -4.110069    1.215372   -1.416056
 C    6.798214   -1.056810   -1.795488
 C    6.286509   -1.154701   -0.353154
 C    6.017176   -2.638911   -0.042510
 C    7.400066   -0.638511    0.578170
 C    5.009127   -0.341601   -0.133283
 C    4.371202    0.379897   -1.143727
 C    3.229754    1.128090   -0.889555
 C    4.428543   -0.303510    1.138810
 C    3.282886    0.429696    1.410947
 C    2.680445    1.169766    0.395242
 N    1.575821    2.013209    0.605582
 C    0.577767    1.841670    1.543645
 O    0.588944    0.949188    2.392480
 N   -0.434384    2.758758    1.483265
 C   -1.589203    2.648940    2.363551
 C   -2.703418    1.708692    1.855535
 C   -2.899892    0.446029    2.694939
 N   -1.730922   -0.488683    2.676834
 C   -1.812225   -1.451135    3.795448
 C   -1.514345   -1.189221    1.373157
 C   -2.654816   -2.054443    0.828679
 O   -3.778478   -1.256652    0.433391
 C   -2.195425   -2.836536   -0.424809
 O   -2.091151   -4.218733   -0.211202
 C   -3.216270   -2.466198   -1.513284
 O   -4.155211   -3.535918   -1.607671
 C   -3.919371   -1.217952   -0.973484
 N   -3.408451    0.027868   -1.523739
 N   -3.410547    2.294055   -1.635433
 N   -1.023081   -0.332452   -2.007864
 N    0.212574    1.730353   -2.202576
 N   -0.798906    3.820425   -1.861704
 H    0.988779   -0.165126   -2.373343
 H   -5.157447    1.206229   -1.140619
 H    7.716487   -1.644246   -1.904191
 H    7.030327   -0.020897   -2.070072
 H    6.065630   -1.449070   -2.510788
 H    5.258917   -3.047764   -0.720571
 H    6.935512   -3.224888   -0.164871
 H    5.660862   -2.783189    0.982851
 H    7.115430   -0.702678    1.633490
 H    7.637097    0.409219    0.359057
 H    8.312730   -1.229990    0.441294
 H    4.771054    0.368640   -2.152780
 H    2.736158    1.666692   -1.694814
 H    4.875772   -0.863246    1.958813
 H    2.850111    0.436313    2.402659
 H    1.372170    2.600457   -0.192171
 H   -0.492031    3.405558    0.706843
 H   -1.224910    2.311237    3.339969
 H   -1.978953    3.661749    2.510181
 H   -2.520866    1.442632    0.807533
 H   -3.661848    2.242091    1.863687
 H   -3.077944    0.730346    3.740384
 H   -3.771692   -0.101075    2.333903
 H   -0.871788    0.075870    2.809203
 H   -0.939439   -2.109227    3.788001
 H   -2.718674   -2.062576    3.725827
 H   -1.835785   -0.910006    4.745546
 H   -0.625128   -1.818951    1.499330
 H   -1.271596   -0.436673    0.620696
 H   -3.005370   -2.770699    1.582848
 H   -1.212175   -2.461867   -0.722327
 H   -2.918723   -4.595500   -0.552586
 H   -2.720621   -2.285560   -2.468366
 H   -4.416966   -3.641879   -2.528592
 H   -4.987000   -1.224729   -1.202948
 H   -1.675304    4.301884   -2.033606
 H    0.001394    4.231486   -2.327111
