44 
4eky_ligand_ani.xyz
 N   -0.193156    1.278167    0.381324
 C   -0.106967    2.650120    0.537418
 O   -1.099665    3.368375    0.612267
 N    1.159047    3.147508    0.615640
 C    2.370330    2.469446    0.407992
 O    3.420857    3.070754    0.461756
 C    2.184003    1.039505    0.136550
 C    0.934388    0.514764    0.151382
 C    3.348211    0.250403   -0.113375
 C    4.347056   -0.396895   -0.321254
 C    5.553646   -1.183534   -0.582620
 C   -1.539648    0.686545    0.427612
 C    5.265338   -2.514814   -1.296506
 C    4.381059   -3.445022   -0.471860
 C   -2.270776    0.797475   -0.922672
 O   -2.730489    2.100038   -1.190763
 C   -3.502584   -0.092435   -0.955027
 O   -4.040057   -0.148955   -2.259017
 C   -3.179788   -1.506359   -0.515595
 O   -4.352198   -2.284712   -0.430614
 C   -2.537887   -1.450197    0.863079
 O   -1.353205   -0.652910    0.811053
 C   -2.097681   -2.811286    1.386843
 O   -1.512792   -2.691568    2.663131
 H    1.228349    4.145611    0.762532
 H    0.765534   -0.540285   -0.019356
 H    6.061452   -1.381795    0.370906
 H    6.249623   -0.581805   -1.182302
 H   -2.103627    1.233328    1.191784
 H    4.792991   -2.305377   -2.263826
 H    6.223389   -3.001420   -1.513764
 H    4.217270   -4.398270   -0.984442
 H    3.403934   -2.985690   -0.282550
 H    4.839434   -3.656714    0.501203
 H   -1.579359    0.458684   -1.712765
 H   -2.273568    2.724001   -0.592811
 H   -4.248695    0.322694   -0.253189
 H   -4.205864    0.767665   -2.522971
 H   -2.455311   -1.943698   -1.224430
 H   -4.795623   -2.205371   -1.286886
 H   -3.248623   -1.006459    1.579786
 H   -1.399453   -3.268385    0.664566
 H   -2.966272   -3.467501    1.480389
 H   -0.818625   -2.023412    2.575054
