46 
4el0_ligand_ani.xyz
 N   -0.232210   -0.479970   -0.537439
 C    0.382891   -1.589465   -1.112643
 O   -0.264824   -2.543971   -1.534669
 N    1.746198   -1.552165   -1.168421
 C    2.494089   -0.335162   -0.933469
 C    1.834810    0.439171    0.163626
 O    3.811223   -0.591464   -0.435558
 C    0.487906    0.453768    0.210015
 C    2.902032    0.860859    1.039186
 C    4.029602    0.240520    0.630854
 C    5.433958    0.290571    1.133691
 C   -1.697517   -0.420296   -0.588032
 C    6.449767    0.746378    0.074704
 C    7.867835    0.795748    0.634404
 C   -2.365626   -1.271668    0.510701
 O   -2.330744   -2.651550    0.240444
 C   -3.838233   -0.924307    0.656550
 O   -4.383961   -1.552982    1.796034
 C   -4.049521    0.569324    0.793930
 O   -5.424212    0.882188    0.801442
 C   -3.405214    1.260130   -0.399242
 O   -2.012818    0.945348   -0.445836
 C   -3.486802    2.780310   -0.335710
 O   -2.881405    3.363989   -1.465983
 H    2.187764   -2.304176   -1.674545
 H    2.603051    0.215941   -1.884038
 H   -0.107569    1.148362    0.788668
 H    2.808795    1.537287    1.877297
 H    5.465727    0.962972    1.999488
 H    5.714632   -0.709803    1.492027
 H   -2.007544   -0.790361   -1.573087
 H    6.159088    1.736029   -0.298380
 H    6.400682    0.064580   -0.780844
 H    8.186769   -0.192048    0.987257
 H    8.586119    1.126802   -0.123010
 H    7.933543    1.487702    1.482842
 H   -1.861833   -1.047334    1.467040
 H   -1.637383   -2.824973   -0.427137
 H   -4.364365   -1.262565   -0.254537
 H   -4.202914   -2.498678    1.694488
 H   -3.551786    0.917253    1.715874
 H   -5.823876    0.341570    1.497156
 H   -3.891851    0.916834   -1.327038
 H   -4.534229    3.090995   -0.323625
 H   -3.016525    3.129724    0.599770
 H   -1.990142    2.991075   -1.513034
