53 
4el9_ligand_ani.xyz
 O   -4.862681   -0.899632   -1.237387
 C   -3.529273   -1.169603   -0.854516
 C   -2.970849   -0.071623    0.030194
 O   -3.868069    0.073506    1.120354
 C   -3.454442   -2.504804   -0.123693
 O   -3.917252   -3.533230   -0.969766
 C   -2.010142   -2.793121    0.253356
 C   -1.860423   -4.082718    1.036645
 O   -1.506007   -1.723665    1.091767
 C   -1.570517   -0.449322    0.497543
 O   -0.740677   -0.402319   -0.654735
 C    0.576364   -0.113295   -0.396463
 C    1.487539   -1.033309    0.034684
 O    1.140710   -2.298356    0.439253
 C    1.032798    1.260907   -0.759622
 C    0.023803    2.337154   -0.375449
 C    0.043116    2.915039    0.890208
 C   -0.904337    3.863940    1.255126
 C   -1.878394    4.256960    0.336302
 O   -2.834051    5.179271    0.631671
 C   -1.896131    3.698570   -0.942948
 C   -0.955359    2.737356   -1.284266
 O    2.272791    1.591232   -0.132489
 C    3.244348    0.642437   -0.163489
 C    4.556864    1.064758   -0.278710
 C    5.563757    0.103239   -0.201376
 O    6.839218    0.542606   -0.326945
 C    5.266484   -1.242993    0.009069
 C    3.944948   -1.653447    0.131708
 C    2.886492   -0.709192    0.012201
 O    3.729334   -2.960788    0.343873
 H   -5.302364   -0.576793   -0.435193
 H   -2.931358   -1.237130   -1.770245
 H   -2.894966    0.853845   -0.551794
 H   -3.704538    0.926967    1.539085
 H   -4.058745   -2.443956    0.796340
 H   -4.747957   -3.203772   -1.342781
 H   -1.419366   -2.828025   -0.676998
 H   -2.312219   -4.913798    0.487652
 H   -0.803567   -4.312220    1.206238
 H   -2.355885   -3.987729    2.008175
 H   -1.210783    0.273177    1.236012
 H    0.299668   -2.251551    0.928169
 H    1.176167    1.299111   -1.854687
 H    0.815280    2.619457    1.596593
 H   -0.880106    4.306644    2.250571
 H   -2.703253    5.483859    1.538210
 H   -2.657640    4.024177   -1.646157
 H   -0.987345    2.284023   -2.274088
 H    4.802211    2.110980   -0.415973
 H    7.442987   -0.207274   -0.253638
 H    6.050002   -1.992297    0.085374
 H    2.777365   -3.118302    0.465343
