66 
4ele_ligand_xtb.xyz
 O    2.140020    2.078242    1.359594
 C    1.895464    1.205367    0.543514
 N    2.906472    0.373519    0.097653
 N    2.622861   -0.585263   -0.791629
 C    3.566848   -1.238077   -1.354203
 C    4.969114   -0.917373   -1.203598
 C    5.952622   -1.451784   -2.032248
 C    7.254323   -0.998790   -1.938984
 C    7.572276    0.014622   -1.047977
 C    6.597830    0.553907   -0.222554
 C    5.300641    0.072338   -0.270008
 C    4.240419    0.550400    0.680142
 C    4.292135   -0.172410    2.054461
 C    5.561197    0.185688    2.820644
 C    4.165144   -1.687088    1.914915
 C    0.576285    0.968717   -0.046088
 C   -0.480711    1.680438    0.365480
 C   -1.838126    1.557991   -0.134410
 C   -2.728395    2.634446    0.045414
 O   -2.266951    3.802518    0.636576
 C   -1.480731    4.611810   -0.213030
 C   -4.056105    2.505938   -0.374456
 O   -5.052174    3.422949   -0.247557
 C   -4.898314    4.555406    0.580335
 C   -4.452555    1.324998   -1.007588
 C   -3.576248    0.277507   -1.219415
 C   -4.046612   -0.994465   -1.878218
 C   -4.157748   -2.086773   -0.847483
 C   -5.305853   -2.232635   -0.090955
 N   -5.454986   -3.135937    0.865435
 C   -4.411196   -3.935305    1.080537
 N   -4.556405   -4.904410    2.018065
 N   -3.256207   -3.901129    0.419511
 C   -3.117547   -2.985078   -0.534170
 N   -1.893793   -2.946974   -1.138700
 C   -2.272854    0.395592   -0.762258
 H    3.259821   -2.007028   -2.048046
 H    5.684742   -2.214901   -2.748688
 H    8.020565   -1.421879   -2.571450
 H    8.584753    0.386126   -0.993649
 H    6.849724    1.351592    0.459850
 H    4.354372    1.624724    0.872538
 H    3.432218    0.202167    2.619773
 H    5.663735    1.264348    2.912350
 H    6.440913   -0.213422    2.320223
 H    5.517994   -0.237934    3.821261
 H    3.237869   -1.961027    1.416480
 H    5.001020   -2.093995    1.347882
 H    4.165806   -2.147923    2.900158
 H    0.518786    0.217714   -0.815920
 H   -0.319533    2.423397    1.137825
 H   -0.605866    4.074091   -0.591540
 H   -1.154626    5.455490    0.392824
 H   -2.066534    4.977172   -1.065980
 H   -4.259064    5.312862    0.119617
 H   -4.492766    4.287999    1.557493
 H   -5.903582    4.961319    0.697128
 H   -5.480562    1.263730   -1.329879
 H   -5.027028   -0.828901   -2.328200
 H   -3.351576   -1.278789   -2.672011
 H   -6.160495   -1.588041   -0.256441
 H   -5.333072   -4.812121    2.648392
 H   -3.723542   -5.366708    2.336363
 H   -1.828995   -2.558114   -2.064006
 H   -1.304561   -3.739439   -0.941619
 H   -1.591093   -0.433154   -0.860766
