26 
4en4_ligand_dft.xyz
 C   -0.194031   -1.915962    0.287221
 N   -1.519199   -1.764239    0.394835
 C   -2.054820   -0.582753    0.114675
 C   -1.261506    0.503864   -0.298154
 C    0.117543    0.350094   -0.438531
 C    0.665650   -0.905241   -0.117662
 C    1.022967    1.477381   -0.889481
 O    1.964354    1.871850    0.081857
 C    1.369402    2.414398    1.236874
 C    2.155577   -1.142412   -0.179555
 O    2.415717   -2.526758   -0.092542
 C   -3.542357   -0.419703    0.251906
 O   -1.937575    1.661819   -0.542649
 H    0.202424   -2.895393    0.530283
 H    0.448608    2.359927   -1.221664
 H    1.610978    1.160168   -1.756155
 H    0.744205    3.288191    0.990195
 H    0.748737    1.677158    1.764037
 H    2.181263    2.735808    1.891565
 H    2.638720   -0.589998    0.638841
 H    2.560753   -0.726430   -1.116266
 H    3.365965   -2.640616    0.011592
 H   -3.973398   -1.363068    0.591256
 H   -3.788278    0.371204    0.968916
 H   -3.998525   -0.135701   -0.702807
 H   -1.317573    2.375150   -0.730717
