37 
4eon_ligand_dft.xyz
 O    0.417863    0.969105   -1.119838
 C   -0.290728    0.025123   -0.832581
 N   -1.649435   -0.006176   -1.116802
 C   -2.213823   -1.101671   -0.718046
 N   -3.515250   -1.373608   -0.904807
 C   -4.434768   -0.347920   -1.398808
 C   -4.891410    0.604287   -0.330953
 C   -4.262696    1.741190    0.089481
 C   -4.931534    2.375431    1.177592
 C   -6.052773    1.706317    1.568726
 S   -6.314113    0.295576    0.613685
 S   -1.199602   -2.315841    0.081124
 C    0.191841   -1.225248   -0.128348
 C    1.402592   -1.611876    0.325005
 C    2.742027   -1.017250    0.337713
 C    3.764212   -1.810984    0.946582
 C    5.058881   -1.382993    1.028257
 C    5.427856   -0.118879    0.501545
 N    6.728364    0.275149    0.600257
 C    7.042015    1.449381    0.104105
 C    6.123139    2.326774   -0.522382
 C    4.814532    1.940594   -0.626442
 C    4.423975    0.680541   -0.106075
 C    3.089647    0.216851   -0.178767
 H   -3.910571   -2.160228   -0.411014
 H   -5.278029   -0.865355   -1.864159
 H   -3.906841    0.205079   -2.177423
 H   -3.342015    2.093456   -0.361345
 H   -4.591598    3.291804    1.645304
 H   -6.747589    1.968017    2.354759
 H    1.403227   -2.595651    0.794863
 H    3.499199   -2.783066    1.355327
 H    5.832151   -1.987170    1.490728
 H    8.086454    1.744454    0.193537
 H    6.465488    3.281776   -0.906742
 H    4.069852    2.576255   -1.097975
 H    2.333153    0.836460   -0.644278
