59 
4eox_ligand_xtb.xyz
 C    4.577028   -1.723632   -1.088123
 C    4.874778   -1.107297    0.116407
 C    3.635797   -1.163630   -1.936556
 C    4.228115    0.061595    0.468854
 C    2.977553    0.001825   -1.584721
 C    3.265622    0.620748   -0.370465
 C   -4.981312   -1.384154    0.360270
 C    2.611721    1.874199    0.104497
 C    0.469178    3.084639   -0.095754
 C   -1.156333    0.388066   -0.829895
 C    1.603054   -2.021108    2.396948
 C    2.125028   -3.179820    1.538448
 C   -2.355639    3.228820    1.171606
 C   -1.953922    3.823414   -0.176219
 C    0.204899   -1.745627    1.852177
 C    1.315396   -3.131354    0.230789
 C   -2.368586    1.719948    0.915415
 C   -0.936025    2.810229   -0.683203
 C    0.394989   -1.906611    0.344077
 C   -0.891442   -2.075684   -0.460513
 C   -3.112737   -1.074615   -1.176929
 C   -1.836539   -0.876677   -0.335420
 N   -1.453369    1.531476   -0.201754
 N    1.344383    2.079169   -0.434017
 N   -4.093255   -1.897302   -0.509534
 O   -5.113742   -0.200845    0.563685
 O    3.117125    2.605521    0.916214
 O    0.726348    4.050030    0.567017
 O   -0.372642    0.368916   -1.778243
 O   -3.914235   -3.276175   -0.551346
 H    5.080377   -2.637591   -1.368029
 H    5.613693   -1.535595    0.777434
 H    3.411503   -1.636990   -2.881121
 H    4.452305    0.562878    1.398695
 H    2.257842    0.420676   -2.271960
 H   -5.590325   -2.166140    0.839980
 H    1.598293   -2.262159    3.458962
 H    2.227351   -1.138056    2.249952
 H    1.966012   -4.130425    2.047594
 H    3.192930   -3.076679    1.351211
 H   -1.598453    3.481301    1.913516
 H   -3.321402    3.587114    1.519047
 H   -1.507638    4.809701   -0.073264
 H   -2.808024    3.875872   -0.851479
 H   -0.152166   -0.755376    2.133825
 H   -0.501249   -2.492669    2.220540
 H    0.712213   -4.034217    0.125247
 H    1.960678   -3.056039   -0.643136
 H   -2.025239    1.166113    1.793591
 H   -3.372391    1.370038    0.654736
 H   -0.849759    2.776247   -1.775052
 H    0.933937   -1.032164   -0.031448
 H   -0.622622   -2.198873   -1.512106
 H   -1.417851   -2.972579   -0.127787
 H   -2.860285   -1.528013   -2.138258
 H   -3.603498   -0.113627   -1.351566
 H   -2.134868   -0.755138    0.706261
 H    0.977939    1.373560   -1.076038
 H   -4.290205   -3.613795   -1.380981
