66 
4ere_ligand_ani.xyz
Cl    1.361497    6.310981   -1.648205
 C    0.834978    4.683760   -1.314268
 C    0.958469    4.175320   -0.027105
 C    0.539061    2.873229    0.235038
 C    0.296050    3.916150   -2.337373
 C   -0.120232    2.617629   -2.057225
 C   -0.001951    2.077963   -0.776451
 C   -0.489697    0.657023   -0.500889
 N    0.516654   -0.092087    0.259848
 C    1.806229   -0.326864   -0.393095
 C    1.912642   -1.791638   -0.826912
 O    0.953706   -2.450814   -1.156104
 C    0.337331   -0.682889    1.481907
 O    1.213782   -1.369226    1.992792
 C   -0.994141   -0.508598    2.194810
 C   -0.749614   -0.503030    3.703188
 C    0.186432    0.583315    4.183504
 O    0.640052    1.495589    3.528579
 O    0.478398    0.434462    5.487530
 C   -1.775550    0.686251    1.669485
 C   -1.892798    0.642797    0.143641
 C   -2.771562   -0.504234   -0.350456
 C   -2.280891   -1.778391   -0.650264
 C   -3.142370   -2.791063   -1.065485
 C   -4.507338   -2.560731   -1.191191
 C   -4.993102   -1.294492   -0.892171
Cl   -6.700818   -0.977722   -1.044353
 C   -4.145680   -0.275464   -0.477869
 C    3.003415    0.226516    0.408288
 C    4.152565    0.698894   -0.477926
 O    3.183494   -2.216703   -0.868231
 C    3.473328   -3.615653   -1.167574
 C    2.812182   -4.538292   -0.145486
 C    3.050054   -3.962202   -2.592301
 C    4.990817   -3.691707   -1.039845
 H    1.380874    4.788903    0.762467
 H    0.639355    2.485649    1.248207
 H    0.205150    4.329144   -3.337374
 H   -0.547285    2.015832   -2.856591
 H   -0.573005    0.163282   -1.480574
 H    1.750204    0.226978   -1.339722
 H   -1.562357   -1.419561    1.956532
 H   -0.307289   -1.458248    3.999992
 H   -1.691106   -0.399388    4.255925
 H    1.090549    1.155515    5.711107
 H   -2.777206    0.687760    2.111764
 H   -1.289706    1.616520    1.976805
 H   -2.397175    1.558762   -0.184597
 H   -1.216232   -1.996520   -0.570473
 H   -2.736072   -3.770769   -1.300129
 H   -5.185241   -3.343875   -1.515259
 H   -4.568270    0.702595   -0.257337
 H    3.343436   -0.524715    1.124111
 H    2.620603    1.068173    0.997286
 H    4.535647   -0.120474   -1.092327
 H    3.830376    1.510208   -1.141779
 H    4.974920    1.080724    0.135325
 H    3.161851   -5.563865   -0.306062
 H    3.083076   -4.235665    0.871500
 H    1.724662   -4.519384   -0.243055
 H    3.485229   -3.246671   -3.296834
 H    1.964136   -3.946119   -2.696996
 H    3.414949   -4.964176   -2.843095
 H    5.464259   -3.012479   -1.755110
 H    5.343855   -4.708175   -1.241510
 H    5.302470   -3.408823   -0.030010
