66 
4ere_ligand_xtb.xyz
Cl    0.336191    6.643251   -0.950042
 C    0.062511    4.938785   -0.845428
 C    0.424641    4.253172    0.302170
 C    0.206749    2.888962    0.381184
 C   -0.515954    4.272049   -1.913215
 C   -0.726486    2.908315   -1.823232
 C   -0.369229    2.201936   -0.681221
 C   -0.637720    0.711165   -0.612631
 N    0.492470    0.007130   -0.038740
 C    1.718140   -0.026232   -0.833104
 C    2.046619   -1.516164   -1.048922
 O    1.183148   -2.289419   -1.391226
 C    0.507097   -0.735787    1.083840
 O    1.500433   -1.370233    1.402306
 C   -0.760121   -0.798449    1.923210
 C   -0.355430   -0.885181    3.397567
 C    0.585916    0.220617    3.800567
 O    0.846320    1.203855    3.158153
 O    1.115385   -0.003968    5.005045
 C   -1.713684    0.352286    1.634542
 C   -1.963706    0.451264    0.127401
 C   -2.702676   -0.774004   -0.359740
 C   -2.062925   -1.892391   -0.880804
 C   -2.800683   -2.997324   -1.273855
 C   -4.178456   -3.013759   -1.153470
 C   -4.811869   -1.897721   -0.632820
Cl   -6.535968   -1.886698   -0.472150
 C   -4.088555   -0.786411   -0.239812
 C    2.858568    0.775868   -0.200998
 C    3.907098    1.175651   -1.230562
 O    3.321602   -1.782847   -0.895253
 C    3.821743   -3.144958   -0.957386
 C    3.065740   -4.024977    0.035450
 C    3.699820   -3.676360   -2.384738
 C    5.288807   -3.012151   -0.549310
 H    0.874608    4.780776    1.128270
 H    0.497255    2.361954    1.276440
 H   -0.793539    4.813338   -2.803849
 H   -1.177137    2.387132   -2.655932
 H   -0.760782    0.346486   -1.643296
 H    1.481083    0.393677   -1.817078
 H   -1.251901   -1.741500    1.653859
 H    0.160834   -1.827085    3.589209
 H   -1.233536   -0.843519    4.045275
 H    1.732466    0.705273    5.245721
 H   -2.661023    0.182109    2.151412
 H   -1.290064    1.288413    1.995362
 H   -2.606688    1.319591   -0.057035
 H   -0.989831   -1.923802   -0.987929
 H   -2.289113   -3.857414   -1.677341
 H   -4.754186   -3.873353   -1.457758
 H   -4.605827    0.073022    0.159653
 H    3.311524    0.179983    0.590169
 H    2.436330    1.674966    0.248697
 H    4.339041    0.296252   -1.698962
 H    3.464309    1.802712   -2.002636
 H    4.704479    1.737177   -0.750684
 H    3.600360   -4.959500    0.181694
 H    2.976748   -3.504025    0.985958
 H    2.065278   -4.239298   -0.329245
 H    4.239690   -3.031069   -3.074952
 H    2.655270   -3.713925   -2.682029
 H    4.117566   -4.677832   -2.438313
 H    5.802529   -2.325033   -1.216849
 H    5.777930   -3.980705   -0.593106
 H    5.354395   -2.624403    0.463425
