61 
4erf_ligand_ani.xyz
 C    2.826748   -1.724849    0.175515
 C    4.207938   -1.856885    0.258609
Cl    4.899468   -2.777762    1.567804
 C    5.050651   -1.267452   -0.675007
 C    4.484957   -0.538402   -1.715277
 C    3.102809   -0.408103   -1.813799
 C    2.257714   -1.000719   -0.873588
 C    0.746476   -0.862283   -0.995229
 C    0.058762   -2.209449   -1.176597
 C   -1.462157   -2.088223   -1.255405
 C   -1.887791   -1.264589   -2.502391
 C   -3.367304   -0.961822   -2.509241
 O   -4.247326   -1.743995   -2.780497
 O   -3.630933    0.319138   -2.166910
 C   -2.085001   -3.483863   -1.298637
 C   -1.975750   -1.372318   -0.005501
 O   -3.060578   -1.721841    0.467218
 N   -1.245453   -0.350343    0.519515
 C   -1.774188    0.366160    1.706569
 C   -3.083230    1.112464    1.410870
 C   -3.525644    1.997177    2.575786
 C   -1.887578   -0.481944    3.003098
 O   -3.142029   -1.106499    3.145541
 C   -0.734485   -1.462363    3.205054
 C    0.177436   -0.096038    0.220541
 C    0.447407    1.393247    0.036386
 C    1.585317    1.961571    0.608840
 C    1.874699    3.313946    0.455327
 C    1.015189    4.102044   -0.299605
Cl    1.359854    5.797867   -0.500714
 C   -0.111119    3.557472   -0.903946
 C   -0.386946    2.203331   -0.736987
 H    2.208456   -2.199727    0.934609
 H    6.126401   -1.381635   -0.584542
 H    5.126363   -0.067913   -2.455806
 H    2.672978    0.169442   -2.631040
 H    0.563048   -0.255626   -1.889245
 H    0.318836   -2.877545   -0.345577
 H    0.423831   -2.688370   -2.092299
 H   -1.341250   -0.322186   -2.542809
 H   -1.656571   -1.847762   -3.399997
 H   -4.599803    0.400409   -2.168663
 H   -1.839963   -4.036837   -0.387554
 H   -1.697484   -4.041185   -2.158782
 H   -3.168757   -3.417161   -1.384580
 H   -1.012151    1.123900    1.921516
 H   -2.920270    1.725488    0.516937
 H   -3.873848    0.396975    1.174534
 H   -2.739856    2.707482    2.859590
 H   -3.776520    1.386358    3.450199
 H   -4.414686    2.573273    2.303591
 H   -1.843633    0.241660    3.829942
 H   -3.334718   -1.537306    2.293489
 H   -0.670161   -2.195027    2.393045
 H   -0.896961   -2.005844    4.140257
 H    0.226557   -0.938212    3.276741
 H    0.753253   -0.404975    1.103889
 H    2.269004    1.333502    1.178311
 H    2.754499    3.755476    0.914295
 H   -0.764389    4.190063   -1.496942
 H   -1.265042    1.780810   -1.225356
