61 
4erf_ligand_xtb.xyz
 C    2.863892   -1.773647    0.120890
 C    4.242134   -1.820017    0.238720
Cl    4.954152   -2.871660    1.413271
 C    5.056029   -1.036854   -0.563567
 C    4.466790   -0.198959   -1.492929
 C    3.089444   -0.147282   -1.619075
 C    2.274047   -0.935704   -0.817613
 C    0.772986   -0.849579   -0.943153
 C    0.111886   -2.206886   -1.144847
 C   -1.404648   -2.065384   -1.272728
 C   -1.808387   -1.356300   -2.588158
 C   -3.249213   -0.902616   -2.517996
 O   -4.206115   -1.551618   -2.830191
 O   -3.335959    0.360450   -2.074144
 C   -2.049039   -3.456469   -1.256416
 C   -1.989235   -1.273410   -0.098516
 O   -3.163246   -1.442185    0.202291
 N   -1.195764   -0.428250    0.580506
 C   -1.708318    0.256339    1.781847
 C   -2.830499    1.242243    1.432264
 C   -3.146817    2.176391    2.592676
 C   -2.126977   -0.723891    2.918724
 O   -3.471787   -1.101062    2.870006
 C   -1.200810   -1.944990    2.983958
 C    0.208680   -0.154938    0.311048
 C    0.447250    1.330641    0.148189
 C    1.483669    1.960200    0.822519
 C    1.735955    3.307103    0.632222
 C    0.939747    4.030666   -0.240477
Cl    1.244708    5.714366   -0.479872
 C   -0.096214    3.417061   -0.927856
 C   -0.332187    2.068946   -0.735759
 H    2.261216   -2.394811    0.765044
 H    6.128083   -1.083951   -0.458896
 H    5.088101    0.419315   -2.122524
 H    2.644202    0.516272   -2.345366
 H    0.554400   -0.221274   -1.810590
 H    0.326796   -2.856722   -0.294943
 H    0.517156   -2.682627   -2.040334
 H   -1.190882   -0.477017   -2.765273
 H   -1.698307   -2.056944   -3.416378
 H   -4.265728    0.609874   -1.954357
 H   -1.870767   -3.950764   -0.303641
 H   -1.631748   -4.070096   -2.051237
 H   -3.122533   -3.372570   -1.400476
 H   -0.862320    0.834940    2.166016
 H   -2.512519    1.830812    0.570479
 H   -3.727301    0.689019    1.157533
 H   -2.250413    2.699506    2.921386
 H   -3.557893    1.619424    3.429138
 H   -3.880677    2.915924    2.282216
 H   -2.023898   -0.171399    3.861542
 H   -3.653214   -1.417337    1.966095
 H   -1.294887   -2.548644    2.084065
 H   -1.489183   -2.558102    3.833755
 H   -0.165139   -1.637541    3.109097
 H    0.778597   -0.508291    1.182226
 H    2.105880    1.393989    1.500132
 H    2.542591    3.792776    1.157710
 H   -0.707686    3.989420   -1.607389
 H   -1.136326    1.587905   -1.273846
