40 
4erk_ligand_ani.xyz
 N  -15.949028   11.729900   40.767675
 C  -16.823133   10.987133   41.527457
 N  -17.677634   11.695832   42.216288
 C  -17.348998   12.999926   41.895035
 C  -16.281381   13.041930   40.996969
 C  -17.875086   14.256883   42.269849
 N  -17.342162   15.368067   41.762672
 C  -16.296253   15.255880   40.920683
 N  -15.713649   14.124422   40.473107
 C  -14.890627   11.260978   39.891129
 N  -15.782656   16.419471   40.439518
 C  -16.072677   17.725654   40.996750
 C  -14.999905   18.246051   41.941178
 O  -14.930886   17.379631   43.050760
 N  -18.898469   14.366850   43.148395
 C  -19.600270   15.627440   43.332623
 C  -17.865703   16.368676   45.035759
 C  -17.137053   17.364465   45.679880
 C  -17.312276   18.700522   45.328324
 C  -18.223977   19.038355   44.332366
 C  -18.953942   18.039210   43.694184
 C  -18.782967   16.695911   44.038695
 H  -16.771556    9.904295   41.523069
 H  -14.434513   12.133520   39.417415
 H  -14.129862   10.721461   40.462596
 H  -15.301873   10.604013   39.119982
 H  -14.947333   16.307348   39.883736
 H  -16.191362   18.440592   40.172212
 H  -17.023149   17.656657   41.530020
 H  -14.037963   18.294541   41.401451
 H  -15.261404   19.274298   42.242739
 H  -14.230224   17.680726   43.640919
 H  -19.379956   13.504422   43.363149
 H  -19.911634   16.030465   42.359292
 H  -20.508462   15.402811   43.901622
 H  -17.717141   15.323834   45.296472
 H  -16.424609   17.097001   46.456823
 H  -16.737483   19.477461   45.827433
 H  -18.365181   20.079461   44.049829
 H  -19.658576   18.305932   42.907944
