65 
4erw_ligand_dft.xyz
 O   -0.942540   -1.537446   -1.791036
 C   -0.026393   -2.378228   -1.147828
 C   -0.690663   -3.416879   -0.244259
 C   -1.746875   -2.791595    0.651055
 C   -2.725444   -1.940210   -0.169549
 C   -2.039504   -0.932654   -1.131307
 C   -2.979655   -0.555500   -2.271430
 N   -1.570103    0.273991   -0.392408
 C   -0.224877    0.623062   -0.340952
 C    0.905479   -0.195034   -0.355374
 C    2.192196    0.337147   -0.179098
 C    2.324650    1.727460   -0.050148
 C    1.208084    2.546413   -0.020828
 C   -0.078532    2.007324   -0.137227
 C   -1.413267    2.551456   -0.061212
 C   -2.307590    1.472101   -0.210839
 C   -3.684431    1.678543   -0.117386
 C   -4.141484    2.972603    0.084841
 C   -3.259568    4.053100    0.217467
 C   -1.893124    3.846276    0.158046
 C    1.588382    3.991045    0.149159
 N    3.081188    3.959695   -0.090041
 C    3.596575    2.497874    0.107654
 O    4.237629    2.407126    1.318559
 C    3.107576   -0.785672   -0.170278
 C    2.325448   -1.943175   -0.349249
 C    2.895611   -3.209504   -0.441446
 C    4.277607   -3.298102   -0.325393
 C    5.067063   -2.160447   -0.107308
 C    4.492853   -0.901035   -0.025998
 N    0.966464   -1.584145   -0.410733
 O   -3.556180   -1.234447    0.711764
 C   -4.833304   -1.827243    0.954714
 N   -1.164770   -1.916168    1.737353
 C   -0.739886   -2.640650    2.969406
 H    0.496519   -2.887639   -1.962411
 H    0.070001   -3.954572    0.329986
 H   -1.195834   -4.156942   -0.872850
 H   -2.314133   -3.563264    1.179284
 H   -3.300298   -2.635779   -0.794061
 H   -3.946910   -0.207111   -1.912314
 H   -3.132076   -1.437942   -2.896414
 H   -2.524090    0.229440   -2.878306
 H   -4.387736    0.859909   -0.169260
 H   -5.210016    3.146555    0.155420
 H   -3.652883    5.050225    0.381511
 H   -1.210680    4.681212    0.287416
 H    1.402085    4.380537    1.154038
 H    1.130938    4.666420   -0.577096
 H    3.604002    4.572237    0.543823
 H    3.287982    4.267648   -1.044214
 H    4.343159    2.337899   -0.673644
 H    3.624186    2.085740    1.994788
 H    2.301519   -4.103421   -0.605248
 H    4.753644   -4.270021   -0.399101
 H    6.140609   -2.270557   -0.001680
 H    5.112644   -0.028190    0.155390
 H   -4.735728   -2.823249    1.403125
 H   -5.351685   -1.167230    1.649717
 H   -5.403789   -1.900199    0.022756
 H   -1.903710   -1.227937    1.951653
 H   -0.362430   -1.399380    1.357718
 H   -0.332188   -1.919902    3.678294
 H    0.022419   -3.372958    2.704060
 H   -1.607809   -3.137859    3.402732
