89 
4es0_ligand_xtb.xyz
 N   -0.360082   -1.223948   -2.421534
 C   -1.108261   -2.434640   -2.046985
 C   -2.580111   -2.017020   -1.960133
 O   -3.098923   -1.388680   -2.866395
 N   -3.189002   -2.361041   -0.822785
 C   -4.476276   -1.789709   -0.462360
 C   -4.131134   -0.358595   -0.001579
 O   -3.860664   -0.117473    1.165810
 C   -5.125041   -2.600771    0.646301
 S   -5.227111   -4.375125    0.228899
 N   -4.095343    0.529609   -1.000912
 C   -3.426061    1.815786   -0.882698
 C   -1.917776    1.568156   -0.674580
 O   -1.468710    0.425217   -0.621029
 C   -4.049053    2.674516    0.217764
 N   -1.189984    2.678096   -0.621979
 C    0.238041    2.736402   -0.361488
 C    0.990131    1.790831   -1.301006
 O    0.491024    1.322878   -2.306569
 C    0.542054    2.523724    1.138756
 C    1.472532    3.575686    1.755124
 C    0.786126    4.898303    2.147859
 N    0.504342    5.788139    1.045472
 C   -0.613371    5.732028    0.256019
 N   -0.487539    6.361477   -0.960939
 N   -1.705995    5.112282    0.502465
 N    2.275888    1.569657   -0.968197
 C    3.105794    0.628795   -1.697654
 C    2.851573   -0.759415   -1.099663
 O    2.165381   -1.600910   -1.674251
 C    4.577146    1.043548   -1.621028
 O    4.904327    1.328431   -0.269205
 N    3.376386   -0.942196    0.105631
 C    3.022327   -2.061055    0.947315
 C    1.941967   -1.548123    1.915875
 O    1.819270   -0.359266    2.132866
 C    4.242413   -2.606731    1.708997
 C    5.538182   -2.490047    0.893053
 C    5.351983   -2.819295   -0.571481
 O    4.761774   -3.996470   -0.759786
 O    5.696000   -2.103490   -1.475331
 N    1.188161   -2.495291    2.503181
 C    0.023610   -2.107960    3.266294
 C   -1.161611   -1.838307    2.335280
 O   -1.265957   -2.392344    1.262070
 O   -1.996407   -0.974835    2.833165
 H    0.678738   -1.354424   -2.334358
 H   -0.615744   -0.903754   -3.358836
 H   -0.634180   -0.449596   -1.758274
 H   -0.977727   -3.211235   -2.802885
 H   -0.753974   -2.789638   -1.080790
 H   -2.617725   -2.673993   -0.040985
 H   -5.105314   -1.768015   -1.358254
 H   -6.122621   -2.224389    0.866893
 H   -4.522262   -2.553005    1.553047
 H   -6.103776   -4.244702   -0.764473
 H   -4.172498    0.155214   -1.939995
 H   -3.541640    2.322954   -1.845889
 H   -3.641094    3.680777    0.201117
 H   -5.122185    2.733934    0.054531
 H   -3.876404    2.227616    1.192332
 H   -1.659520    3.585797   -0.485131
 H    0.545940    3.744797   -0.660435
 H    0.960193    1.529161    1.301568
 H   -0.407229    2.541484    1.677822
 H    2.302772    3.798667    1.080093
 H    1.893578    3.152703    2.668165
 H    1.439055    5.439047    2.838285
 H   -0.145382    4.685418    2.677907
 H    1.307079    6.254965    0.652366
 H    0.146927    7.142679   -1.011314
 H   -1.369339    6.522152   -1.422863
 H   -1.732475    4.677216    1.417621
 H    2.656583    1.902119   -0.095260
 H    2.772216    0.620639   -2.740648
 H    4.731568    1.936336   -2.238900
 H    5.194347    0.223888   -2.005831
 H    5.845969    1.521127   -0.217184
 H    3.899023   -0.180499    0.524102
 H    2.601720   -2.830650    0.291752
 H    4.054040   -3.650227    1.958356
 H    4.372862   -2.052298    2.639774
 H    6.276124   -3.184216    1.298635
 H    5.949466   -1.482646    0.953621
 H    4.673434   -4.194593   -1.705963
 H    1.226883   -3.444806    2.167763
 H   -0.243833   -2.899494    3.968553
 H    0.248863   -1.192708    3.816901
 H   -2.744535   -0.710399    2.223221
