89 
4es0_ligand_ani.xyz
 N   -0.262095   -1.234982   -2.033636
 C   -0.962036   -2.508756   -2.302797
 C   -2.452063   -2.318387   -2.042744
 O   -3.171204   -1.720056   -2.841026
 N   -2.910317   -2.822767   -0.869841
 C   -4.246048   -2.492743   -0.402260
 C   -4.183744   -1.071157    0.189222
 O   -4.022192   -0.905080    1.398045
 C   -4.723564   -3.486581    0.649596
 S   -4.940120   -5.180063    0.043288
 N   -4.263592   -0.070637   -0.717423
 C   -3.773848    1.273045   -0.457767
 C   -2.226982    1.305382   -0.373711
 O   -1.556852    0.309333   -0.105320
 C   -4.414912    1.915138    0.775798
 N   -1.704486    2.533255   -0.623347
 C   -0.304212    2.873933   -0.460307
 C    0.606824    2.039348   -1.381755
 O    0.197571    1.469246   -2.385331
 C    0.127454    2.882000    1.025539
 C    1.004082    4.075134    1.443255
 C    0.252110    5.354405    1.851350
 N   -0.363558    6.116278    0.775019
 C   -1.593430    5.810195    0.220046
 N   -1.763123    6.355879   -1.046802
 N   -2.527814    5.075338    0.706775
 N    1.921609    2.050828   -1.038690
 C    2.939287    1.317369   -1.770163
 C    3.052685   -0.113576   -1.203625
 O    2.490663   -1.055346   -1.752060
 C    4.241784    2.109112   -1.716788
 O    4.443967    2.508967   -0.358938
 N    3.772486   -0.248347   -0.059734
 C    3.622696   -1.423264    0.778357
 C    2.537093   -1.146437    1.822841
 O    2.498017   -0.082800    2.421818
 C    4.926092   -1.754704    1.510164
 C    6.130762   -1.917320    0.586637
 C    6.047568   -3.069644   -0.385830
 O    5.413203   -4.145868    0.135193
 O    6.518205   -3.083922   -1.496249
 N    1.672521   -2.172330    2.077912
 C    0.533343   -1.970940    2.936107
 C   -0.767129   -2.093263    2.168233
 O   -0.839055   -2.667963    1.094640
 O   -1.778503   -1.549186    2.819496
 H    0.762096   -1.326218   -2.118859
 H   -0.565716   -0.481133   -2.667751
 H   -0.471045   -0.894587   -1.082954
 H   -0.827599   -2.803133   -3.346210
 H   -0.548450   -3.284249   -1.651717
 H   -2.224160   -3.061017   -0.155990
 H   -4.909115   -2.493445   -1.274311
 H   -5.647603   -3.129300    1.108873
 H   -3.975858   -3.544707    1.448741
 H   -5.911093   -4.897957   -0.840016
 H   -4.170083   -0.378702   -1.682478
 H   -4.056824    1.859580   -1.341557
 H   -4.117279    2.968544    0.855441
 H   -5.502518    1.861891    0.680489
 H   -4.126900    1.382917    1.683914
 H   -2.313079    3.335007   -0.469535
 H   -0.208674    3.892064   -0.855261
 H    0.631460    1.937364    1.268750
 H   -0.781696    2.885934    1.638968
 H    1.730528    4.320756    0.652896
 H    1.599596    3.765447    2.310143
 H    0.954924    6.029694    2.351086
 H   -0.511931    5.110735    2.598369
 H    0.302918    6.475049    0.103760
 H   -1.411383    7.298190   -1.155758
 H   -2.722507    6.272443   -1.355736
 H   -2.303265    4.773084    1.651887
 H    2.236405    2.511168   -0.195293
 H    2.594505    1.204159   -2.797327
 H    4.152169    2.991010   -2.365022
 H    5.072115    1.486976   -2.077439
 H    5.325646    2.892703   -0.279858
 H    4.023402    0.611127    0.418910
 H    3.336576   -2.253205    0.125973
 H    4.780507   -2.669669    2.091639
 H    5.132301   -0.945225    2.220483
 H    7.032194   -2.089190    1.189479
 H    6.309426   -1.012803   -0.001076
 H    5.443809   -4.826321   -0.557856
 H    1.596689   -2.916515    1.399720
 H    0.515825   -2.700803    3.755419
 H    0.611664   -0.974100    3.376149
 H   -2.590911   -1.528508    2.258145
