72 
4est_ligand_ani.xyz
 C    1.994325    3.530313    0.579444
 O    0.980611    2.946104    0.197931
 C    1.957483    4.641545    1.603143
 N    3.226854    3.211753    0.112815
 C    3.469761    2.134839   -0.822619
 C    4.524037    1.218027   -0.185507
 O    5.411912    1.693593    0.506255
 C    3.971911    2.689499   -2.161396
 N    4.436515   -0.132151   -0.400689
 C    3.758492   -0.783273   -1.520115
 C    2.320187   -1.239247   -1.251727
 O    1.577163   -1.477732   -2.191032
 C    4.642920   -2.013504   -1.807828
 C    5.234780   -2.351081   -0.437945
 C    5.487953   -0.978560    0.183949
 N    1.962761   -1.425145    0.051321
 C    0.570397   -1.669366    0.396449
 C   -0.119216   -0.298172    0.547632
 O    0.556962    0.481590    1.498360
 C    0.455874   -2.631817    1.592145
 C    1.074853   -2.090395    2.881494
 C    1.071785   -3.988014    1.226358
 C   -1.605097   -0.330089    0.923739
 F   -1.784813   -0.737741    2.206669
 F   -2.062810    0.967213    0.856932
 C   -2.448448   -1.216178    0.004039
 O   -2.514520   -2.420334    0.188377
 N   -3.044489   -0.565979   -1.020601
 C   -4.003251   -1.270398   -1.855589
 C   -5.344815   -1.516246   -1.148728
 C   -6.002039   -0.230914   -0.706215
 C   -6.612367    0.606246   -1.643211
 C   -7.168610    1.820834   -1.256506
 C   -7.113514    2.219857    0.076230
 C   -6.503446    1.397653    1.018101
 C   -5.953324    0.179711    0.627178
 H    0.918974    4.906637    1.802416
 H    2.427100    4.312374    2.536183
 H    2.497447    5.523162    1.244640
 H    4.047808    3.519649    0.619042
 H    2.519727    1.612643   -0.967829
 H    4.922974    3.213418   -2.018599
 H    3.237524    3.398652   -2.552999
 H    4.122278    1.901232   -2.906779
 H    3.697026   -0.128745   -2.394382
 H    5.435115   -1.731738   -2.509535
 H    4.065273   -2.825772   -2.257804
 H    6.144158   -2.954095   -0.505408
 H    4.508060   -2.908465    0.164878
 H    6.474818   -0.578042   -0.079492
 H    5.412711   -0.968732    1.275838
 H    2.522997   -0.950309    0.748205
 H    0.122344   -2.162102   -0.472398
 H   -0.070849    0.181115   -0.443777
 H    0.460172    1.408934    1.218468
 H   -0.615142   -2.794674    1.751160
 H    0.963415   -2.829477    3.683266
 H    2.148870   -1.898430    2.761005
 H    0.595278   -1.160410    3.193575
 H    2.152214   -3.905014    1.061852
 H    0.620970   -4.400170    0.315538
 H    0.910147   -4.708639    2.035486
 H   -3.112912    0.439443   -0.946386
 H   -3.559698   -2.228197   -2.136353
 H   -4.146104   -0.681586   -2.765784
 H   -5.154438   -2.164381   -0.287062
 H   -6.005398   -2.066886   -1.830633
 H   -6.648025    0.299079   -2.687748
 H   -7.642873    2.459744   -1.997679
 H   -7.545428    3.171073    0.378322
 H   -6.456433    1.704174    2.060859
 H   -5.473790   -0.463454    1.363370
