21 
4eu3_ligand_dft.xyz
 C    2.460349   -0.552502    0.065244
 O    2.455516   -1.213595   -0.951723
 O    3.563961    0.084273    0.447194
 C    1.245191   -0.529459    0.984688
 C   -0.035255   -0.153369    0.215172
 O   -0.220505   -0.993925   -0.905450
 C   -1.279430   -0.360053    1.096299
 C   -2.559190   -0.361613    0.263971
 O   -3.288320    0.604764    0.204071
 O   -2.829670   -1.477227   -0.405871
 C    0.137834    1.328715   -0.244198
 O    1.248125    1.799909   -0.334887
 O   -0.929990    2.054855   -0.542700
 H    3.351087    0.749598    1.114940
 H    1.373647    0.138928    1.840459
 H    1.131661   -1.550035    1.366122
 H    0.666934   -1.210179   -1.264937
 H   -1.364398    0.425722    1.850585
 H   -1.186262   -1.323425    1.607844
 H   -1.994767   -1.960772   -0.537279
 H   -1.787829    1.627414   -0.349853
