60 
4ew2_ligand_ani.xyz
 O    3.038772    0.408514   -2.173559
 C    4.219192    0.014833   -1.689785
 O    4.995572    0.747940   -1.115666
 C    4.458657   -1.466700   -1.860509
 C    4.674406   -2.159471   -0.504681
 C    3.586408   -1.864100    0.542574
 C    3.758711   -0.503694    1.228144
 O    2.892986    0.340723    1.329803
 O    4.979628   -0.355006    1.745652
 N    2.253933   -1.984650    0.001540
 C    1.257290   -2.532425    0.772816
 O    1.492364   -3.178088    1.782577
 C   -0.141737   -2.255336    0.319285
 C   -1.151261   -2.347322    1.279014
 C   -2.452586   -1.975111    0.971668
 C   -0.475427   -1.900414   -0.990628
 C   -1.781330   -1.538633   -1.297392
 C   -2.767656   -1.504982   -0.306418
 C   -4.092514   -0.838415   -0.597685
 S   -5.519158   -1.903042   -0.215803
 C   -5.067953   -3.354023   -1.191678
 C   -4.244450    0.494720    0.161578
 C   -2.997777    1.365208    0.004979
 C   -3.039764    2.693717    0.754049
 C   -1.681591    3.421596    0.711930
 C   -0.673421    2.650256    1.564121
 O   -0.971565    2.199720    2.649251
 N    0.612204    2.502051    1.066065
 C    1.069519    2.867011   -0.190442
 N    2.238063    2.599223   -0.656672
 N    0.153585    3.540045   -0.964758
 C   -1.206525    3.705126   -0.712478
 N   -1.932069    4.120677   -1.670972
 H    2.883027    1.353183   -1.903563
 H    5.360872   -1.596262   -2.470172
 H    3.620754   -1.912753   -2.403138
 H    4.697411   -3.240886   -0.667822
 H    5.638792   -1.865670   -0.081167
 H    3.659279   -2.612108    1.339217
 H    5.029530    0.549061    2.096999
 H    1.984773   -1.255849   -0.647414
 H   -0.890627   -2.692694    2.273526
 H   -3.224805   -2.022484    1.738047
 H    0.270179   -1.915323   -1.782740
 H   -2.028062   -1.233174   -2.312707
 H   -4.116491   -0.630995   -1.674819
 H   -5.008944   -3.118480   -2.258546
 H   -5.845930   -4.106434   -1.040979
 H   -4.112680   -3.766180   -0.854295
 H   -4.407771    0.276516    1.225009
 H   -5.142782    1.008594   -0.201947
 H   -2.136829    0.794242    0.375293
 H   -2.811291    1.552351   -1.063184
 H   -3.829071    3.345593    0.355032
 H   -3.275039    2.522147    1.808894
 H   -1.783348    4.396720    1.209416
 H    1.221139    1.901653    1.616588
 H    2.811751    2.188081    0.079151
 H    0.440470    3.736704   -1.914602
 H   -2.900997    4.210218   -1.368889
