60 
4ew2_ligand_xtb.xyz
 O    2.861639    0.385644   -2.323209
 C    4.015134    0.244795   -1.684900
 O    4.537145    1.122830   -1.044900
 C    4.558863   -1.164152   -1.795027
 C    4.926226   -1.712712   -0.410542
 C    3.824611   -1.466238    0.638237
 C    3.899257   -0.064265    1.234989
 O    2.942383    0.668025    1.332939
 O    5.101798    0.240560    1.688903
 N    2.495635   -1.683823    0.126266
 C    1.607267   -2.487721    0.775947
 O    1.943938   -3.267337    1.643153
 C    0.196967   -2.286939    0.342592
 C   -0.804541   -2.478042    1.290586
 C   -2.115725   -2.164616    0.995490
 C   -0.147673   -1.853689   -0.934438
 C   -1.464244   -1.558578   -1.230829
 C   -2.452971   -1.670350   -0.259449
 C   -3.840709   -1.182027   -0.543183
 S   -5.106638   -2.427523   -0.061078
 C   -4.594170   -3.779081   -1.155415
 C   -4.121147    0.111978    0.227062
 C   -3.026861    1.150367   -0.016334
 C   -3.330430    2.470886    0.685759
 C   -2.122376    3.436117    0.637408
 C   -1.049807    2.899318    1.569341
 O   -1.207565    2.825910    2.762880
 N    0.112341    2.479106    0.981059
 C    0.440436    2.544365   -0.363305
 N    1.547277    2.156140   -0.845280
 N   -0.513948    3.070614   -1.186101
 C   -1.692684    3.655355   -0.795811
 N   -2.332849    4.291172   -1.681103
 H    2.424042    1.249886   -2.091438
 H    5.452883   -1.147754   -2.420164
 H    3.807415   -1.789656   -2.275972
 H    5.100404   -2.784997   -0.497132
 H    5.838941   -1.237605   -0.051824
 H    3.958559   -2.172422    1.470148
 H    5.131734    1.155839    2.010775
 H    2.123009   -0.950298   -0.457900
 H   -0.528535   -2.848409    2.265996
 H   -2.887962   -2.293141    1.739317
 H    0.601126   -1.753035   -1.706484
 H   -1.724106   -1.210995   -2.220750
 H   -3.968278   -1.009378   -1.616495
 H   -4.678241   -3.460532   -2.191055
 H   -5.268283   -4.607274   -0.965242
 H   -3.572279   -4.066350   -0.922968
 H   -4.175048   -0.114551    1.293380
 H   -5.091488    0.505394   -0.080994
 H   -2.078297    0.754658    0.354574
 H   -2.920633    1.322413   -1.090756
 H   -4.193750    2.946892    0.216678
 H   -3.569350    2.287524    1.734881
 H   -2.452582    4.394516    1.057574
 H    0.820391    2.081712    1.592250
 H    2.191131    1.818359   -0.134167
 H   -0.254249    3.203104   -2.154707
 H   -3.206765    4.700320   -1.371353
