60 
4ew2_ligand_dft.xyz
 O    2.683060   -0.092215   -2.613128
 C    3.760534   -0.273429   -1.851541
 O    4.363222    0.639279   -1.318800
 C    4.130167   -1.722798   -1.646295
 C    4.602199   -1.973390   -0.208174
 C    3.635111   -1.410800    0.868147
 C    3.942737    0.012842    1.305485
 O    3.125347    0.910531    1.370439
 O    5.205625    0.160696    1.692332
 N    2.255425   -1.450612    0.458256
 C    1.460422   -2.533759    0.709979
 O    1.879839   -3.553578    1.233490
 C    0.035999   -2.307366    0.312957
 C   -0.980419   -2.705307    1.180683
 C   -2.294827   -2.336092    0.927356
 C   -0.284999   -1.633636   -0.866682
 C   -1.608659   -1.311270   -1.136818
 C   -2.617265   -1.599604   -0.215283
 C   -3.970026   -0.940184   -0.384584
 S   -5.398989   -1.997078    0.041567
 C   -5.137354   -3.338780   -1.149432
 C   -4.037550    0.339477    0.479374
 C   -2.848194    1.266016    0.219373
 C   -2.939987    2.612896    0.928877
 C   -1.668025    3.468256    0.704584
 C   -0.504701    2.859670    1.478319
 O   -0.548899    2.708152    2.679846
 N    0.606320    2.482002    0.752487
 C    0.750110    2.521243   -0.628980
 N    1.791856    2.140725   -1.264604
 N   -0.334980    3.011388   -1.318919
 C   -1.424194    3.678137   -0.777485
 N   -2.157848    4.349110   -1.571895
 H    2.390943    0.849359   -2.505308
 H    4.939858   -1.976685   -2.340151
 H    3.274724   -2.352502   -1.898177
 H    4.673566   -3.053662   -0.057806
 H    5.595981   -1.548494   -0.050427
 H    3.742205   -2.032721    1.766267
 H    5.324997    1.093348    1.933208
 H    1.813393   -0.562999    0.263486
 H   -0.722196   -3.261002    2.076739
 H   -3.079325   -2.593037    1.633575
 H    0.496813   -1.348148   -1.566467
 H   -1.851065   -0.767662   -2.046538
 H   -4.085078   -0.645512   -1.435135
 H   -5.186847   -2.966678   -2.176768
 H   -5.936787   -4.067824   -0.999443
 H   -4.173930   -3.827537   -0.981400
 H   -4.059774    0.058520    1.540099
 H   -4.978319    0.860153    0.262316
 H   -1.927838    0.761512    0.534422
 H   -2.753628    1.435006   -0.861310
 H   -3.809007    3.175560    0.568474
 H   -3.060532    2.478167    2.008358
 H   -1.833296    4.450959    1.160415
 H    1.363011    2.047613    1.276265
 H    2.545637    1.872148   -0.632987
 H   -0.177518    3.163639   -2.306987
 H   -2.939607    4.767768   -1.069648
