60 
4ew3_ligand_dft.xyz
 O   -2.668403   -1.845613    0.627077
 C   -3.224032   -1.930076   -0.456272
 O   -2.585708   -2.104029   -1.606616
 C   -4.722795   -1.825123   -0.634868
 C   -5.184041   -0.442832   -1.129828
 C   -4.974733    0.707997   -0.120230
 C   -5.718300    0.446669    1.175270
 O   -7.044786    0.371767    0.974434
 O   -5.205739    0.291322    2.256448
 N   -3.586797    0.941398    0.198759
 C   -2.762065    1.514057   -0.719559
 O   -3.184651    1.972016   -1.774207
 C   -1.300004    1.528298   -0.385204
 C   -0.417993    1.664545   -1.454089
 C    0.953117    1.644581   -1.244031
 C   -0.784082    1.409145    0.909011
 C    0.590659    1.409827    1.116293
 C    1.481463    1.507618    0.042420
 C    2.976409    1.422000    0.274858
 S    3.742535    3.058097    0.626305
 C    3.284999    4.014392   -0.843192
 C    3.687316    0.649009   -0.847705
 C    5.055543    0.053496   -0.517632
 C    5.123998   -0.972252    0.626831
 C    3.997662   -2.042010    0.704297
 C    2.881742   -1.565968    1.623244
 O    3.103067   -1.081985    2.715295
 N    1.593559   -1.724010    1.178299
 C    1.180049   -2.110752   -0.093770
 N   -0.032993   -2.088008   -0.478467
 N    2.190664   -2.544131   -0.917146
 C    3.552591   -2.568402   -0.650558
 N    4.317251   -3.025342   -1.559393
 H   -1.609634   -2.158230   -1.442280
 H   -5.187104   -2.071163    0.324581
 H   -5.031855   -2.573541   -1.370124
 H   -4.650531   -0.171698   -2.044663
 H   -6.249419   -0.497445   -1.372180
 H   -5.380443    1.617914   -0.573515
 H   -7.444763    0.183386    1.838657
 H   -3.208571    0.393006    0.959387
 H   -0.830053    1.776129   -2.451239
 H    1.616644    1.722543   -2.099568
 H   -1.448993    1.344176    1.766176
 H    0.986464    1.327949    2.126418
 H    3.135173    0.911654    1.229425
 H    2.200206    4.111931   -0.933360
 H    3.695015    3.580885   -1.759848
 H    3.719659    5.007730   -0.709103
 H    3.812375    1.300605   -1.720076
 H    3.016260   -0.148164   -1.185462
 H    5.423981   -0.415894   -1.436566
 H    5.757552    0.859730   -0.275743
 H    6.086696   -1.488732    0.551663
 H    5.129780   -0.474302    1.600359
 H    4.419121   -2.901131    1.242784
 H    0.882382   -1.345678    1.791125
 H   -0.665676   -1.785615    0.264614
 H    1.908478   -2.875192   -1.830250
 H    5.289662   -2.992893   -1.257618
