73 
4ewo_ligand_dft.xyz
 O   -1.175942   -1.072099    1.939309
 C   -1.585270   -2.241031    1.944368
 C   -1.060561   -3.233569    2.950565
 N   -2.496585   -2.689950    1.056293
 C   -3.309772   -1.879343    0.147170
 C   -4.111014   -0.800578    0.905712
 C   -5.020471    0.009980    0.007912
 C   -4.838450    1.386365   -0.137810
 C   -5.659654    2.130985   -0.981112
 C   -6.678319    1.504231   -1.690997
 C   -6.878906    0.133350   -1.544361
 C   -6.057637   -0.605975   -0.700026
 C   -2.579304   -1.350601   -1.121466
 O   -1.684232   -2.306166   -1.658122
 C   -1.766835   -0.058146   -1.019526
 N   -0.402969   -0.320047   -0.501136
 C    0.557181    0.846775   -0.535378
 C    1.904237    0.376657   -0.103446
 C    2.647628    0.999632    0.919476
 C    2.164946    2.185600    1.690905
 C    1.095213    2.951398    0.880038
 C    1.735859    3.672810   -0.315387
 C    0.414418    3.982120    1.786694
 C    0.023239    1.946868    0.399747
 N    3.827899    0.419291    1.077198
 N    3.855716   -0.575540    0.170359
 C    2.728854   -0.632624   -0.568560
 C    5.056298   -1.383221    0.010898
 C    6.099959   -0.804862   -0.968562
 C    5.487286   -0.629804   -2.363529
 C    7.248282   -1.822134   -1.035558
 C    6.631125    0.540938   -0.459916
 H   -1.239532   -2.831057    3.951083
 H    0.021886   -3.322961    2.826243
 H   -1.515446   -4.223777    2.876334
 H   -2.756173   -3.661566    1.132619
 H   -4.035622   -2.597541   -0.252328
 H   -4.700357   -1.317209    1.671784
 H   -3.418453   -0.143940    1.439191
 H   -4.060495    1.889589    0.433667
 H   -5.507748    3.201555   -1.076625
 H   -7.321806    2.082449   -2.346131
 H   -7.684661   -0.358578   -2.080323
 H   -6.239261   -1.671895   -0.577215
 H   -3.382354   -1.120436   -1.832441
 H   -2.173303   -3.030584   -2.064862
 H   -1.656639    0.374036   -2.016950
 H   -2.248877    0.671758   -0.373180
 H   -0.023385   -1.113876   -1.025801
 H   -0.511444   -0.631918    0.492641
 H    0.563885    1.189166   -1.577121
 H    1.728897    1.857456    2.643908
 H    3.004147    2.844462    1.936231
 H    2.439742    4.434649    0.034823
 H    2.293553    2.989174   -0.964734
 H    0.974245    4.177629   -0.920897
 H   -0.082592    3.500806    2.636737
 H   -0.335072    4.560936    1.235068
 H    1.151743    4.687040    2.184919
 H   -0.413889    1.465815    1.285864
 H   -0.781150    2.496621   -0.103349
 H    2.619676   -1.364887   -1.357284
 H    4.735374   -2.373302   -0.331174
 H    5.490851   -1.491138    1.007799
 H    4.690227    0.121951   -2.360876
 H    6.251148   -0.295838   -3.073125
 H    5.073928   -1.573455   -2.742589
 H    6.903519   -2.793864   -1.409087
 H    8.032209   -1.464847   -1.710880
 H    7.702157   -1.976335   -0.050014
 H    5.836423    1.289960   -0.395642
 H    7.074198    0.440044    0.536633
 H    7.403425    0.918806   -1.138510
