73 
4ewo_ligand_ani.xyz
 O   -1.426882   -1.072966    2.183979
 C   -1.726242   -2.259357    2.052283
 C   -1.136581   -3.318283    2.962404
 N   -2.583794   -2.708704    1.104357
 C   -3.318648   -1.898161    0.131766
 C   -4.250137   -0.891374    0.835319
 C   -5.124597   -0.087105   -0.105723
 C   -5.058158    1.309042   -0.148480
 C   -5.863529    2.040998   -1.017827
 C   -6.750857    1.388035   -1.866035
 C   -6.832424   -0.000817   -1.830893
 C   -6.028296   -0.728388   -0.958996
 C   -2.456348   -1.270750   -1.007037
 O   -1.398552   -2.143242   -1.407162
 C   -1.768986    0.070793   -0.722240
 N   -0.441163   -0.165697   -0.139494
 C    0.534380    0.934409   -0.277018
 C    1.926353    0.472462    0.046460
 C    2.836411    1.229213    0.808854
 C    2.475164    2.523117    1.467596
 C    1.255303    3.181877    0.789990
 C    1.666784    3.765879   -0.566232
 C    0.735957    4.305126    1.687769
 C    0.141774    2.129356    0.618686
 N    4.019862    0.634252    0.905681
 N    3.887544   -0.502212    0.200032
 C    2.645250   -0.643152   -0.323262
 C    5.007768   -1.410870    0.061042
 C    6.023137   -1.082515   -1.062744
 C    5.332054   -1.072877   -2.430731
 C    7.089822   -2.185558   -1.037405
 C    6.695674    0.270385   -0.807632
 H   -1.397581   -3.072314    3.995406
 H   -0.046782   -3.281487    2.881665
 H   -1.478020   -4.332866    2.737947
 H   -2.713331   -3.707022    1.049989
 H   -3.956166   -2.628726   -0.379755
 H   -4.883241   -1.470369    1.519774
 H   -3.643859   -0.234592    1.464984
 H   -4.367112    1.836602    0.508078
 H   -5.789700    3.125569   -1.032890
 H   -7.378219    1.956728   -2.547463
 H   -7.525376   -0.522881   -2.486498
 H   -6.115696   -1.814417   -0.939368
 H   -3.148402   -1.114135   -1.849572
 H   -1.777387   -2.947738   -1.783186
 H   -1.662090    0.608622   -1.672076
 H   -2.372606    0.706029   -0.072229
 H   -0.094738   -1.031551   -0.585283
 H   -0.562309   -0.371263    0.871088
 H    0.503413    1.267696   -1.326368
 H    2.233452    2.338589    2.524932
 H    3.329644    3.208766    1.454428
 H    2.387663    4.580208   -0.425370
 H    2.138159    3.020001   -1.213477
 H    0.796293    4.174283   -1.094074
 H    0.397490    3.913915    2.654585
 H   -0.109780    4.823967    1.221230
 H    1.520233    5.047023    1.880771
 H   -0.119204    1.728922    1.609993
 H   -0.755822    2.614386    0.212780
 H    2.391776   -1.516687   -0.915380
 H    4.591792   -2.408546   -0.121209
 H    5.528281   -1.420093    1.024411
 H    4.554505   -0.303000   -2.484475
 H    6.062084   -0.867391   -3.222140
 H    4.870757   -2.044744   -2.647785
 H    6.646497   -3.171706   -1.222725
 H    7.851639   -2.011812   -1.806403
 H    7.596865   -2.220076   -0.065387
 H    5.979248    1.094383   -0.867100
 H    7.153824    0.297910    0.188750
 H    7.483984    0.447110   -1.548658
