29 
4exs_ligand_xtb.xyz
 O   -0.259651   -1.372184   -1.054800
 C   -0.353884   -0.317069   -0.456074
 C   -1.666782    0.154834    0.162526
 C   -2.808669   -0.324633   -0.729463
 S   -4.448776    0.236010   -0.160783
 C   -1.751123   -0.438911    1.570982
 N    0.716236    0.486604   -0.283990
 C    2.009586    0.063963   -0.784383
 C    2.622813   -1.037097    0.075592
 O    1.973735   -1.218708    1.226535
 O    3.607412   -1.651815   -0.226906
 C    0.789415    1.770033    0.389008
 C    2.289613    2.048943    0.496363
 C    2.864474    1.332725   -0.723510
 H   -1.696845    1.245645    0.217400
 H   -2.813878   -1.410398   -0.803964
 H   -2.701805    0.092779   -1.730852
 H   -4.583216   -0.648394    0.823696
 H   -2.630512   -0.065155    2.091321
 H   -1.804214   -1.523957    1.510281
 H   -0.869137   -0.176235    2.150524
 H    1.915678   -0.342985   -1.796605
 H    2.370334   -1.952362    1.722717
 H    0.313675    1.735956    1.370657
 H    0.295009    2.539599   -0.217044
 H    2.685690    1.604368    1.409693
 H    2.509356    3.114241    0.502418
 H    3.923596    1.103274   -0.630307
 H    2.708408    1.926166   -1.624367
