50 
4eyj_ligand_ani.xyz
 O  -12.592846   12.840103  -26.435619
 C  -13.482206   12.021043  -26.564248
 N  -14.512418   11.888060  -25.643126
 C  -14.626320   12.712141  -24.517073
 C  -13.980103   13.861032  -24.113853
 C  -14.588988   14.191357  -22.877505
 C  -14.257895   15.378871  -22.007128
 C  -12.765611   15.326198  -21.636100
 C  -15.103018   15.374843  -20.731295
 C  -14.527420   16.670399  -22.799474
 N  -15.523970   13.311908  -22.548647
 N  -15.536140   12.412330  -23.559077
 C  -16.438405   11.282999  -23.489916
 N  -13.594887   11.118663  -27.600403
 C  -12.717421   10.946860  -28.691344
 C  -11.675904   11.833663  -28.978843
 C  -10.866844   11.601846  -30.083592
 C  -11.091269   10.500996  -30.897759
 C  -12.118148    9.609947  -30.618791
 C  -12.930950    9.837391  -29.517005
 O  -10.258971   10.275648  -31.981217
 C  -10.619384   10.806633  -33.186074
 C   -9.777605   10.545722  -34.265037
 C  -10.112275   11.071292  -35.503779
 N  -11.196489   11.817463  -35.732497
 C  -11.985222   12.053737  -34.685544
 C  -11.756918   11.582378  -33.394948
 H  -15.326489   11.339617  -25.885468
 H  -13.187566   14.354860  -24.652237
 H  -12.539736   14.433949  -21.041960
 H  -12.147374   15.300560  -22.539229
 H  -12.485309   16.209308  -21.050932
 H  -14.923985   14.470463  -20.142114
 H  -14.843165   16.243733  -20.115739
 H  -16.170696   15.425255  -20.964145
 H  -14.242336   17.548217  -22.208623
 H  -13.948052   16.676628  -23.728450
 H  -15.588401   16.759323  -23.057442
 H  -16.862582   11.295064  -22.485293
 H  -17.253007   11.359030  -24.222440
 H  -15.903487   10.337304  -23.645475
 H  -14.307234   10.407784  -27.526677
 H  -11.507449   12.688769  -28.339243
 H  -10.054170   12.279659  -30.330050
 H  -12.274198    8.756752  -31.272313
 H  -13.739853    9.144694  -29.297763
 H   -8.885393    9.943940  -34.121601
 H   -9.472552   10.882988  -36.364926
 H  -12.865171   12.663222  -34.885139
 H  -12.448168   11.819358  -32.592846
