117 
4ezx_ligand_xtb.xyz
 N   -0.551987    1.884578    1.360234
 C   -0.381232    2.122140   -0.081318
 C    1.093925    1.790279   -0.364430
 O    1.721366    1.149976    0.464930
 C   -0.818925    3.556693   -0.387661
 C   -1.207494    3.788910   -1.832987
 O   -0.849633    3.065807   -2.748009
 N   -1.984644    4.863077   -2.035613
 N    1.576954    2.235517   -1.527311
 C    2.985839    2.408411   -1.866035
 C    3.885614    1.163558   -1.699489
 O    5.089248    1.287841   -1.704202
 C    3.592472    3.582658   -1.064790
 C    4.036526    3.172113    0.346251
 C    4.058763    4.325375    1.356115
 N    2.808311    5.058502    1.461209
 C    1.623416    4.576383    1.901679
 N    1.364288    3.395538    2.336697
 N    0.561017    5.457225    1.777219
 N    3.237107   -0.005062   -1.575791
 C    3.878991   -1.268776   -1.240113
 C    2.810030   -2.300289   -0.898311
 O    2.790538   -3.418011   -1.369946
 C    4.825394   -1.104929   -0.037867
 C    5.376533   -2.427575    0.506209
 C    6.291736   -2.132654    1.693313
 C    6.133268   -3.206617   -0.566320
 N    1.893536   -1.875111    0.000079
 C    0.806863   -2.738771    0.397635
 C   -0.502694   -1.967443    0.288837
 O   -0.552334   -0.759512    0.521737
 C    1.033846   -3.311399    1.806485
 C   -0.019808   -4.333079    2.214280
 S   -0.401626   -5.575068    0.925631
 C    1.231293   -6.313945    0.650160
 N   -1.557410   -2.690772   -0.083814
 C   -2.780107   -2.178244   -0.678088
 C   -3.760928   -1.483670    0.272023
 O   -4.958072   -1.443049    0.038023
 C   -3.479661   -3.288994   -1.461296
 C   -2.931622   -3.552377   -2.871549
 C   -3.132833   -2.347775   -3.789251
 C   -1.466740   -3.986206   -2.870544
 N   -3.205618   -0.840560    1.313856
 C   -3.977500    0.118724    2.084769
 C   -4.028655    1.384965    1.219657
 O   -3.261454    2.331148    1.352265
 C   -3.349842    0.322232    3.471319
 O   -1.959971    0.538403    3.299871
 C   -3.617510   -0.890148    4.358097
 N   -4.966763    1.318032    0.262732
 C   -4.913220    2.191833   -0.882418
 C   -3.748402    1.807911   -1.788941
 O   -3.720990    2.512148   -2.906748
 O   -2.928502    0.976436   -1.496628
 H   -0.305414    0.900067    1.529890
 H   -1.539934    2.026124    1.647179
 H    0.161127    2.528351    1.902483
 H   -1.009121    1.417839   -0.640269
 H   -0.037121    4.269115   -0.117741
 H   -1.692226    3.765630    0.233541
 H   -2.277445    5.464105   -1.286049
 H   -2.276134    5.091370   -2.973081
 H    0.897270    2.613836   -2.181958
 H    3.013580    2.665002   -2.929919
 H    2.837031    4.371105   -1.009237
 H    4.449581    3.969305   -1.615053
 H    5.042615    2.757409    0.295551
 H    3.385895    2.382475    0.710976
 H    4.326103    3.922645    2.339804
 H    4.821728    5.050366    1.071795
 H    2.824227    6.014896    1.147845
 H    2.165703    2.781341    2.385893
 H   -0.229709    5.206658    2.352268
 H    0.790081    6.438086    1.829917
 H    2.236220   -0.019483   -1.684052
 H    4.444361   -1.634449   -2.104494
 H    5.656977   -0.471601   -0.346855
 H    4.281701   -0.583759    0.754499
 H    4.541410   -3.045089    0.857542
 H    6.664320   -3.057684    2.125983
 H    7.143516   -1.538598    1.371461
 H    5.760743   -1.581875    2.467020
 H    6.644891   -4.056107   -0.120358
 H    5.451294   -3.585478   -1.322411
 H    6.875668   -2.571633   -1.043698
 H    1.917797   -0.934487    0.375338
 H    0.802562   -3.563915   -0.323822
 H    2.022090   -3.775172    1.814065
 H    1.039538   -2.496989    2.535273
 H   -0.977655   -3.854736    2.419062
 H    0.300089   -4.871737    3.106504
 H    1.664170   -6.579602    1.609927
 H    1.063672   -7.209442    0.060817
 H    1.872038   -5.628904    0.101842
 H   -1.425627   -3.693555   -0.175340
 H   -2.503422   -1.356621   -1.356979
 H   -4.532300   -3.011332   -1.545373
 H   -3.431414   -4.209365   -0.874139
 H   -3.524235   -4.380441   -3.274569
 H   -2.863952   -2.607671   -4.809795
 H   -4.172377   -2.028917   -3.779163
 H   -2.510523   -1.508706   -3.484181
 H   -0.812487   -3.171783   -2.567080
 H   -1.311830   -4.835001   -2.207635
 H   -1.172051   -4.289477   -3.872014
 H   -2.198574   -0.690482    1.315510
 H   -4.992272   -0.273188    2.205043
 H   -3.806048    1.219330    3.918781
 H   -1.547417    0.538802    4.169904
 H   -3.145513   -0.760095    5.329935
 H   -3.217786   -1.786209    3.889464
 H   -4.684186   -1.019933    4.511621
 H   -5.413468    0.410943    0.126028
 H   -4.753567    3.221895   -0.548400
 H   -5.848043    2.143241   -1.440316
 H   -2.929241    2.302630   -3.438215
