56 
4f1s_ligand_ani.xyz
 C   27.039492   16.211165   18.309575
 S   27.436305   14.708701   17.433049
 O   28.553529   14.986072   16.549507
 O   26.196646   14.142209   16.933476
 N   28.077934   13.696704   18.597139
 C   27.463704   13.356438   19.806784
 C   26.112542   13.567146   20.034638
 C   28.208505   12.785283   20.851371
Cl   29.898698   12.439019   20.604672
 N   27.708329   12.483438   22.027593
 C   26.424249   12.746149   22.259559
 C   25.595845   13.329457   21.299921
 N   24.265024   13.606621   21.620005
 C   23.531118   14.688579   21.211220
 N   24.055687   15.518824   20.306282
 C   23.357433   16.588253   19.921009
 C   22.083558   16.911504   20.377750
 C   21.400638   18.171224   19.874541
 C   19.896821   18.226216   20.159919
 C   19.307329   19.517658   19.609764
 O   19.936132   20.649977   20.173786
 C   21.319384   20.678888   19.888500
 C   22.040353   19.452303   20.433505
 C   21.536449   16.034165   21.308677
 C   22.233815   14.923199   21.756636
 C   21.556880   14.078910   22.773567
 N   20.310472   14.435125   23.092534
 N   22.183797   13.030346   23.332388
 C   21.493681   12.342664   24.253895
 C   22.197982   11.179009   24.881575
 N   20.253135   12.609917   24.634004
 C   19.711510   13.670389   24.013659
 N   18.447365   14.011441   24.369751
 H   26.157448   16.074574   18.944181
 H   27.907382   16.508462   18.901355
 H   26.837561   16.966241   17.546170
 H   29.085775   13.610894   18.536518
 H   25.461804   13.913458   19.243701
 H   26.040722   12.490686   23.247521
 H   23.839299   13.075623   22.378322
 H   23.840075   17.235043   19.188183
 H   21.536454   18.191908   18.780440
 H   19.727739   18.207168   21.244964
 H   19.386585   17.356718   19.729185
 H   19.414197   19.536642   18.510699
 H   18.243421   19.605298   19.848078
 H   21.472031   20.741914   18.796293
 H   21.707094   21.598430   20.336651
 H   21.969189   19.441666   21.528141
 H   23.105031   19.502090   20.175002
 H   20.542989   16.177635   21.719025
 H   23.149036   11.510590   25.308524
 H   21.572046   10.739300   25.660409
 H   22.417656   10.426111   24.118469
 H   17.958185   14.638053   23.750698
 H   17.914943   13.318504   24.871217
