47 
4f3i_ligand_ani.xyz
Cl    6.357433   -2.137367    0.683254
 C    4.708552   -1.621104    0.472047
 C    4.342986   -0.334141    0.847756
 C    3.025534    0.070044    0.671858
 C    3.779387   -2.507372   -0.060690
 C    2.465337   -2.092663   -0.224750
 C    2.079197   -0.793229    0.113722
 C    0.658103   -0.372453   -0.105950
 C    0.358867    1.049017   -0.434474
 C    1.102518    1.891695   -1.356632
 C    2.254925    1.410316   -2.194735
 C    0.640134    3.167915   -1.402348
 C    1.184217    4.293199   -2.227851
 S   -0.730314    3.405991   -0.360482
 C   -0.693409    1.755723    0.128294
 N   -1.663974    1.228338    0.980298
 C   -2.375727    1.784749    2.033041
 C   -2.200485    3.164334    2.566224
 N   -3.207365    0.899707    2.510780
 N   -3.072306   -0.261073    1.783195
 C   -2.159298   -0.060899    0.883849
 N   -0.206151   -1.322415   -0.042329
 C   -1.630769   -1.029905   -0.159348
 C   -2.398495   -2.354138   -0.072302
 C   -3.703872   -2.315410   -0.832647
 O   -4.034699   -1.461065   -1.623556
 O   -4.469273   -3.375527   -0.535742
 C   -5.737190   -3.417126   -1.193895
 H    5.082620    0.337588    1.271427
 H    2.731908    1.078749    0.952360
 H    4.084094   -3.513007   -0.336190
 H    1.716577   -2.773102   -0.617882
 H    2.168539    0.338929   -2.387810
 H    2.311206    1.932601   -3.154319
 H    3.207169    1.564330   -1.673322
 H    2.224777    4.504525   -1.948985
 H    1.201049    4.021142   -3.291798
 H    0.599652    5.206884   -2.111066
 H   -2.791248    3.249410    3.480708
 H   -2.545244    3.920462    1.852966
 H   -1.151045    3.372726    2.797000
 H   -1.849510   -0.587644   -1.149541
 H   -2.584807   -2.621679    0.972691
 H   -1.758620   -3.128136   -0.509045
 H   -6.337494   -2.543973   -0.925782
 H   -5.608042   -3.438346   -2.278758
 H   -6.215632   -4.332555   -0.846503
