42 
4f9v_ligand_dft.xyz
 C    3.506229   -3.805231   -1.304599
 C    5.028985   -0.159713    2.363897
 S   -0.132869    4.253330   -0.314768
 C   -5.565656   -2.655443    0.913109
 C    1.787664    0.036589   -1.461598
 C    2.329507   -1.252827   -1.431227
 C   -4.895315   -1.561135    1.387720
 C   -5.497738   -1.269721   -0.699759
 C    3.106179    0.620072    0.474713
 C   -2.672819    0.454795    0.084165
 C   -1.968361    1.806791    0.070854
 C   -4.175346    0.610498    0.317421
 N   -5.940132   -2.465608   -0.394058
 N   -0.551910    1.618768   -0.171330
 N    1.626807    2.281954   -0.509763
 O    3.859847   -2.815003   -0.365189
 O    4.588873   -1.073350    1.383757
 C    0.319523    2.635268   -0.330767
 C    2.165773    0.966985   -0.506996
 C    3.268909   -1.605087   -0.473032
 C    3.670435   -0.646469    0.491171
 N   -4.861311   -0.666346    0.342360
 H    2.437077   -4.047992   -1.249871
 H    3.756292   -3.496230   -2.327701
 H    4.089764   -4.687776   -1.041753
 H    5.499038    0.721587    1.908946
 H    4.204033    0.162839    3.012096
 H    5.767669   -0.695252    2.960470
 H   -5.808419   -3.567222    1.440889
 H    1.084241    0.314787   -2.239641
 H    2.018921   -1.969069   -2.182608
 H   -4.457703   -1.329930    2.347579
 H   -5.612208   -0.776354   -1.656589
 H    3.373648    1.359285    1.220831
 H   -2.254826   -0.182843    0.873889
 H   -2.512796   -0.063226   -0.869184
 H   -2.119523    2.335191    1.021321
 H   -2.377701    2.452183   -0.714019
 H   -4.623746    1.215985   -0.476574
 H   -4.367140    1.126565    1.264008
 H   -0.182363    0.679683   -0.104572
 H    2.259892    3.067727   -0.540667
