43 
4f9w_ligand_xtb.xyz
 C   -4.901878   -2.987181   -0.026080
 N   -4.541544   -1.594618    0.077960
 C   -5.613921   -0.631758    0.073797
 C   -3.245102   -1.215000    0.026805
 N   -2.320864   -2.187999    0.013927
 N   -1.062972   -1.910256    0.074775
 C   -0.608960   -0.669592    0.117450
 C   -1.500340    0.427068   -0.006638
 C   -1.032744    1.807125   -0.183662
 C   -0.031592    2.119685   -1.102140
 C    0.354664    3.441860   -1.234648
 N   -0.172086    4.433377   -0.534883
 C   -1.124625    4.138259    0.332890
 C   -1.595347    2.853624    0.544549
 C   -2.847241    0.139106   -0.035058
 C    0.840117   -0.513633    0.278962
 C    1.696172   -1.382256   -0.355968
 C    3.090969   -1.262313   -0.216093
 C    3.986782   -2.137163   -0.867289
 C    5.337002   -1.994465   -0.713664
 C    5.855101   -0.970791    0.095603
 C    5.013679   -0.107208    0.739843
 C    3.615991   -0.228490    0.603734
 C    2.716778    0.634288    1.266072
 C    1.368603    0.497002    1.111964
 H   -5.436576   -3.178783   -0.960678
 H   -3.987927   -3.575038   -0.005262
 H   -5.540489   -3.273244    0.812623
 H   -5.450737    0.133798    0.835012
 H   -5.720770   -0.142510   -0.901072
 H   -6.544349   -1.146788    0.303306
 H    0.425639    1.346772   -1.700531
 H    1.127281    3.725697   -1.937256
 H   -1.530374    4.976665    0.884660
 H   -2.368008    2.661663    1.274486
 H   -3.565742    0.931456   -0.177005
 H    1.287623   -2.167136   -0.974926
 H    3.581928   -2.923361   -1.488487
 H    6.017367   -2.668373   -1.213882
 H    6.925476   -0.872953    0.205178
 H    5.407696    0.681619    1.365134
 H    3.115755    1.407632    1.907210
 H    0.693829    1.150354    1.646455
