43 
4f9y_ligand_ani.xyz
 C    0.070613    5.332009   21.515644
 N   -0.325098    4.100863   22.171602
 C    0.381691    3.629062   23.340077
 C   -1.219715    3.285002   21.535419
 N   -1.733799    3.754587   20.387125
 N   -2.635718    3.053258   19.729322
 C   -3.071133    1.883082   20.190173
 C   -2.501475    1.281704   21.347359
 C   -2.802389   -0.121423   21.781317
 C   -2.978730   -0.425336   23.129413
 C   -3.236510   -1.740585   23.498166
 N   -3.308252   -2.757376   22.637467
 C   -3.127864   -2.459112   21.348838
 C   -2.880393   -1.178074   20.872647
 C   -1.578277    2.022813   22.050800
 C   -4.253228    1.309193   19.496152
 C   -4.287202    1.160330   18.071082
 C   -3.194838    1.485416   17.209190
 C   -3.278470    1.286508   15.854387
 C   -4.452122    0.755263   15.276425
 C   -5.514223    0.428729   16.071817
 C   -5.459692    0.612219   17.480227
 C   -6.564143    0.255241   18.298985
 C   -6.506572    0.418900   19.656447
 C   -5.344051    0.941555   20.255533
 H    0.712183    5.908424   22.188483
 H    0.610584    5.134143   20.581662
 H   -0.813491    5.923864   21.262554
 H   -0.313317    3.371027   24.147910
 H    1.004235    2.750054   23.124309
 H    1.036554    4.422940   23.707137
 H   -2.937466    0.350225   23.890151
 H   -3.383162   -1.988683   24.548300
 H   -3.190538   -3.294038   20.653640
 H   -2.776426   -0.992892   19.805537
 H   -1.120768    1.624077   22.950790
 H   -2.292180    1.906351   17.641847
 H   -2.437458    1.544029   15.216309
 H   -4.502465    0.607896   14.200405
 H   -6.423433    0.015904   15.639531
 H   -7.454455   -0.152880   17.825220
 H   -7.352908    0.141651   20.279396
 H   -5.301899    1.039079   21.337204
