64 
4fc0_ligand_ani.xyz
 C   45.233270  -38.248587    8.582374
 N   44.816625  -37.014319    9.228567
 C   45.740476  -35.940431    9.355699
 C   45.968511  -35.319641   10.585985
 C   46.908206  -34.293528   10.681337
 C   47.585295  -33.907143    9.547011
 F   48.496763  -32.907470    9.601105
 C   47.377586  -34.514657    8.304335
 N   48.141111  -34.038189    7.231796
 C   48.026235  -34.405519    5.911664
 O   47.292818  -35.288308    5.511867
 C   48.908980  -33.592778    4.995491
 C   50.252336  -33.395439    5.329819
 C   51.096664  -32.687939    4.488239
 C   50.617802  -32.161216    3.296194
 C   49.286590  -32.355397    2.932675
 O   48.784956  -31.784587    1.796992
 C   48.998820  -32.464198    0.546901
 C   50.444744  -32.346563    0.073949
 C   48.043030  -31.790495   -0.432072
 C   48.643341  -33.903894    0.672049
 N   48.367639  -35.021691    0.770124
 C   48.430601  -33.051999    3.800700
Cl   46.759781  -33.167373    3.368279
 C   46.459390  -35.553517    8.222416
 C   43.511908  -36.930390    9.664970
 C   42.916973  -35.695030   10.031199
 C   41.605011  -35.677662   10.456607
 C   40.897115  -36.883999   10.512748
 N   39.585902  -37.068178   10.918481
 C   39.277898  -38.317995   10.826723
 N   38.008263  -38.753863   11.180651
 C   37.550929  -40.056240   11.129070
 O   38.262791  -40.969869   10.749741
 C   36.138825  -40.252612   11.567634
 C   35.365035  -41.341208   10.862611
 C   35.828857  -41.559452   12.258253
 S   40.512924  -39.423611   10.243702
 C   41.579516  -38.037290   10.107523
 N   42.829714  -38.082520    9.678550
 H   45.143381  -39.095332    9.271649
 H   44.607051  -38.463798    7.708239
 H   46.274304  -38.144368    8.268793
 H   45.414580  -35.629371   11.467532
 H   47.108367  -33.787724   11.619922
 H   48.735599  -33.255545    7.462974
 H   50.640317  -33.819553    6.252250
 H   52.135026  -32.534196    4.763875
 H   51.261923  -31.581354    2.644356
 H   51.135937  -32.900981    0.714638
 H   50.526548  -32.750258   -0.939477
 H   50.732167  -31.291377    0.057288
 H   47.022804  -31.854938   -0.045076
 H   48.315351  -30.735727   -0.521729
 H   48.089160  -32.263392   -1.417399
 H   46.295210  -36.045695    7.272639
 H   43.475482  -34.766112    9.966527
 H   41.120224  -34.749844   10.749182
 H   37.398963  -38.012090   11.498682
 H   35.600863  -39.364022   11.885362
 H   35.902374  -41.862656   10.076155
 H   34.309251  -41.168583   10.679874
 H   35.101423  -41.541345   13.063478
 H   36.674464  -42.225942   12.399309
