64 
4fc0_ligand_dft.xyz
 C   -1.644417    0.678385    2.346678
 N   -1.639558    0.951883    0.915026
 C   -0.616078    1.791200    0.402771
 C   -0.911741    3.056549   -0.106472
 C    0.110832    3.866296   -0.590483
 C    1.410006    3.410042   -0.526766
 F    2.421936    4.185417   -0.978634
 C    1.739825    2.155701   -0.006346
 N    3.098715    1.812806   -0.000536
 C    3.673852    0.664958    0.486598
 O    3.060220   -0.257756    0.982298
 C    5.179515    0.683926    0.379571
 C    5.886376    1.729893    0.976312
 C    7.273948    1.768687    0.928127
 C    7.969427    0.756526    0.280400
 C    7.283379   -0.305307   -0.304008
 O    7.956743   -1.270953   -1.000426
 C    8.528683   -2.378723   -0.289401
 C    9.868996   -1.989963    0.343829
 C    8.695209   -3.472450   -1.342757
 C    7.623786   -2.857458    0.784824
 N    6.971623   -3.254549    1.653995
 C    5.883502   -0.337150   -0.263533
Cl    5.051217   -1.614563   -1.090856
 C    0.705316    1.338009    0.446295
 C   -2.801965    0.718053    0.198927
 C   -2.827183    0.822787   -1.217444
 C   -3.991319    0.547892   -1.900449
 C   -5.119354    0.157937   -1.168579
 N   -6.371028   -0.164403   -1.660201
 C   -7.148390   -0.489632   -0.678628
 N   -8.460838   -0.852816   -0.932324
 C   -9.397932   -1.223153    0.004986
 O   -9.137771   -1.260157    1.196182
 C  -10.735738   -1.569472   -0.548235
 C  -11.509761   -2.653673    0.173924
 C  -11.935553   -1.234024    0.314207
 S   -6.480888   -0.450105    0.948070
 C   -4.968345    0.070233    0.217842
 N   -3.867384    0.341138    0.908795
 H   -2.281298    1.386268    2.891830
 H   -2.021178   -0.328839    2.533234
 H   -0.621293    0.756459    2.717343
 H   -1.939302    3.403367   -0.127897
 H   -0.086411    4.852100   -0.996507
 H    3.711238    2.486184   -0.437438
 H    5.337065    2.513094    1.490503
 H    7.813128    2.589791    1.388568
 H    9.050211    0.785820    0.197569
 H   10.520612   -1.583070   -0.434748
 H    9.734057   -1.244421    1.131110
 H   10.345655   -2.869131    0.786235
 H    7.725165   -3.723280   -1.776763
 H    9.352922   -3.099889   -2.132857
 H    9.137119   -4.368458   -0.899671
 H    0.933022    0.350817    0.824317
 H   -1.928294    1.099727   -1.754435
 H   -4.037185    0.614102   -2.982768
 H   -8.702635   -0.832166   -1.913563
 H  -10.858542   -1.500120   -1.625356
 H  -11.006631   -3.111651    1.019052
 H  -12.104871   -3.322188   -0.439287
 H  -12.831116   -0.901279   -0.199957
 H  -11.718835   -0.736633    1.253781
