54 
4fcb_ligand_xtb.xyz
 C    4.708532    4.448390    0.992438
 C    4.703199    2.927346    1.069377
 C    4.990084    2.297962   -0.300996
 C    4.973774    0.812296   -0.240081
 N    6.103447    0.134795   -0.196870
 C    5.805511   -1.173372   -0.099838
 C    4.423968   -1.321495   -0.079759
 N    3.901547   -0.022055   -0.172083
 C    2.521838    0.157792   -0.193547
 C    1.881655    1.390543   -0.305810
 C    0.508900    1.472514   -0.319531
 C   -0.284606    0.323208   -0.219724
 C    0.331928   -0.907164   -0.108497
 C    1.726981   -1.007589   -0.097091
 N    2.247785   -2.268160    0.004108
 C    3.532924   -2.423517    0.008892
 C    4.058897   -3.817303    0.112288
 O   -1.627006    0.531707   -0.246420
 C   -2.481526   -0.586307   -0.146390
 C   -3.914264   -0.128713   -0.223492
 C   -4.257108    1.021101   -0.966071
 C   -5.569837    1.394408   -1.030619
 C   -6.544177    0.620501   -0.365765
 C   -7.919708    0.922843   -0.379618
 C   -8.808695    0.127270    0.288268
 C   -8.362309   -1.000080    0.997058
 C   -7.034182   -1.321711    1.030971
 C   -6.092896   -0.521326    0.351236
 N   -4.790414   -0.863843    0.407376
 C    6.884472   -2.193074   -0.033891
 H    5.669734    4.807814    0.632319
 H    3.934820    4.802963    0.314010
 H    4.525886    4.879303    1.973881
 H    3.738086    2.582581    1.448081
 H    5.470350    2.591752    1.769572
 H    5.997845    2.578890   -0.611610
 H    4.291870    2.670926   -1.053019
 H    2.446798    2.300683   -0.386030
 H    0.018394    2.428864   -0.405037
 H   -0.217192   -1.830064   -0.027175
 H    4.663536   -4.060091   -0.758882
 H    4.680532   -3.923880    0.998602
 H    3.220160   -4.504524    0.173433
 H   -2.329682   -1.121682    0.798986
 H   -2.291025   -1.287811   -0.973850
 H   -3.478342    1.582620   -1.455935
 H   -5.876280    2.271167   -1.584895
 H   -8.255926    1.792357   -0.927090
 H   -9.863312    0.360618    0.275606
 H   -9.083187   -1.613346    1.517737
 H   -6.671084   -2.182893    1.569322
 H    6.814895   -2.891408   -0.866620
 H    7.841254   -1.680675   -0.080919
 H    6.831241   -2.760113    0.894304
