40 
4fcd_ligand_dft.xyz
 C   -1.746091    4.606381   -0.258961
 C   -1.430911    3.149657   -0.250567
 C   -0.187888    2.556971   -0.148214
 N    1.047729    3.122968   -0.018711
 N    2.077037    2.378338    0.053155
 C    1.932724    0.995944   -0.039539
 C    0.700725    0.328876   -0.188093
 N   -0.407236    1.177459   -0.182224
 C   -1.760179    1.012706   -0.278935
 N   -2.380068    2.180981   -0.334404
 C   -2.478795   -0.276731   -0.307881
 C   -3.177074   -0.638823   -1.462746
 C   -3.894509   -1.826798   -1.524865
 C   -3.925710   -2.673078   -0.420804
 C   -3.254255   -2.325496    0.746428
 C   -2.545986   -1.130456    0.798984
Cl   -1.737926   -0.703751    2.287064
 C    0.621215   -1.047766   -0.350136
 C    1.799632   -1.785581   -0.327024
 C    3.046932   -1.168392   -0.152609
 C    3.114774    0.213435   -0.013645
 O    4.261924    0.889559    0.144174
 C    5.474839    0.169506    0.170719
 O    1.646142   -3.117593   -0.485218
 C    2.791614   -3.942707   -0.474476
 H   -0.827848    5.190919   -0.165130
 H   -2.250618    4.887654   -1.189103
 H   -2.414600    4.861016    0.569611
 H   -3.147176    0.033887   -2.313562
 H   -4.426451   -2.091146   -2.432924
 H   -4.480019   -3.605526   -0.459974
 H   -3.284114   -2.968627    1.618918
 H   -0.316095   -1.565137   -0.494574
 H    3.950431   -1.760474   -0.132359
 H    5.502329   -0.539066    1.008058
 H    5.642706   -0.368061   -0.771004
 H    6.257167    0.916373    0.304368
 H    3.478591   -3.686953   -1.290652
 H    3.321416   -3.881328    0.484103
 H    2.425932   -4.959601   -0.618046
