79 
4fcf_ligand_dft.xyz
 C    4.425174   -0.168738   -1.031806
 C    4.923078   -1.608394   -1.199510
 C    5.415931   -2.139819    0.143337
 C    6.448378   -1.187999    0.717128
 C    5.842762    0.210977    0.843821
 C    6.846471    1.246387    1.346363
 O    3.952265   -2.456584   -1.760614
 O    6.018230   -3.409853    0.003545
 O    5.400196    0.643553   -0.442302
 O    7.141854    1.073214    2.709096
 O    3.261558   -0.219440   -0.234389
 O    6.886715   -1.610086    1.996502
 C   -0.546538    1.313864   -0.174429
 C   -0.398556   -0.084399   -0.763518
 C    0.950507   -0.658605   -0.369106
 C    2.061888    0.298099   -0.764767
 C    1.790533    1.710254   -0.222615
 C    2.770470    2.736855   -0.772887
 O   -1.757004    1.812696   -0.599172
 O   -1.385126   -0.968167   -0.279216
 O    1.188790   -1.897141   -1.006318
 O    0.498616    2.145169   -0.632941
 O    2.723493    2.785746   -2.182099
 C   -2.181379    3.012241    0.042194
 C   -3.685838    3.156025   -0.133361
 C   -4.536335    2.320911    0.830662
 C   -4.276248    0.813246    0.793395
 C   -5.195507    0.003731    1.714276
 C   -6.694961    0.103343    1.406437
 C   -7.093331   -0.216212   -0.045055
 C   -6.603274   -1.591880   -0.530798
 C   -7.337801   -2.749302    0.153336
 C   -8.851646   -2.633576   -0.051969
 C   -9.378425   -1.275356    0.421515
 C   -8.617911   -0.119567   -0.240791
 H    4.202847    0.290416   -1.999393
 H    5.767327   -1.599734   -1.897764
 H    4.565046   -2.193081    0.840935
 H    7.300650   -1.135922    0.020180
 H    4.998181    0.179259    1.543860
 H    7.749503    1.209380    0.714652
 H    6.405593    2.241094    1.231773
 H    3.101399   -2.303388   -1.308386
 H    5.415712   -3.931463   -0.545385
 H    7.381799    0.141458    2.826043
 H    7.134059   -2.540872    1.912005
 H   -0.508979    1.262113    0.931795
 H   -0.446517    0.009479   -1.858540
 H    0.970261   -0.785929    0.725068
 H    2.112920    0.347822   -1.859246
 H    1.858369    1.686491    0.877341
 H    2.537685    3.714652   -0.327332
 H    3.790622    2.461693   -0.495221
 H   -2.243925   -0.606049   -0.535934
 H    0.432363   -2.467431   -0.814376
 H    1.803262    2.965285   -2.417589
 H   -1.917182    2.969738    1.110592
 H   -1.649110    3.860787   -0.402091
 H   -3.942249    4.214174   -0.001985
 H   -3.927856    2.903222   -1.173328
 H   -5.591731    2.515225    0.602922
 H   -4.375397    2.682328    1.856504
 H   -4.378143    0.460512   -0.243222
 H   -3.238628    0.614471    1.084067
 H   -4.886395   -1.048530    1.679464
 H   -5.032124    0.327930    2.750750
 H   -7.224788   -0.561520    2.098667
 H   -7.053735    1.114491    1.640451
 H   -6.632227    0.547927   -0.686755
 H   -5.520901   -1.693076   -0.387617
 H   -6.777586   -1.658804   -1.613908
 H   -7.112661   -2.751321    1.228738
 H   -6.974324   -3.705261   -0.241320
 H   -9.371114   -3.446290    0.469128
 H   -9.074051   -2.751784   -1.122265
 H  -10.448576   -1.186504    0.201220
 H   -9.282853   -1.209202    1.513225
 H   -8.833872   -0.130488   -1.318380
 H   -8.984016    0.841323    0.142806
