73 
4fcm_ligand_ani.xyz
 N   -0.186145   -2.146085    1.235798
 C   -0.857930   -3.467397    1.124120
 C   -1.959837   -3.444609    0.058904
 O   -3.147397   -3.535575    0.362803
 C   -1.415499   -3.830635    2.491328
 O   -0.317792   -3.692553    3.380858
 N   -1.552573   -3.311696   -1.233142
 C   -2.549198   -3.029261   -2.262643
 C   -2.881335   -1.535698   -2.261394
 O   -2.523362   -0.776114   -3.156752
 N   -3.535164   -1.102968   -1.151947
 C   -3.423236    0.297783   -0.770590
 C   -1.968661    0.554090   -0.318317
 O   -1.600170    0.315324    0.832383
 C   -4.427806    0.641706    0.328009
 C   -4.461625    2.120837    0.646380
 C   -3.809759    2.632323    1.769466
 C   -5.125038    3.005319   -0.206655
 C   -3.830991    3.997814    2.041532
 C   -5.146178    4.370496    0.060271
 C   -4.498825    4.869675    1.187531
 N   -1.154188    1.019853   -1.299680
 C    0.264035    1.248938   -1.139329
 C    1.104342   -0.051617   -1.199891
 O    0.624997   -1.181733   -1.300648
 C    0.586938    2.062404    0.129763
 O    1.867176    2.666843   -0.066065
 N    2.434198    0.175731   -1.132883
 C    3.385183   -0.900892   -0.971200
 C    3.340751   -1.461263    0.450438
 O    4.302727   -2.382199    0.652518
 C    4.797132   -0.459580   -1.398383
 C    5.338925    0.717780   -0.619570
 C    5.228717    2.014627   -1.130336
 C    5.942453    0.540791    0.628314
 C    5.712343    3.110207   -0.418303
 C    6.424568    1.632825    1.343321
 C    6.312098    2.919699    0.822580
 O    2.541903   -1.160327    1.305146
 H    0.408354   -1.973758    0.417676
 H   -0.857495   -1.358786    1.305164
 H    0.418297   -2.155985    2.070902
 H   -0.100698   -4.208008    0.838724
 H   -2.232914   -3.142025    2.740445
 H   -1.811524   -4.852715    2.479435
 H   -0.641458   -3.748430    4.286941
 H   -0.631246   -2.912168   -1.391348
 H   -3.440100   -3.620846   -2.038817
 H   -2.156890   -3.298890   -3.244412
 H   -3.725904   -1.788058   -0.425450
 H   -3.623623    0.894807   -1.665278
 H   -5.414935    0.307847   -0.011953
 H   -4.170471    0.068554    1.226117
 H   -3.277879    1.952953    2.431125
 H   -5.631910    2.618331   -1.090027
 H   -3.326481    4.381899    2.925206
 H   -5.667659    5.046433   -0.613271
 H   -4.514947    5.936308    1.397536
 H   -1.462002    0.807769   -2.244071
 H    0.572276    1.868632   -1.988752
 H   -0.186852    2.828066    0.262153
 H    0.584581    1.410765    1.012669
 H    2.234537    2.905371    0.793679
 H    2.684115    1.094726   -0.775948
 H    3.066818   -1.724406   -1.622151
 H    4.194889   -2.693535    1.567276
 H    4.745276   -0.201006   -2.461140
 H    5.469256   -1.318352   -1.304755
 H    4.747627    2.166759   -2.095785
 H    6.032144   -0.463539    1.036969
 H    5.614277    4.110516   -0.833252
 H    6.894093    1.478513    2.311227
 H    6.691495    3.770917    1.382120
