87 
4fe6_ligand_xtb.xyz
 O    5.150997   -3.415387    1.622516
 C    4.094429   -3.350140    1.048174
 N    3.413080   -4.428835    0.549215
 C    3.253389   -2.106958    0.738769
 C    4.027424   -1.126841   -0.132593
 C    5.290506   -0.587287    0.458731
 N    3.528232   -0.844078   -1.254168
 C    4.160979    0.096543   -2.136582
 C    2.039525   -2.686262    0.079190
 C    2.206224   -4.076005   -0.019992
 C    1.254124   -4.893212   -0.602240
 C    0.108964   -4.286562   -1.097504
 C    0.904046   -2.093973   -0.424701
 C   -0.052201   -2.916909   -1.003967
 S   -1.546821   -2.184773   -1.651153
 O   -2.418520   -3.226762   -2.118720
 O   -1.211945   -1.148314   -2.592453
 N   -2.166807   -1.439121   -0.281027
 C   -2.675925   -2.397785    0.676420
 C   -2.528948   -1.919313    2.126525
 C   -1.090548   -1.507448    2.423954
 C   -2.982010   -3.032243    3.068465
 C   -2.984403   -0.266893   -0.538811
 C   -2.077328    0.960479   -0.756767
 O   -2.033587    1.371606   -2.096538
 C   -2.464032    2.182466    0.103306
 C   -3.742312    2.879025   -0.371864
 C   -4.974981    2.075923   -0.069047
 C   -5.717749    1.496667   -1.088913
 C   -6.840407    0.739442   -0.801352
 C   -7.234840    0.552472    0.512024
 C   -6.506068    1.133943    1.536384
 C   -5.386312    1.892357    1.246754
 N   -1.362303    3.128526    0.056192
 C   -0.262888    2.892548    0.805169
 O   -0.217280    2.185002    1.781478
 O    0.797625    3.602460    0.336628
 C    1.987608    3.479480    1.092322
 C    3.119437    4.333059    0.499888
 C    3.042188    4.517919   -1.019887
 C    4.452371    4.136340   -1.474158
 O    4.883547    3.136216   -0.573541
 C    4.370413    3.434326    0.704555
 O    3.963215    2.275392    1.361607
 C    2.594894    2.064937    1.071452
 H    3.766924   -5.371374    0.604097
 H    3.021353   -1.590891    1.676101
 H    6.060810   -0.512163   -0.306880
 H    5.103655    0.415717    0.844500
 H    5.646302   -1.218274    1.267100
 H    3.440053    0.344719   -2.915745
 H    4.486119    1.005853   -1.623586
 H    5.037873   -0.355050   -2.608210
 H    1.395696   -5.960109   -0.672989
 H   -0.673870   -4.862163   -1.565604
 H    0.749052   -1.029873   -0.384207
 H   -3.725330   -2.642574    0.462920
 H   -2.086925   -3.307376    0.536840
 H   -3.177174   -1.050039    2.278241
 H   -0.408253   -2.326572    2.205594
 H   -0.988665   -1.237593    3.472223
 H   -0.808664   -0.647455    1.824000
 H   -4.003805   -3.332317    2.848325
 H   -2.337707   -3.902294    2.963166
 H   -2.937882   -2.694560    4.100785
 H   -3.613065   -0.413501   -1.425067
 H   -3.636906   -0.112232    0.319049
 H   -1.068448    0.656878   -0.426197
 H   -1.723732    0.601642   -2.606288
 H   -2.553084    1.862325    1.145536
 H   -3.658246    3.046096   -1.445710
 H   -3.801758    3.845783    0.133830
 H   -5.410509    1.638168   -2.114555
 H   -7.408818    0.293972   -1.604485
 H   -8.109528   -0.039320    0.737700
 H   -6.813654    0.998280    2.563103
 H   -4.824312    2.349751    2.048721
 H   -1.213207    3.571673   -0.839195
 H    1.785383    3.767613    2.131311
 H    3.217981    5.285569    1.017917
 H    2.777427    5.533442   -1.301531
 H    2.309715    3.832354   -1.442722
 H    5.128315    5.001720   -1.416217
 H    4.492933    3.714479   -2.478481
 H    5.156303    3.894929    1.320705
 H    2.182261    1.407897    1.834518
 H    2.463253    1.615504    0.078323
