37 
4few_ligand_ani.xyz
 C    2.165381    0.599896    0.016655
 N    3.251872    1.394008    0.011965
 C    2.952058    2.678863   -0.080274
 N    1.744439    3.257468   -0.181123
 C    0.678489    2.454866   -0.181072
 C    0.842506    1.057265   -0.030913
 C    0.052819   -0.134609    0.019672
 N    0.828791   -1.200723    0.032725
 N    2.112541   -0.760335    0.056826
 C   -1.411724   -0.256106    0.043964
 C   -2.183423    0.613144    0.815157
 C   -3.570667    0.519325    0.815035
 C   -4.177846   -0.460719    0.038756
 C   -3.423558   -1.351718   -0.717846
 C   -2.038266   -1.253565   -0.701568
 C    3.256028   -1.695313    0.085323
 C    4.109936   -1.397353    1.322874
 C    2.729837   -3.126503    0.150146
 C    4.094178   -1.502836   -1.184233
 N   -0.555106    3.020965   -0.297058
Cl   -5.913701   -0.584103    0.023040
 H    3.793330    3.366918   -0.083116
 H   -1.696488    1.368154    1.424502
 H   -4.174325    1.196178    1.408588
 H   -3.920639   -2.115348   -1.308021
 H   -1.430748   -1.948859   -1.274467
 H    4.497867   -0.377304    1.279391
 H    3.511447   -1.508037    2.232233
 H    4.949962   -2.099097    1.373431
 H    2.124353   -3.269762    1.048910
 H    2.104400   -3.344217   -0.719392
 H    3.567851   -3.830782    0.171823
 H    3.490206   -1.700802   -2.075117
 H    4.476613   -0.480727   -1.237058
 H    4.940080   -2.199403   -1.179485
 H   -0.551343    3.986462   -0.596858
 H   -1.281898    2.438881   -0.690452
