68 
4ff8_ligand_xtb.xyz
 O   -8.389650   -0.561793   -1.095266
 C   -8.074698   -0.367781    0.057276
 C   -8.811733   -0.839289    1.302921
 C   -8.207648   -0.001973    2.428670
 C   -6.813288    0.350193    1.899743
 N   -6.981474    0.313532    0.465654
 C   -6.004955    0.855258   -0.440455
 C   -4.725315    0.017302   -0.494266
 C   -3.748787    0.577559   -1.530287
 N   -2.510835   -0.161084   -1.554504
 C   -1.360441    0.330369   -1.030827
 O   -1.308117    1.484300   -0.606392
 C   -0.204533   -0.573679   -1.042513
 C    1.124585   -0.067290   -0.868448
 N    1.347067    1.233474   -0.676184
 C    2.643855    1.796790   -0.407680
 C    2.754582    2.276298    1.056995
 C    3.367052    3.673701    0.985215
 C    2.802691    4.232631   -0.317314
 C    2.903356    3.046418   -1.274937
 C   -0.288869   -1.955466   -1.162084
 N    0.750105   -2.767120   -1.177120
 C    1.954175   -2.179298   -1.077699
 N    2.176927   -0.884095   -0.912452
 N    3.027228   -2.989366   -1.152498
 C    4.357941   -2.485817   -0.912546
 C    4.511156   -1.871199    0.459294
 C    3.877382   -2.416588    1.561286
 C    3.992443   -1.838562    2.814602
 C    4.755930   -0.698574    2.968651
 C    5.402835   -0.136457    1.879973
 C    5.287945   -0.714690    0.621683
 O    5.895172   -0.230395   -0.501698
 C    6.592740    0.987793   -0.417193
 H   -8.605473   -1.903622    1.433043
 H   -9.886436   -0.714123    1.190360
 H   -8.164311   -0.533955    3.376865
 H   -8.791533    0.908064    2.569394
 H   -6.068412   -0.389684    2.221190
 H   -6.475610    1.339940    2.218380
 H   -5.764920    1.881062   -0.140249
 H   -6.475526    0.872146   -1.427352
 H   -4.985637   -1.012366   -0.750805
 H   -4.239275    0.016747    0.483670
 H   -3.488754    1.608752   -1.278292
 H   -4.205199    0.555411   -2.524736
 H   -2.541497   -1.109070   -1.889568
 H    0.515743    1.810302   -0.565682
 H    3.361155    1.002757   -0.622432
 H    3.337756    1.586412    1.664882
 H    1.751680    2.335994    1.482869
 H    4.455288    3.610221    0.919960
 H    3.112706    4.283162    1.851159
 H    3.347990    5.105210   -0.674631
 H    1.758186    4.512217   -0.174749
 H    2.186730    3.109343   -2.092232
 H    3.904236    2.997401   -1.705054
 H   -1.244964   -2.465560   -1.217895
 H    2.841795   -3.977865   -1.137862
 H    4.580270   -1.713857   -1.654605
 H    5.065312   -3.308859   -1.041367
 H    3.272911   -3.302752    1.434560
 H    3.487238   -2.276060    3.662019
 H    4.852830   -0.233910    3.938872
 H    5.994281    0.753895    2.026174
 H    5.944179    1.799293   -0.072511
 H    7.463206    0.910606    0.242741
 H    6.931287    1.202575   -1.429912
