72 
4fhh_ligand_ani.xyz
 C   -3.071296   -0.176027   -0.975136
 C   -3.967722   -0.299480    0.081946
 C   -3.850727    0.526282    1.212755
 C   -2.828766    1.472497    1.223623
 C   -1.924186    1.629967    0.170106
 C   -2.059056    0.778001   -0.922879
 C   -0.810688    2.699809    0.133608
 C    0.534458    1.980438   -0.110041
 C   -0.717718    3.459647    1.483878
 C   -1.132692    3.694348   -1.013937
 C   -2.469528    4.421697   -0.885929
 C    0.380353    4.518336    1.559430
 C    1.427818    2.314922   -1.132461
 C    2.655313    1.680936   -1.301913
 C    2.993105    0.657684   -0.401978
 C    3.594953    2.075883   -2.412349
 C    2.120829    0.293511    0.617595
 C    0.901822    0.951956    0.754535
 O   -4.997221   -1.204110    0.090496
 O   -8.147205   -3.597808    0.393362
 C   -5.082844   -2.091011   -1.002565
 C   -6.233168   -3.050094   -0.790519
 N   -7.154096   -2.674622    0.113955
 O   -6.361965   -4.085417   -1.436613
 C    6.534400   -2.695323    0.463830
 C    6.739959   -2.363848    1.947496
 C    5.627141   -3.924357    0.327185
 C    7.895507   -3.002454   -0.174406
 C    4.558592   -1.041614    0.214466
 O    4.213165    0.073800   -0.595429
 C    5.919180   -1.502186   -0.293211
 O    6.817422   -0.407043   -0.223228
 C   -4.797855    0.403855    2.378201
 H   -3.144095   -0.811288   -1.851357
 H   -2.756629    2.108367    2.101836
 H   -1.351545    0.836951   -1.749386
 H   -0.545187    2.720844    2.276429
 H   -1.686985    3.925790    1.698109
 H   -0.323509    4.430846   -1.086088
 H   -1.129591    3.134957   -1.957662
 H   -3.298249    3.709729   -0.799365
 H   -2.653003    5.044913   -1.767681
 H   -2.491619    5.078241   -0.009068
 H    0.426308    4.951865    2.564167
 H    1.362079    4.085509    1.335782
 H    0.201682    5.338779    0.855642
 H    1.179013    3.105334   -1.835578
 H    3.790023    1.235949   -3.089282
 H    3.174045    2.896892   -3.001579
 H    4.565267    2.401357   -2.019578
 H    2.376269   -0.498338    1.314630
 H    0.219395    0.633773    1.542325
 H   -7.945365   -4.296911   -0.265966
 H   -4.172871   -2.691158   -1.116805
 H   -5.261504   -1.549152   -1.941163
 H   -6.960634   -2.055765    0.884030
 H    7.299936   -3.168652    2.438059
 H    5.786532   -2.262686    2.479296
 H    7.299254   -1.430131    2.061230
 H    6.118605   -4.810518    0.745756
 H    5.400034   -4.132618   -0.725598
 H    4.679137   -3.799363    0.862092
 H    8.576911   -2.154521   -0.067261
 H    8.350954   -3.878446    0.300909
 H    7.786672   -3.218837   -1.244466
 H    3.799529   -1.824538    0.111308
 H    4.622594   -0.724930    1.264226
 H    5.790897   -1.801753   -1.350019
 H    6.316177    0.352564   -0.550863
 H   -4.798192   -0.610019    2.794662
 H   -5.828588    0.637763    2.087055
 H   -4.511736    1.095921    3.176869
