47 
4fkk_ligand_xtb.xyz
 N    1.408422    0.302367   -0.881422
 C    1.447600   -0.835779    0.079267
 C    2.750686   -1.606619   -0.140799
 C    3.920980   -0.683126    0.086887
 C    4.422571   -0.493266    1.368400
 C    4.471399    0.037123   -0.969938
 C    5.461945    0.392749    1.589343
 C    5.513030    0.923983   -0.747312
 C    6.005804    1.105782    0.533066
 C    0.170977   -1.658580   -0.188777
 O    0.099806   -1.949164   -1.571459
 C   -0.991334   -0.745503    0.277531
 O   -0.991438   -0.305472    1.404028
 N   -1.876371   -0.439429   -0.684969
 C   -2.767379    0.695319   -0.546446
 C   -3.787758    0.520528    0.589236
 C   -4.723895   -0.674366    0.375188
 C   -5.546233   -0.887495    1.644234
 C   -5.651188   -0.464254   -0.819274
 C   -1.916513    1.943722   -0.341010
 O   -0.706696    1.961514   -0.487026
 O   -2.613239    3.004486   -0.032407
 H    1.236876   -0.103444   -1.811727
 H    0.620315    0.974973   -0.670767
 H    2.324387    0.778106   -0.873517
 H    1.400491   -0.443980    1.099389
 H    2.770853   -2.009689   -1.155499
 H    2.792608   -2.439520    0.560379
 H    4.005155   -1.051309    2.193080
 H    4.128225   -0.132531   -1.982841
 H    5.851306    0.523344    2.586671
 H    5.941505    1.465698   -1.576302
 H    6.819111    1.792513    0.705810
 H    0.180739   -2.556689    0.432706
 H   -0.005122   -2.893337   -1.717355
 H   -1.745793   -0.859175   -1.593936
 H   -3.305196    0.826796   -1.490590
 H   -4.375391    1.435781    0.660748
 H   -3.240937    0.386693    1.522787
 H   -4.116817   -1.569968    0.201754
 H   -4.898042   -1.064318    2.498738
 H   -6.204004   -1.744769    1.530590
 H   -6.157641   -0.012578    1.850440
 H   -5.103438   -0.417357   -1.758145
 H   -6.218269    0.456010   -0.701351
 H   -6.355945   -1.288192   -0.890692
 H   -2.060960    3.794151    0.101715
