50 
4fli_ligand_ani.xyz
 N   -2.216544    1.691411    0.762190
 O    0.170736   -0.185162   -1.556464
 N   -0.172590    4.572530   -0.298175
 O   -2.902738   -2.827401   -0.668454
 O   -0.255861   -2.930914   -1.365725
 O   -2.629913    1.104939   -1.383482
 O    0.273605    2.372443   -0.441677
 O   -2.387702   -0.767025    1.615212
 C    4.102333   -0.292623    0.352845
 C    2.634505   -0.039253   -0.038828
 C    1.698166   -1.245696    0.006858
 C    0.256575   -0.833789   -0.293970
 C   -0.682213   -2.024453   -0.355365
 C   -2.129247   -1.642215   -0.681398
 C   -2.789885   -0.638278    0.267621
 C    4.853578    1.037709    0.223276
 C    4.747621   -1.321752   -0.582856
 C    4.211502   -0.782779    1.802061
 C   -2.528786    0.797116   -0.203712
 C   -1.920431    3.052521    0.404120
 C   -0.504990    3.271762   -0.149211
 C   -3.095320   -1.781801    2.306488
 H   -2.042016    1.349760    1.693753
 H    0.104669    0.769767   -1.373000
 H   -0.799131    5.320855   -0.054119
 H    0.744327    4.798211   -0.650946
 H   -2.359838   -3.477244   -1.142059
 H   -0.097095   -2.373705   -2.145237
 H    2.227088    0.749523    0.613096
 H    2.607764    0.380091   -1.056524
 H    1.717131   -1.719929    0.997313
 H    2.004577   -2.006595   -0.720179
 H   -0.071833   -0.153837    0.504148
 H   -0.667825   -2.572776    0.591389
 H   -2.141805   -1.182742   -1.679475
 H   -3.875989   -0.807211    0.189715
 H    5.908701    0.923844    0.498191
 H    4.813385    1.414165   -0.805966
 H    4.415691    1.801711    0.877311
 H    5.811425   -1.442741   -0.346102
 H    4.670879   -1.005481   -1.630974
 H    4.277727   -2.307646   -0.491475
 H    5.264082   -0.890462    2.090468
 H    3.733932   -1.758779    1.943181
 H    3.744646   -0.073524    2.497273
 H   -2.070561    3.692891    1.279822
 H   -2.628147    3.366412   -0.372303
 H   -2.696467   -1.812326    3.322981
 H   -2.969512   -2.761272    1.828547
 H   -4.167330   -1.542387    2.350212
