68 
4flj_ligand_dft.xyz
 N   -1.011108   -1.074572   -0.320127
 O    2.855753   -1.279284   -1.975582
 N   -4.395098    0.111010    0.122194
 O    2.564234   -3.673126    1.511968
 O    4.355210   -2.095136    0.217983
 O    0.245549   -2.429923   -1.641700
 O   -2.691548    0.281025    1.612493
 O    0.438234   -1.541665    1.762672
 C    4.031899    3.070104   -0.358273
 C    3.197745    1.810600   -0.442300
 C    3.615364    0.575226   -0.703916
 C    2.697240   -0.612016   -0.728440
 C    3.033897   -1.598641    0.401016
 C    2.106591   -2.820296    0.478562
 C    0.638472   -2.493761    0.745696
 C    5.517855    2.806381   -0.619206
 C    3.857242    3.668042    1.049832
 C    3.497719    4.069505   -1.400600
 C   -0.056691   -1.991673   -0.527356
 C   -1.798561   -0.513748   -1.394256
 C   -3.158090   -1.208462   -1.565130
 C   -3.998908   -0.538659   -2.665615
 C   -4.559409    0.821610   -2.226397
 C   -5.270702    0.721692   -0.872470
 C   -3.964008   -1.230748   -0.259449
 C   -3.671277    0.788194    1.062926
 C   -4.090118    2.177438    1.425845
 C   -3.502394    2.753941    2.690277
 C   -3.003287    3.238149    1.371227
 C    0.448321   -2.062345    3.078281
 H   -1.195636   -0.758121    0.628496
 H    2.038538   -1.789763   -2.122806
 H    3.529387   -3.668981    1.417111
 H    4.408659   -2.284087   -0.733820
 H    2.131408    1.968802   -0.259221
 H    4.664465    0.359549   -0.889923
 H    1.667423   -0.254392   -0.597315
 H    3.019001   -1.080483    1.363733
 H    2.145254   -3.347984   -0.484368
 H    0.145427   -3.444048    1.011384
 H    5.932420    2.107515    0.115648
 H    6.083709    3.742344   -0.552114
 H    5.677703    2.386124   -1.618201
 H    2.800781    3.868227    1.264522
 H    4.404446    4.614068    1.139312
 H    4.232247    2.978988    1.814251
 H    4.037759    5.021676   -1.335854
 H    2.432711    4.274882   -1.239691
 H    3.616340    3.673410   -2.414845
 H   -1.224451   -0.612383   -2.319164
 H   -1.930489    0.553543   -1.189343
 H   -2.955006   -2.247833   -1.851064
 H   -3.407462   -0.423839   -3.581235
 H   -4.837717   -1.201778   -2.916292
 H   -3.755447    1.563023   -2.144890
 H   -5.263068    1.198149   -2.977367
 H   -6.165485    0.091654   -0.964793
 H   -5.601246    1.705557   -0.543085
 H   -3.388726   -1.655446    0.562189
 H   -4.865255   -1.841695   -0.397874
 H   -5.094921    2.495940    1.176662
 H   -4.143651    3.406890    3.273207
 H   -2.857053    2.092344    3.256893
 H   -3.288108    4.227329    1.027247
 H   -2.019254    2.902906    1.058514
 H    0.208704   -1.228339    3.740508
 H    1.424751   -2.484058    3.331685
 H   -0.317585   -2.843080    3.193219
