67 
4fll_ligand_xtb.xyz
 O    2.251562   -1.790125   -2.201007
 C    2.195963   -1.920920   -0.986857
 C    3.160944   -1.188106   -0.045742
 O    2.527302   -1.040705    1.206139
 C    3.414922   -0.790758    2.276892
 C    3.623323    0.129172   -0.692666
 O    4.861177    0.511217   -0.133404
 C    2.623048    1.293903   -0.535477
 O    3.160264    2.417321   -1.197956
 C    1.218852    0.975936   -1.093372
 O    1.290392    0.770843   -2.485909
 C    0.286468    2.135820   -0.857456
 C   -0.090056    2.559603    0.335775
 C   -1.003807    3.717777    0.638887
 C   -1.515937    4.411158   -0.622574
 C   -0.215298    4.724602    1.487088
 C   -2.198088    3.195453    1.449616
 N    1.331849   -2.729303   -0.367525
 C    0.266230   -3.396707   -1.082784
 C   -0.944837   -2.488684   -1.322702
 C   -1.865426   -2.336464   -0.096591
 C   -1.160509   -1.812080    1.117096
 C   -1.032589   -0.559712    1.636967
 C   -0.292368   -0.698234    2.837399
 C   -0.028883   -2.022968    2.965260
 O   -0.552193   -2.710002    1.931102
 C   -3.049136   -1.452832   -0.421877
 C   -2.877969   -0.178191   -0.950362
 C   -3.973522    0.621508   -1.222502
 C   -5.255473    0.161816   -0.973258
 C   -5.435428   -1.106376   -0.450979
 C   -4.338657   -1.905351   -0.177769
 H    4.062198   -1.816102    0.058990
 H    2.789781   -0.661031    3.158172
 H    4.011592    0.106163    2.102389
 H    4.091643   -1.640466    2.423177
 H    3.764843   -0.075526   -1.767421
 H    5.002182    1.433731   -0.390395
 H    2.545892    1.555715    0.524086
 H    2.862983    2.355108   -2.118220
 H    0.842397    0.084084   -0.568792
 H    1.657148   -0.112944   -2.664875
 H   -0.046847    2.604384   -1.770024
 H    0.284676    2.051949    1.216315
 H   -2.174165    5.233613   -0.350682
 H   -0.689091    4.812625   -1.202693
 H   -2.076171    3.716122   -1.243020
 H    0.130225    4.262833    2.409412
 H    0.651847    5.081904    0.936365
 H   -0.840833    5.577206    1.742450
 H   -2.774976    2.481143    0.864753
 H   -1.861872    2.704501    2.360367
 H   -2.852896    4.018565    1.727593
 H    1.295033   -2.682277    0.639984
 H    0.677403   -3.696189   -2.050472
 H   -0.021008   -4.286050   -0.519047
 H   -0.584634   -1.514160   -1.650274
 H   -1.541746   -2.909490   -2.133943
 H   -2.232250   -3.337317    0.162713
 H   -1.421245    0.347341    1.227214
 H   -0.006883    0.084059    3.510418
 H    0.495522   -2.587526    3.710589
 H   -1.887803    0.201694   -1.151234
 H   -3.825586    1.609177   -1.634364
 H   -6.108755    0.788257   -1.186655
 H   -6.431356   -1.476029   -0.255547
 H   -4.488806   -2.894516    0.231538
