56 
4flp_ligand_dft.xyz
 C   -0.776541    3.124516    2.924273
 C    2.514079    4.289053   -2.009211
 C    3.120663    1.250789   -2.251611
 C   -5.955513   -0.158725    0.393859
 C   -6.502217   -2.609983    0.404831
 C   -6.321010   -1.401694   -1.791845
 O   -3.615205   -0.109425   -1.479305
Cl    6.653114   -2.992201    0.642288
 C    4.069607   -2.967956   -0.197333
 C    4.915886   -0.910002    0.760772
 C    2.840142   -2.358946   -0.404583
 C    3.681386   -0.310718    0.539635
 C   -2.080867   -1.711639   -0.557331
 N    0.277083   -1.172551   -0.213735
 N   -2.174490    1.092791    2.620412
 N   -2.275459    0.054680    1.720114
 O   -4.408892   -1.901293   -0.340039
 S    0.543505    3.543711   -0.155178
 C   -3.450351   -1.132532   -0.849571
 C    1.296306   -0.399727   -0.256528
 C    5.100445   -2.234857    0.383541
 C   -1.219024    1.888683    2.223519
 C    2.634164   -1.023403   -0.048870
 C    1.842984    3.182591   -1.250052
 C    2.094966    1.842753   -1.321857
 C   -1.381835    0.248434    0.796964
 C    1.240242    1.073703   -0.449886
 C    0.352650    1.869473    0.230437
 C   -1.053848   -0.596787   -0.394620
 N   -0.669203    1.399089    1.056217
 C   -5.808781   -1.482657   -0.354952
 H    0.307979    3.135278    3.073462
 H   -1.052453    4.029091    2.371734
 H   -1.270357    3.152843    3.896813
 H    3.585985    4.094752   -2.107791
 H    2.396328    5.252689   -1.505855
 H    2.094586    4.388258   -3.017351
 H    2.851233    0.230952   -2.538174
 H    4.111528    1.200765   -1.786652
 H    3.204669    1.844431   -3.166301
 H   -7.018376    0.047811    0.558178
 H   -5.454663   -0.220517    1.364759
 H   -5.519372    0.667184   -0.169579
 H   -6.347955   -3.567809   -0.101676
 H   -6.103436   -2.686562    1.420650
 H   -7.577762   -2.416197    0.464232
 H   -6.155166   -2.353045   -2.308305
 H   -7.397719   -1.201310   -1.782756
 H   -5.817799   -0.604699   -2.341388
 H    4.231074   -4.002185   -0.480380
 H    5.725698   -0.358050    1.224926
 H    2.019242   -2.915248   -0.843858
 H    3.532101    0.723389    0.836545
 H   -1.777932   -2.347196   -1.396703
 H   -2.118248   -2.331865    0.339543
 H   -1.082136    0.050764   -1.283902
