56 
4flp_ligand_xtb.xyz
 C   -1.121142    3.002838    2.721695
 C    2.699336    4.364082   -1.602104
 C    3.299743    1.371199   -2.017381
 C   -5.669723   -0.017391    0.447541
 C   -6.267659   -2.430035    0.793127
 C   -6.385040   -1.435769   -1.516658
 O   -3.631071   -0.191323   -1.696604
Cl    6.570587   -2.949418    0.764203
 C    4.082174   -2.900769   -0.277348
 C    4.795098   -0.927087    0.911813
 C    2.866446   -2.300105   -0.534874
 C    3.578606   -0.330255    0.642405
 C   -2.023315   -1.778808   -0.888165
 N    0.291157   -1.167820   -0.429595
 N   -2.382948    0.911913    2.302010
 N   -2.375585   -0.091697    1.401601
 O   -4.289485   -1.866835   -0.336723
 S    0.541828    3.530628   -0.030537
 C   -3.410586   -1.172684   -1.029614
 C    1.295587   -0.390849   -0.359263
 C    5.044843   -2.207525    0.442224
 C   -1.449041    1.758670    1.994335
 C    2.606011   -1.004970   -0.091846
 C    1.938635    3.226444   -1.018056
 C    2.189680    1.895219   -1.164412
 C   -1.434610    0.144907    0.545186
 C    1.246939    1.076820   -0.468957
 C    0.285683    1.826883    0.166932
 C   -1.029762   -0.642080   -0.652747
 N   -0.783150    1.317282    0.870115
 C   -5.659278   -1.413392   -0.172069
 H   -0.055369    3.049603    2.943144
 H   -1.387591    3.875128    2.124871
 H   -1.688043    3.019610    3.647321
 H    3.762616    4.261321   -1.388078
 H    2.347035    5.307367   -1.193237
 H    2.575249    4.390603   -2.685631
 H    3.116756    0.336115   -2.291836
 H    4.251944    1.420506   -1.489188
 H    3.386142    1.967313   -2.923881
 H   -6.676151    0.234519    0.770064
 H   -4.998660    0.006141    1.303311
 H   -5.333996    0.721610   -0.274595
 H   -6.197747   -3.430744    0.374799
 H   -5.725118   -2.408265    1.733882
 H   -7.311633   -2.193343    0.976166
 H   -6.352653   -2.435491   -1.944977
 H   -7.422580   -1.145159   -1.376824
 H   -5.914731   -0.741705   -2.207851
 H    4.287186   -3.900174   -0.627416
 H    5.546618   -0.406643    1.484670
 H    2.098580   -2.821154   -1.084068
 H    3.378794    0.661341    1.021221
 H   -1.756638   -2.309717   -1.802434
 H   -2.010471   -2.467632   -0.046847
 H   -1.042384    0.044357   -1.518335
