66 
4fm7_ligand_ani.xyz
 C    1.410107    3.173307   -1.521561
 C   -2.988033   -2.609922    0.095311
 C    2.111646    1.974869   -1.416552
 C   -4.095350   -2.838170   -0.718821
 C    0.958788    3.837140   -0.386144
 C   -3.743589   -0.366996    0.526133
 C    1.932491    2.087845    0.991847
 C   -2.800725   -1.382604    0.721748
 C    2.338251    1.412322   -0.156982
 C   -5.028090   -1.833024   -0.915898
 C   -4.849829   -0.588608   -0.283807
 C    1.241738    3.282982    0.851136
 C    1.095729   -1.147150   -1.112319
 C    2.131018   -1.897545    1.040800
 C    3.489836   -1.904030   -1.061880
 C   -0.117861   -0.658307   -0.335523
 C    0.930166   -1.362024    1.815368
 C    2.389862   -1.177240   -0.291650
 C    0.739140   -2.116292    3.126472
 C   -4.902134    2.533014   -0.537536
 C   -7.300319    2.071330    0.071182
 C    5.953506   -1.968716   -1.122710
 C   -1.596287   -1.138184    1.601521
 C   -5.869526    1.566473    0.126505
 N    3.003776    0.156282   -0.029657
 N    4.746392   -1.478714   -0.465396
 N   -0.301913   -1.468135    0.927814
 O    4.928419    0.795317   -1.640422
 O    5.396780    0.651422    0.812900
 O   -6.113489   -2.035925   -1.706489
 O   -5.856309    0.307669   -0.554480
 F    0.837269    3.925454    1.960078
 S    4.662215    0.188626   -0.342065
 H    1.221267    3.593422   -2.504497
 H   -2.258648   -3.406697    0.240295
 H    2.509721    1.481893   -2.299411
 H   -4.242507   -3.793133   -1.214528
 H    0.411990    4.773257   -0.443623
 H   -3.600784    0.595513    1.006874
 H    2.159644    1.700696    1.980966
 H    0.901500   -2.177036   -1.442170
 H    1.232635   -0.543176   -2.013497
 H    3.036543   -1.832263    1.648897
 H    1.944347   -2.960486    0.831196
 H    3.394005   -2.991855   -0.972028
 H    3.455340   -1.640589   -2.132132
 H   -1.025012   -0.750189   -0.936478
 H   -0.007526    0.392293   -0.054844
 H    1.071467   -0.297030    2.029147
 H    1.686951   -2.182999    3.667221
 H    0.019365   -1.617376    3.780969
 H    0.386868   -3.136613    2.929331
 H   -4.919984    3.496901   -0.017790
 H   -5.199976    2.690683   -1.579485
 H   -3.873674    2.160771   -0.535188
 H   -7.988961    1.339668    0.502979
 H   -7.395334    3.008759    0.629536
 H   -7.595022    2.259052   -0.966660
 H    6.817751   -1.693641   -0.516523
 H    5.892663   -3.059384   -1.161942
 H    6.070064   -1.566097   -2.136516
 H   -1.667660   -1.747620    2.505967
 H   -1.568933   -0.086112    1.915253
 H   -5.587875    1.397378    1.172892
 H   -0.357900   -2.465196    0.641151
 H   -6.617383   -1.206615   -1.684261
