50 
4fny_ligand_dft.xyz
 C   -8.772652   -1.670124   -0.989905
 O   -7.922519   -1.474225    0.118089
 C   -6.688739   -0.985354   -0.125025
 C   -6.190955   -0.661600   -1.359647
 C   -5.874495   -0.810939    1.047480
 O   -6.474584   -1.164543    2.205290
 C   -5.728480   -1.020287    3.391698
 C   -4.601402   -0.320739    0.928795
 C   -4.078782    0.017034   -0.348241
 C   -4.872374   -0.151468   -1.506358
 N   -4.440564    0.150463   -2.761710
 C   -3.218398    0.620363   -2.872844
 C   -2.330602    0.834186   -1.799035
 C   -2.770062    0.529041   -0.531670
 O   -2.030864    0.677919    0.603307
 C   -0.762141    1.219370    0.500373
 C    0.322493    0.355775    0.393443
 C   -0.625109    2.609301    0.558549
 C    0.637438    3.198912    0.512645
 C    1.703994    2.330490    0.408213
 O    3.045654    2.626784    0.345999
 C    1.582636    0.941534    0.349091
 N    2.851671    0.373486    0.249439
 C    3.639020    1.402343    0.253358
 N    4.990756    1.465006    0.178284
 C    5.908307    0.406753    0.075551
 C    5.521783   -0.934945    0.033110
 C    6.491694   -1.926236   -0.069312
 C    7.836670   -1.586263   -0.129155
Cl    9.046928   -2.841508   -0.257508
 C    8.230384   -0.253500   -0.087685
 C    7.265753    0.737617    0.014435
 H   -8.969805   -0.726267   -1.513860
 H   -8.346622   -2.392732   -1.697397
 H   -9.705609   -2.063595   -0.585333
 H   -6.771848   -0.778673   -2.265924
 H   -4.822454   -1.639832    3.372986
 H   -5.444734    0.026493    3.561743
 H   -6.380590   -1.355180    4.198943
 H   -3.969485   -0.180997    1.796252
 H   -2.883923    0.856845   -3.881745
 H   -1.336572    1.224730   -1.979245
 H    0.179943   -0.717438    0.349831
 H   -1.518640    3.217871    0.641454
 H    0.769474    4.273549    0.558695
 H    5.369814    2.399734    0.200944
 H    4.472537   -1.196097    0.079969
 H    6.193659   -2.968416   -0.102497
 H    9.281451    0.008593   -0.134705
 H    7.575199    1.779310    0.046762
