70 
4fnz_ligand_dft.xyz
 C   -8.152629    3.716458    1.408986
 O   -7.888796    3.123160    0.144947
 C   -7.298777    1.889762    0.211412
 C   -5.991617    1.754252   -0.242049
 C   -8.009704    0.786315    0.682392
 O   -9.289557    0.923602    1.151933
 C  -10.271349    0.793618    0.135828
 C   -7.387687   -0.470838    0.673821
 O   -8.153267   -1.498740    1.115258
 C   -7.579179   -2.786496    1.126453
 C   -6.077391   -0.620179    0.222265
 C   -5.378427    0.499207   -0.241291
 N   -4.061890    0.444153   -0.717991
 C   -3.161549   -0.583417   -0.828368
 N   -1.976483   -0.190169   -1.321771
 N   -3.501352   -1.819054   -0.454259
 C   -2.532256   -2.729217   -0.611604
 C   -1.279406   -2.461262   -1.112742
 C   -1.027960   -1.116461   -1.482284
 N    0.159079   -0.702656   -2.031007
 C    1.370721   -1.495893   -1.900271
 C    0.446219    0.726814   -2.119003
 C    1.150220    1.202097   -0.844665
 C    2.405094    0.368075   -0.567857
 C    2.098057   -1.145488   -0.594684
 C    3.401501   -1.917941   -0.482846
 O    4.055281   -2.234602   -1.467252
 N    3.805074   -2.192441    0.791345
 C    5.146905   -2.672768    1.077559
 C    6.108037   -1.546374    1.397138
 C    6.378009   -0.582735    0.424730
 C    6.709442   -1.438999    2.649446
 C    7.565037   -0.376461    2.925452
 C    7.826712    0.597859    1.968839
 C    7.226104    0.474106    0.718565
 O    7.383855    1.387533   -0.316519
 C    8.451319    2.211055   -0.361644
 F    9.610637    1.559479   -0.223507
 F    8.436712    2.815108   -1.540424
 F    8.410507    3.157404    0.591377
 H   -8.830816    3.097315    2.003394
 H   -7.217294    3.874940    1.961399
 H   -8.617799    4.682299    1.202388
 H   -5.475812    2.639990   -0.600423
 H  -11.241191    0.918052    0.622158
 H  -10.221925   -0.198322   -0.328938
 H  -10.143723    1.567031   -0.631316
 H   -6.701615   -2.829393    1.783628
 H   -8.351544   -3.454630    1.509925
 H   -7.287315   -3.107117    0.118343
 H   -5.582348   -1.578903    0.211012
 H   -3.675190    1.319227   -1.039427
 H   -2.788234   -3.743537   -0.311206
 H   -0.551585   -3.253482   -1.212946
 H    2.027376   -1.268195   -2.745361
 H    1.151856   -2.561271   -1.962877
 H   -0.487241    1.261649   -2.280739
 H    1.093468    0.879677   -2.991372
 H    1.417841    2.260329   -0.938608
 H    0.445094    1.116478   -0.008423
 H    2.850732    0.647427    0.393954
 H    3.160210    0.573446   -1.338648
 H    1.437222   -1.394281    0.247517
 H    3.292047   -1.768047    1.550359
 H    5.473666   -3.214196    0.186556
 H    5.100889   -3.383090    1.908663
 H    5.938107   -0.655566   -0.565087
 H    6.509439   -2.186633    3.412368
 H    8.030374   -0.293996    3.902632
 H    8.480787    1.427884    2.201438
