70 
4fnz_ligand_xtb.xyz
 C    9.137026    3.546110   -0.887573
 O    7.825294    3.231445   -0.476418
 C    7.399001    1.940607   -0.394558
 C    6.048739    1.825399   -0.064424
 C    8.156140    0.785147   -0.607732
 O    9.497231    0.853771   -0.959474
 C   10.397710    0.334687   -0.002348
 C    7.518888   -0.468228   -0.503994
 O    8.309724   -1.553504   -0.751797
 C    7.720713   -2.830465   -0.713077
 C    6.179645   -0.566895   -0.170583
 C    5.436949    0.588048    0.057347
 N    4.094804    0.555691    0.402184
 C    3.238161   -0.487373    0.573333
 N    2.011978   -0.106386    0.937591
 N    3.635050   -1.741147    0.374295
 C    2.709001   -2.673724    0.566720
 C    1.416850   -2.405503    0.948253
 C    1.085435   -1.046334    1.141071
 N   -0.124299   -0.618097    1.576369
 C   -1.309007   -1.433842    1.615484
 C   -0.421415    0.796840    1.615088
 C   -1.277894    1.188648    0.409895
 C   -2.554846    0.351522    0.383766
 C   -2.204890   -1.144181    0.401297
 C   -3.489103   -1.955521    0.495246
 O   -3.928254   -2.393149    1.536644
 N   -4.110578   -2.136484   -0.694819
 C   -5.422823   -2.737715   -0.791896
 C   -6.495341   -1.709420   -1.045627
 C   -6.542529   -0.569242   -0.257223
 C   -7.435146   -1.873207   -2.055499
 C   -8.405304   -0.911503   -2.266031
 C   -8.454568    0.234677   -1.487059
 C   -7.514216    0.391715   -0.484171
 O   -7.448103    1.504163    0.375323
 C   -8.329661    2.476113    0.283110
 F   -9.604166    2.094071    0.475191
 F   -8.060039    3.389721    1.209373
 F   -8.323216    3.117583   -0.901442
 H    9.878171    3.251873   -0.139929
 H    9.384092    3.079250   -1.842253
 H    9.147212    4.631527   -0.993108
 H    5.497714    2.738622    0.096488
 H   11.393660    0.518887   -0.402681
 H   10.255881   -0.737751    0.145519
 H   10.289942    0.848071    0.961146
 H    6.911584   -2.920794   -1.443484
 H    8.518621   -3.527501   -0.966787
 H    7.334831   -3.065032    0.283903
 H    5.679901   -1.514101   -0.084390
 H    3.661774    1.453110    0.572493
 H    3.041526   -3.690851    0.399021
 H    0.715059   -3.207257    1.093411
 H   -1.871373   -1.197754    2.525222
 H   -1.058854   -2.492066    1.650175
 H    0.523490    1.338061    1.613166
 H   -0.964813    1.008773    2.541880
 H   -1.526745    2.248961    0.462500
 H   -0.703052    1.016114   -0.502418
 H   -3.148285    0.593846   -0.501473
 H   -3.157473    0.581404    1.266036
 H   -1.665345   -1.403749   -0.516086
 H   -3.746771   -1.687153   -1.519892
 H   -5.599282   -3.226236    0.172433
 H   -5.423913   -3.494002   -1.581685
 H   -5.836659   -0.420803    0.543692
 H   -7.410624   -2.757834   -2.673828
 H   -9.136088   -1.044550   -3.048421
 H   -9.218297    0.971548   -1.675193
