45 
4fri_ligand_dft.xyz
 C   -7.261256   -1.058443   -0.191346
 O   -6.066006   -1.643424   -0.657400
 C   -4.903575   -0.981793   -0.433052
 C   -3.748710   -1.596881   -0.930978
 C   -2.512235   -1.005549   -0.746716
 C   -4.796211    0.232731    0.242653
 C   -3.542155    0.819827    0.414124
 C   -2.388998    0.213383   -0.066838
 C   -1.024993    0.875480    0.059400
 C   -0.666132    1.582983   -1.267982
 O    0.115375    2.713389   -0.886698
 C   -0.145509    3.002070    0.421104
 N   -1.047169    2.066961    0.910515
 N    0.341469    3.958983    1.088257
 C    0.052221   -0.100223    0.553071
 C    1.373113    0.000420    0.119934
 C   -0.263381   -1.045840    1.532857
 C    0.719749   -1.879988    2.050825
 C    2.030243   -1.784236    1.597276
 C    2.369568   -0.838306    0.627530
 C    3.774005   -0.713399    0.168998
 C    4.845816   -0.747720    1.059427
 C    6.152644   -0.638563    0.591791
 C    6.349369   -0.494212   -0.773233
 N    5.343288   -0.460876   -1.654362
 C    4.128159   -0.566587   -1.179862
 F    3.151705   -0.538277   -2.094555
 H   -7.256156   -0.945518    0.900459
 H   -8.061382   -1.741492   -0.478339
 H   -7.436727   -0.079282   -0.655137
 H   -3.848588   -2.541697   -1.454723
 H   -1.624406   -1.503233   -1.128084
 H   -5.671343    0.734166    0.639620
 H   -3.462705    1.773658    0.925510
 H   -1.578092    1.926784   -1.765167
 H   -0.085233    0.961859   -1.951714
 H   -0.994204    1.931865    1.911597
 H    0.944003    4.526582    0.496285
 H    1.649868    0.752577   -0.609790
 H   -1.288422   -1.141120    1.878859
 H    0.459598   -2.619453    2.801930
 H    2.789118   -2.460234    1.981369
 H    4.647507   -0.842983    2.123107
 H    6.995149   -0.655420    1.273977
 H    7.348218   -0.398691   -1.190756
