52 
4frk_ligand_dft.xyz
 C    5.014336   -1.423478   -1.135824
 N    6.125815   -2.133465   -1.322288
 C    7.233048   -1.639953   -0.768642
 N    7.338929   -0.523251   -0.048945
 C    6.210899    0.161477    0.131361
 C    4.982305   -0.236591   -0.399988
 C    3.742690    0.543028   -0.198831
 C    2.528229   -0.095754    0.042892
 C    1.347527    0.620473    0.236166
 C    3.761513    1.944856   -0.244196
 C    2.600700    2.674596   -0.063355
 C    1.396040    2.012149    0.170467
 O    0.294323    2.795269    0.328811
 C   -0.940311    2.202889    0.211281
 C   -2.020745    3.061761    0.010663
 C   -3.293785    2.545317   -0.126922
 C   -3.500634    1.160271   -0.076971
 O   -4.780817    0.745764   -0.228899
 C   -5.044035   -0.647725   -0.221599
 C   -6.536739   -0.860155   -0.435603
 C   -6.996293   -0.278082   -1.772953
 C   -6.856983   -2.353297   -0.336048
 C   -2.417481    0.311029    0.123764
 C   -1.125085    0.828747    0.280470
 C    0.053812   -0.083046    0.588661
 C    0.049193   -0.545551    2.073803
 O   -0.697368   -1.758700    2.078491
 C   -0.732057   -2.264680    0.815457
 N   -1.302592   -3.333740    0.450059
 N   -0.053379   -1.398036   -0.025341
 H    4.109663   -1.808642   -1.603716
 H    8.147677   -2.207595   -0.920517
 H    6.284231    1.062371    0.738911
 H    2.481461   -1.179613    0.104311
 H    4.690629    2.466490   -0.454443
 H    2.597759    3.757693   -0.119719
 H   -1.838654    4.129587   -0.045465
 H   -4.147384    3.195111   -0.286613
 H   -4.473079   -1.141680   -1.023018
 H   -4.727928   -1.082457    0.737601
 H   -7.058210   -0.333452    0.374404
 H   -8.075009   -0.413853   -1.903944
 H   -6.491773   -0.782249   -2.607049
 H   -6.773063    0.790063   -1.836909
 H   -6.557998   -2.768930    0.632579
 H   -6.337587   -2.917517   -1.120362
 H   -7.930802   -2.525225   -0.459475
 H   -2.564756   -0.761532    0.160476
 H    1.069988   -0.745072    2.416782
 H   -0.437146    0.170583    2.737186
 H   -1.696699   -3.812593    1.257001
 H   -0.298711   -1.460392   -1.003954
