51 
4fs3_ligand_ani.xyz
 O  112.126691   65.154699   35.647774
 C  111.165147   65.907318   35.636828
 C  110.688187   66.588827   36.911018
 C  111.465942   66.093354   38.131897
 C  110.979273   66.709318   39.416035
 C  109.869518   66.201200   40.097073
 C  109.407028   66.816469   41.247235
 C  108.172868   66.405049   42.012088
 C  108.338420   66.666039   43.509643
 C  111.573253   67.848615   39.956809
 N  111.161208   68.467404   41.062068
 C  110.112730   67.941235   41.694335
 N  109.704104   68.581174   42.861530
 C  108.853848   68.059875   43.817892
 O  108.590621   68.667805   44.835012
 N  110.441784   66.133803   34.485285
 C  110.975133   65.559811   33.257210
 C  109.629533   67.325660   34.319996
 C  110.419122   68.552811   33.972763
 O  111.511767   68.793631   34.774762
 C  112.076131   69.945141   34.321343
 C  111.346172   70.439458   33.240638
 C  110.257341   69.512200   33.027097
 C  109.200399   69.630722   31.975867
 C  113.208824   70.566034   34.829183
 C  113.598317   71.738808   34.199009
 C  112.883687   72.262975   33.109142
 C  111.757197   71.623652   32.620348
 H  110.800925   67.670248   36.804708
 H  109.616510   66.388523   37.045158
 H  111.381294   65.002369   38.185731
 H  112.529388   66.309663   37.986576
 H  109.365077   65.310520   39.719597
 H  107.313696   66.981919   41.641097
 H  107.945876   65.347782   41.829752
 H  107.403066   66.535016   44.058310
 H  109.062440   65.958543   43.935567
 H  112.444003   68.290049   39.471294
 H  110.167040   69.449908   43.097124
 H  111.462226   64.614571   33.496261
 H  110.157055   65.385442   32.550872
 H  111.710867   66.228522   32.789183
 H  109.055094   67.505001   35.236302
 H  108.895469   67.134623   33.529491
 H  109.648781   69.755089   30.984158
 H  108.557029   68.745125   31.940185
 H  108.558771   70.501081   32.154500
 H  113.758689   70.157531   35.670827
 H  114.478984   72.266088   34.557217
 H  113.223597   73.184566   32.644834
 H  111.202877   72.027737   31.776376
