45 
4fs4_ligand_xtb.xyz
 C    3.437864   -3.253270   -1.084035
 O    4.378846   -2.609872   -0.259297
 C    4.129042   -1.333067    0.143363
 C    5.103576   -0.749954    0.955734
 C    4.942305    0.542052    1.409795
 C    3.819542    1.274863    1.063471
 C    2.840418    0.705308    0.258165
 C    2.999611   -0.602045   -0.197999
 C    1.640123    1.467913   -0.119194
 C    1.731376    2.806768   -0.491378
 C    0.594336    3.505526   -0.846305
 C   -0.645410    2.887624   -0.842083
 C   -0.757716    1.551843   -0.480817
 C   -2.093208    0.828590   -0.427551
 C   -3.149032    1.453518   -1.350963
 C   -2.588404    0.809178    1.022776
 C   -3.786394   -0.097012    1.194837
 O   -4.686728    0.151468    1.966412
 N   -3.768541   -1.239876    0.440500
 C   -4.847951   -2.192840    0.622515
 C   -2.773078   -1.546274   -0.511067
 N   -2.639651   -2.653596   -1.111194
 N   -1.874362   -0.561174   -0.780814
 C    0.389717    0.860061   -0.114097
 H    2.466150   -3.350511   -0.589116
 H    3.309948   -2.726732   -2.035504
 H    3.843834   -4.245332   -1.275157
 H    5.973866   -1.332288    1.212758
 H    5.698872    0.984084    2.040896
 H    3.691198    2.279858    1.435807
 H    2.240328   -1.023732   -0.837802
 H    2.696250    3.290424   -0.517943
 H    0.669854    4.543708   -1.134468
 H   -1.515490    3.458616   -1.122175
 H   -4.029639    0.815054   -1.386159
 H   -3.459091    2.429122   -0.988214
 H   -2.755518    1.555082   -2.360142
 H   -1.792470    0.429740    1.670190
 H   -2.856086    1.807984    1.366663
 H   -5.313788   -2.427182   -0.336087
 H   -5.580914   -1.729067    1.280309
 H   -4.481931   -3.110448    1.088236
 H   -3.280095   -3.387103   -0.841598
 H   -1.311235   -0.753515   -1.595318
 H    0.306578   -0.170714    0.197465
