45 
4fs4_ligand_ani.xyz
 C    3.466029   -3.231388   -1.132027
 O    4.400885   -2.643483   -0.255607
 C    4.162659   -1.367281    0.151881
 C    5.142520   -0.804191    0.976172
 C    4.987749    0.493962    1.435340
 C    3.870759    1.245167    1.079579
 C    2.883719    0.686690    0.268003
 C    3.031691   -0.628102   -0.189821
 C    1.672278    1.466154   -0.115336
 C    1.766326    2.802710   -0.513500
 C    0.627992    3.491565   -0.912041
 C   -0.617354    2.868339   -0.906232
 C   -0.741233    1.540065   -0.495201
 C   -2.092209    0.829414   -0.404022
 C   -3.134385    1.453682   -1.342542
 C   -2.585777    0.838443    1.045328
 C   -3.755145   -0.090544    1.276513
 O   -4.569226    0.109505    2.156669
 N   -3.823860   -1.215260    0.453271
 C   -4.906400   -2.159079    0.679012
 C   -2.908160   -1.501480   -0.580505
 N   -2.943076   -2.522870   -1.345709
 N   -1.892524   -0.580124   -0.733343
 C    0.414180    0.860019   -0.110382
 H    2.472690   -3.301041   -0.670175
 H    3.388490   -2.669062   -2.071631
 H    3.838186   -4.235062   -1.342147
 H    6.008240   -1.405373    1.236690
 H    5.749201    0.932839    2.074103
 H    3.754081    2.259766    1.451776
 H    2.258842   -1.048450   -0.828989
 H    2.737185    3.292628   -0.535135
 H    0.707430    4.527157   -1.231805
 H   -1.487322    3.428113   -1.237460
 H   -4.052033    0.860602   -1.351003
 H   -3.394049    2.464662   -1.014049
 H   -2.742802    1.500451   -2.364086
 H   -1.767991    0.507514    1.698142
 H   -2.871569    1.839443    1.369349
 H   -5.549573   -2.236921   -0.205333
 H   -5.491193   -1.781570    1.515445
 H   -4.514018   -3.150985    0.931055
 H   -3.729000   -3.130379   -1.139141
 H   -1.385699   -0.746830   -1.592594
 H    0.322422   -0.172772    0.217643
