24 
4fxj_ligand_xtb.xyz
 N   -0.932058    1.200871   -0.890976
 C   -1.323651   -0.168268   -0.466891
 C   -2.801375   -0.050944   -0.054909
 O   -3.285008    1.046850    0.061071
 C   -0.477801   -0.582415    0.755955
 C    0.979460   -0.348950    0.454344
 C    1.745946   -1.328535   -0.163323
 C    1.549569    0.896594    0.724107
 C    3.065999   -1.075323   -0.493994
 C    2.872107    1.147110    0.387182
 C    3.627498    0.163735   -0.227636
 O   -3.376957   -1.198201    0.159895
 H   -1.701357    1.811353   -0.509378
 H   -0.893509    1.322391   -1.906211
 H    0.001218    1.426718   -0.469255
 H   -1.198731   -0.890348   -1.274953
 H   -0.781720    0.005684    1.624355
 H   -0.668650   -1.632710    0.971288
 H    1.313949   -2.296550   -0.367323
 H    0.999046    1.643575    1.284779
 H    3.659196   -1.848087   -0.956578
 H    3.310472    2.105755    0.616254
 H    4.656867    0.356578   -0.483746
 H   -4.303176   -1.117660    0.450869
