23 
4fxz_ligand_dft.xyz
 N    0.697373    1.670272   -0.364282
 C    0.607488    0.302508    0.270421
 C    2.002677   -0.293317    0.077303
 O    2.057466   -1.553268    0.454103
 C   -0.537074   -0.516504   -0.321750
 C   -1.926425    0.134770   -0.196329
 C   -2.283377    0.473210    1.253952
 C   -2.971498   -0.798639   -0.814169
 O    2.917285    0.370633   -0.354467
 H    0.352675    1.653118   -1.329624
 H    0.165294    2.379744    0.145454
 H    1.702910    1.922179   -0.402695
 H    0.457719    0.463668    1.342022
 H    2.966633   -1.884892    0.344161
 H   -0.534882   -1.478784    0.201013
 H   -0.315282   -0.736148   -1.375021
 H   -1.937139    1.067787   -0.783685
 H   -2.244159   -0.421972    1.885096
 H   -1.621139    1.226722    1.700964
 H   -3.298246    0.875449    1.312367
 H   -3.024844   -1.741737   -0.259054
 H   -2.737870   -1.031195   -1.858104
 H   -3.962033   -0.336921   -0.786571
