61 
4fyo_ligand_ani.xyz
 C    1.812898   -2.164495    0.608765
 N    2.230647   -0.910754    0.312186
 N    2.309974   -3.320211    0.146774
 C    3.244960   -0.780833   -0.525856
 C    3.334403   -3.157662   -0.683451
 C    3.867851   -1.933067   -1.071023
 N    0.776367   -2.236173    1.464341
 N    4.938942   -1.964149   -1.944209
 S    4.233817   -4.426091   -1.465781
 C   -2.973097   -0.284302    1.725464
 N    3.736820    0.436388   -0.896295
 C    5.219555   -3.191386   -2.220362
 N   -2.251870   -1.445968    1.773025
 C   -7.148520    0.037891   -2.231327
 C    2.101452    2.025854    0.042112
 C    1.742318    3.337386    0.321675
 C    0.187198   -1.057073    2.073937
 C   -4.066394   -0.233740    0.706961
 C    3.325328    1.742063   -0.572303
 C   -6.079036   -0.015758   -1.203794
 C    0.152305   -3.489399    1.853131
 C   -1.125935   -1.578897    2.682709
 C    2.606404    4.403753   -0.020240
 O   -2.727432    0.664342    2.460172
 O   -7.744647   -0.924701   -2.659470
 C   -0.811021   -3.055233    2.968351
 C   -4.717549   -1.381588    0.244761
 C   -4.450419    1.021093    0.229889
 C   -5.443145    1.135901   -0.730192
 C   -5.721789   -1.271316   -0.704232
 C    3.816293    4.107994   -0.630920
 O   -7.411082    1.288219   -2.665765
 C    4.175790    2.790920   -0.907684
 O    0.578924    3.692946    0.926094
 O    2.170159    5.650841    0.284758
 C   -0.315931    2.658393    1.263314
 C    3.002922    6.731324   -0.074230
 H    4.537646    0.366205   -1.512290
 H    6.022313   -3.489374   -2.886513
 H   -2.320207   -2.091530    1.000322
 H    1.446371    1.201731    0.282825
 H    0.014087   -0.280814    1.322167
 H    0.846810   -0.646174    2.850236
 H   -0.364955   -3.944884    0.999419
 H    0.907388   -4.205172    2.190494
 H   -1.393566   -1.017535    3.576112
 H   -0.306446   -3.140250    3.937484
 H   -1.718818   -3.661804    3.008815
 H   -4.465280   -2.361284    0.646754
 H   -3.953708    1.899616    0.630612
 H   -5.736156    2.107037   -1.117038
 H   -6.238745   -2.148307   -1.081061
 H    4.501289    4.902775   -0.906094
 H   -8.116123    1.187674   -3.325910
 H    5.131428    2.586881   -1.384255
 H   -0.622761    2.095618    0.369829
 H   -1.190330    3.137905    1.705635
 H    0.125141    1.967844    1.996148
 H    2.477585    7.633428    0.241836
 H    3.973537    6.676954    0.436660
 H    3.167827    6.766873   -1.159481
