61 
4fyo_ligand_xtb.xyz
 C    1.722880   -2.149554    0.540652
 N    2.187207   -0.914804    0.289627
 N    2.195142   -3.303925    0.058223
 C    3.247968   -0.786849   -0.494837
 C    3.257532   -3.173304   -0.715370
 C    3.858786   -1.948213   -1.034122
 N    0.661907   -2.227479    1.356816
 N    4.952237   -2.025559   -1.840797
 S    4.133415   -4.461184   -1.489193
 C   -2.990805   -0.291816    1.758301
 N    3.793940    0.407602   -0.807373
 C    5.208307   -3.237709   -2.149212
 N   -2.308980   -1.464947    1.804292
 C   -7.092724    0.143644   -2.248534
 C    2.179748    1.995906    0.110428
 C    1.807479    3.306230    0.350507
 C    0.112003   -1.083647    2.042676
 C   -4.055020   -0.220034    0.713069
 C    3.394209    1.708309   -0.514033
 C   -6.032252    0.048517   -1.218977
 C    0.043932   -3.475737    1.744993
 C   -1.172899   -1.618218    2.686863
 C    2.670238    4.362640   -0.023545
 O   -2.759478    0.629423    2.516576
 O   -7.748104   -0.788564   -2.642631
 C   -0.851652   -3.095022    2.925666
 C   -4.781534   -1.334708    0.300660
 C   -4.338339    1.028791    0.165331
 C   -5.314957    1.166499   -0.800173
 C   -5.765854   -1.198995   -0.657363
 C    3.873311    4.062568   -0.637272
 O   -7.266312    1.386883   -2.719904
 C    4.233364    2.747163   -0.888100
 O    0.638583    3.689714    0.928430
 O    2.221803    5.619100    0.260338
 C   -0.283556    2.696645    1.303034
 C    3.044828    6.708056   -0.069593
 H    4.633282    0.326119   -1.368229
 H    6.026471   -3.531789   -2.775556
 H   -2.383297   -2.111016    1.034882
 H    1.554663    1.169320    0.395511
 H   -0.096159   -0.276389    1.338686
 H    0.813581   -0.711119    2.797449
 H   -0.533067   -3.882986    0.905605
 H    0.808390   -4.211352    2.004190
 H   -1.416950   -1.072372    3.601022
 H   -0.304184   -3.195040    3.861898
 H   -1.750416   -3.705534    2.982159
 H   -4.601375   -2.301269    0.747925
 H   -3.778580    1.882824    0.515969
 H   -5.531692    2.131360   -1.230152
 H   -6.345907   -2.047746   -0.986907
 H    4.548030    4.848820   -0.934637
 H   -7.971049    1.389946   -3.386194
 H    5.173094    2.536394   -1.376657
 H   -0.604181    2.100889    0.441581
 H   -1.142840    3.223856    1.712820
 H    0.123853    2.034698    2.072346
 H    2.500500    7.595048    0.250799
 H    4.004606    6.664007    0.456738
 H    3.226534    6.766643   -1.148431
