50 
4fz6_ligand_dft.xyz
 C   -2.766867   -2.041485   -0.109350
 N   -3.784389   -1.119372   -0.124729
 C   -1.423527   -1.563848   -0.058031
 N   -3.659325    0.225171   -0.109441
 C   -1.264876   -0.197820   -0.041483
 C   -2.413542    0.644929   -0.070445
 N    1.450417   -1.238537    0.024226
 C    2.784628   -1.115948    0.132418
 N    3.262132    0.158569    0.048636
 N   -3.219957   -3.284600   -0.128831
 N   -0.474711   -2.549376   -0.006620
 C    0.908660   -2.449519    0.097090
 C   -4.957143   -1.826101   -0.160974
 C   -4.577280   -3.148679   -0.161598
 C   -2.233844    2.120507   -0.025961
 C    4.656215    0.539408    0.261159
 C    2.366142    1.299258   -0.099529
 C    3.623219   -2.233616    0.320374
 C    1.650573   -3.622552    0.273279
 C    3.027120   -3.482457    0.386590
 C    3.315302    2.498819   -0.162397
 C    4.536766    2.026039    0.634315
 C   -1.113560    2.722223   -0.606435
 C   -3.183397    2.927885    0.606605
 C    5.520406    0.306463   -0.982017
 C   -0.937287    4.100186   -0.542737
 C   -3.005898    4.304804    0.671089
 C   -1.880534    4.895498    0.101207
 H   -0.278082    0.227621    0.030605
 H   -0.868986   -3.482483    0.008463
 H   -5.911343   -1.325981   -0.183150
 H   -5.226091   -4.013510   -0.184160
 H    5.067351   -0.034376    1.101032
 H    1.678939    1.365845    0.755090
 H    1.755125    1.194645   -1.001982
 H    4.696941   -2.128005    0.407610
 H    1.168020   -4.592112    0.328717
 H    3.645892   -4.363556    0.530328
 H    2.860803    3.403459    0.248930
 H    3.594107    2.707976   -1.200812
 H    4.343578    2.124114    1.708094
 H    5.447810    2.584341    0.401099
 H   -0.386469    2.112461   -1.133825
 H   -4.056329    2.462018    1.051398
 H    5.453192   -0.731581   -1.320983
 H    6.570721    0.531911   -0.767624
 H    5.190715    0.947211   -1.806801
 H   -0.064330    4.552646   -1.004296
 H   -3.746954    4.919318    1.173727
 H   -1.741430    5.971100    0.156836
