50 
4fz6_ligand_ani.xyz
 C   -2.462465   -2.235341    0.169033
 N   -3.486786   -1.371674    0.491952
 C   -1.250353   -1.658229   -0.302778
 N   -3.476895   -0.036470    0.372514
 C   -1.229683   -0.300741   -0.491214
 C   -2.384289    0.470543   -0.159036
 N    1.535842   -1.141282   -0.140523
 C    2.855975   -0.901692   -0.067970
 N    3.185070    0.323672    0.429369
 N   -2.790448   -3.501231    0.385391
 N   -0.241918   -2.561957   -0.578564
 C    1.122857   -2.331554   -0.556324
 C   -4.525295   -2.145235    0.953355
 C   -4.069180   -3.439842    0.872071
 C   -2.410105    1.948269   -0.378431
 C    4.545980    0.807548    0.640822
 C    2.157386    1.201841    0.972787
 C    3.819016   -1.846666   -0.471810
 C    1.999293   -3.349506   -0.963772
 C    3.356884   -3.076313   -0.922368
 C    2.926185    2.474280    1.328309
 C    4.333158    1.956890    1.642402
 C   -1.643689    2.542624   -1.383406
 C   -3.225249    2.746265    0.425217
 C    5.211989    1.265776   -0.655687
 C   -1.676902    3.919651   -1.571438
 C   -3.248673    4.124981    0.243351
 C   -2.475544    4.714159   -0.753331
 H   -0.334362    0.178779   -0.868942
 H   -0.561802   -3.524156   -0.578880
 H   -5.445854   -1.682728    1.272657
 H   -4.607367   -4.336050    1.145926
 H    5.157039    0.016479    1.097332
 H    1.689718    0.736442    1.852110
 H    1.361904    1.356861    0.234151
 H    4.879101   -1.625863   -0.420923
 H    1.615830   -4.304030   -1.311112
 H    4.069405   -3.835542   -1.237549
 H    2.476368    3.016436    2.164210
 H    2.950996    3.148584    0.464563
 H    4.369500    1.563140    2.664430
 H    5.106839    2.725873    1.553306
 H   -1.030572    1.924939   -2.036499
 H   -3.834675    2.273897    1.189192
 H    5.276830    0.452079   -1.385337
 H    6.228409    1.620859   -0.451026
 H    4.647802    2.085193   -1.116890
 H   -1.074667    4.371906   -2.355134
 H   -3.878841    4.741912    0.879548
 H   -2.499427    5.791346   -0.894784
