86 
4fzc_ligand_dft.xyz
 O    0.332682    1.096858   -1.812970
 C   -0.515718    1.167376   -0.926915
 C   -1.873834    0.595952   -1.111175
 C   -2.991645    1.152318   -0.622127
 C   -4.335215    0.649543   -0.869268
 C   -5.431914    1.255700   -0.398110
 C   -6.855962    0.828324   -0.601495
 C   -7.065531   -0.404353   -1.480394
 C   -8.540197   -0.722504   -1.746398
 C   -9.338803   -1.127797   -0.505466
 C  -10.786332   -1.490847   -0.845728
 C  -11.665448   -1.933139    0.337438
 C  -11.168365   -3.233032    0.977479
 C  -11.826248   -0.832981    1.390999
 N   -0.267293    1.767460    0.270422
 C    0.826637    2.712170    0.428625
 C    2.118350    1.971575    0.825324
 O    2.590360    2.060902    1.964141
 C    0.458140    3.751365    1.492161
 O   -0.892218    4.126719    1.233600
 C    1.392392    4.952927    1.451061
 N    2.671499    1.241376   -0.149501
 C    3.863356    0.454887    0.065575
 C    4.564190    0.286309   -1.284777
 O    3.958730    0.373211   -2.342898
 C    3.585329   -0.951622    0.670083
 C    3.992820   -1.106430    2.142895
 O    3.068237   -0.489274    3.006903
 C    4.061644   -2.580897    2.560875
 C    5.408976   -3.265502    2.315287
 N    5.806158   -3.379116    0.918254
 N    5.873567   -0.043112   -1.188177
 C    6.642556   -0.520392   -2.329392
 C    7.369907    0.627149   -3.028966
 C    7.609643   -1.623263   -1.881065
 C    6.940336   -2.792617   -1.155424
 C    6.657905   -2.511617    0.319634
 O    7.178401   -1.578189    0.925612
 H   -1.918338   -0.263161   -1.775206
 H   -2.922506    2.064292   -0.026705
 H   -4.416573   -0.255530   -1.468216
 H   -5.300885    2.160889    0.197069
 H   -7.409705    1.677048   -1.030847
 H   -7.304743    0.667602    0.388877
 H   -6.561388   -0.244426   -2.441813
 H   -6.582708   -1.274081   -1.014476
 H   -9.018287    0.148371   -2.217417
 H   -8.595737   -1.535057   -2.482632
 H   -9.330372   -0.309599    0.224973
 H   -8.839103   -1.979523   -0.024372
 H  -10.781734   -2.293302   -1.596808
 H  -11.259760   -0.624022   -1.328489
 H  -12.661720   -2.134063   -0.080765
 H  -11.045230   -4.023282    0.227968
 H  -10.203232   -3.089939    1.477226
 H  -11.877500   -3.591484    1.731827
 H  -10.881206   -0.635664    1.910209
 H  -12.560969   -1.125451    2.149070
 H  -12.164531    0.106008    0.937883
 H   -1.030944    1.869040    0.921703
 H    0.986560    3.207166   -0.537527
 H    0.534292    3.266817    2.474642
 H   -1.141806    4.774010    1.903246
 H    1.333558    5.447004    0.475745
 H    2.422599    4.643397    1.643522
 H    1.113071    5.679494    2.222626
 H    2.193360    1.152741   -1.048806
 H    4.512330    1.018421    0.745966
 H    4.108664   -1.705723    0.075034
 H    2.514112   -1.165106    0.585735
 H    4.998021   -0.668038    2.272714
 H    2.983023    0.448419    2.750044
 H    3.248775   -3.144434    2.082715
 H    3.873648   -2.613369    3.639247
 H    5.389779   -4.274299    2.741289
 H    6.205037   -2.709402    2.815987
 H    5.363605   -4.086365    0.350758
 H    6.306677   -0.118904   -0.274581
 H    5.912681   -0.944170   -3.029204
 H    8.087188    1.100960   -2.349588
 H    7.913174    0.264928   -3.908770
 H    6.646364    1.379373   -3.353837
 H    8.120711   -2.000330   -2.773203
 H    8.378185   -1.197999   -1.225444
 H    6.008710   -3.076824   -1.662314
 H    7.595995   -3.672128   -1.191546
