83 
4fzg_ligand_ani.xyz
 C    1.951577   -2.418483    0.195560
 O    1.686611   -3.613554    0.221950
 C    3.357752   -1.950340    0.074749
 C    3.797491   -0.699203    0.238479
 C    5.199109   -0.316669    0.086943
 C    5.629327    0.934453    0.278444
 C    7.036715    1.442084    0.148831
 C    8.067719    0.405656   -0.301544
 C    9.469820    0.994305   -0.425917
 C   10.507265   -0.027952   -0.890925
 C   11.904584    0.552930   -1.125841
 C   12.569049    1.124428    0.127146
 C   13.987636    1.623039   -0.137689
 N    0.980780   -1.460593    0.280655
 C   -0.404419   -1.838333    0.307294
 C   -1.212038   -0.747356   -0.389438
 O   -0.771217    0.387564   -0.518985
 C   -0.924712   -2.061946    1.755448
 O   -2.275279   -2.475811    1.721420
 C   -0.729146   -0.854956    2.663717
 N   -2.447048   -1.120520   -0.818419
 C   -3.446520   -0.103277   -1.052366
 C   -3.898653    0.524879    0.277694
 O   -3.712161   -0.010393    1.372860
 C   -4.623163   -0.639516   -1.887055
 C   -5.544836   -1.685448   -1.241734
 O   -4.693767   -2.648862   -0.611255
 C   -6.587564   -1.176248   -0.232223
 C   -7.851392   -0.548837   -0.842978
 N   -7.657101    0.652294   -1.642301
 N   -4.569330    1.690211    0.168939
 C   -5.215781    2.299259    1.327767
 C   -4.218660    3.143371    2.118104
 C   -6.440893    3.107545    0.897304
 C   -7.543530    2.277080    0.231050
 C   -7.183606    1.855152   -1.187356
 O   -6.528847    2.577358   -1.927801
 H    4.056158   -2.756318   -0.135355
 H    3.117092    0.112659    0.518998
 H    5.883368   -1.115887   -0.196773
 H    4.889390    1.685686    0.564582
 H    7.037276    2.287267   -0.552788
 H    7.341730    1.868423    1.114363
 H    8.083875   -0.428567    0.413202
 H    7.759789   -0.013909   -1.269378
 H    9.768189    1.417005    0.543896
 H    9.447913    1.836970   -1.133649
 H   10.155013   -0.491641   -1.822621
 H   10.569674   -0.837863   -0.148646
 H   12.551116   -0.231758   -1.542592
 H   11.846668    1.340847   -1.891784
 H   12.588650    0.351264    0.907648
 H   11.965387    1.948787    0.526608
 H   14.628998    0.813069   -0.504381
 H   14.445830    2.028918    0.770149
 H   13.989186    2.414954   -0.896118
 H    1.148647   -0.499097    0.011241
 H   -0.516738   -2.799553   -0.205586
 H   -0.350999   -2.910334    2.144896
 H   -2.822170   -1.669376    1.659738
 H   -1.326957   -0.004834    2.320040
 H    0.323824   -0.560312    2.704629
 H   -1.061040   -1.117340    3.673093
 H   -2.805046   -2.016484   -0.502785
 H   -2.963167    0.684328   -1.642747
 H   -4.175884   -1.097405   -2.776596
 H   -5.208613    0.212888   -2.243915
 H   -6.085951   -2.181479   -2.063304
 H   -5.236763   -3.376432   -0.283489
 H   -6.126638   -0.493759    0.485910
 H   -6.915963   -2.047754    0.351990
 H   -8.572878   -0.335725   -0.046846
 H   -8.336169   -1.281816   -1.497112
 H   -7.388192    0.506291   -2.607443
 H   -4.735637    2.103058   -0.741346
 H   -5.541823    1.469715    1.968840
 H   -4.685786    3.545626    3.024091
 H   -3.362347    2.529583    2.413794
 H   -3.855161    3.980759    1.510870
 H   -6.131798    3.907040    0.211964
 H   -6.858340    3.590303    1.789598
 H   -7.784710    1.402820    0.844462
 H   -8.461604    2.875512    0.162243
