19 
4g0c_ligand_xtb.xyz
 C   -0.963477    0.305722    0.004355
 C    1.325994    0.782486    0.005848
 C    3.432754   -0.349087   -0.000306
 C    4.916069   -0.118701   -0.012215
 N   -3.584024    1.002864   -0.034151
 N    0.587737    1.848005    0.004442
 N   -0.709164    1.568125    0.003324
 N    2.689068    0.811853    0.005000
 O   -2.806427   -1.053644   -1.223860
 O   -2.830593   -1.007761    1.246108
 O    2.890865   -1.427224    0.001388
 S   -2.628918   -0.343264    0.000283
 S    0.430142   -0.723644    0.007026
 H    5.209756    0.486552    0.842433
 H    5.428535   -1.075173    0.027979
 H    5.202230    0.402940   -0.923207
 H   -3.481175    1.532464   -0.883349
 H   -3.488277    1.570982    0.790687
 H    3.125211    1.723352    0.003025
