60 
4g0k_ligand_ani.xyz
 C   -5.478738   -0.617811    0.438831
 C   -4.997856   -2.459675   -1.243091
 C   -0.249040    2.517170    1.423850
 C    0.356946    4.041429   -0.456816
 C    1.445729   -3.473598   -0.315580
 O    4.174542   -3.814590   -0.277427
 C    3.812231   -2.650307   -0.226612
 C    4.816350   -1.541520   -0.150034
 C    4.396424   -0.214059   -0.082279
 C    2.949903    0.134972   -0.081360
 C    1.986059   -0.979767   -0.170950
 S    0.267035   -0.518328   -0.241455
 C   -0.010845   -0.035973    1.498381
 C   -0.953051    1.164229    1.643538
 N   -2.103178    1.077724    0.754169
 C   -3.056001    0.130278    0.946549
 C   -4.271746    0.234691    0.037583
 C   -5.396059   -2.128703    0.188790
 O   -4.391804   -3.667710   -1.298968
 O   -5.212404   -1.788668   -2.219450
 N   -4.489294   -2.864134    1.130582
 O   -2.911222   -0.747162    1.798206
 N    0.218719    2.656833    0.029785
 C   -0.872117    4.376516   -1.277347
 O   -1.742346    3.572316   -1.538694
 O   -0.885463    5.640930   -1.705288
 O   -1.150225    3.582545    1.641167
 C    2.371339   -2.298261   -0.243393
 O    2.614081    1.318960   -0.006530
 C    5.342959    0.813324   -0.012252
 C    6.688162    0.504261   -0.009966
 C    7.109677   -0.833500   -0.077699
 C    6.176768   -1.849121   -0.147354
 H   -5.709635   -0.458128    1.497410
 H   -6.336885   -0.252727   -0.130756
 H    0.608854    2.593311    2.103756
 H    1.246256    4.128428   -1.081797
 H    0.452247    4.739581    0.371285
 H    1.818851   -4.191143   -1.052672
 H    0.421431   -3.189646   -0.569628
 H    1.429910   -4.006530    0.643912
 H    0.957285    0.185073    1.956350
 H   -0.434179   -0.897096    2.015368
 H   -1.306453    1.153082    2.683570
 H   -2.366654    1.908215    0.232544
 H   -4.588746    1.286676    0.009691
 H   -3.958403   -0.013834   -0.984175
 H   -6.403457   -2.541404    0.295532
 H   -4.189321   -3.834739   -2.233898
 H   -5.023274   -3.285436    1.903468
 H   -3.785394   -2.189635    1.511324
 H   -4.011923   -3.604736    0.595447
 H    1.080664    2.125767   -0.129814
 H   -0.500306    2.219954   -0.584781
 H   -1.702504    5.751678   -2.220583
 H   -1.381320    3.615449    2.580579
 H    4.992547    1.836947    0.039729
 H    7.428263    1.298480    0.044867
 H    8.171671   -1.064809   -0.075065
 H    6.470352   -2.892887   -0.200992
