41 
4g11_ligand_ani.xyz
 O  -42.919024   17.427709  -34.838179
 C  -43.327188   16.815505  -33.865268
 N  -44.519146   16.161044  -33.779142
 C  -45.496868   16.031134  -34.780580
 C  -46.552451   15.146728  -34.542653
 C  -47.559842   14.980989  -35.485421
 C  -45.455473   16.754443  -35.971755
 C  -46.471600   16.581867  -36.906821
 C  -47.523777   15.701432  -36.674681
 C  -42.489899   16.798480  -32.581339
 C  -42.499134   15.533984  -31.765086
 N  -41.286426   15.019526  -31.438701
 C  -41.112813   13.850594  -30.657886
 O  -39.985160   13.454589  -30.419680
 C  -42.355568   13.276629  -30.237023
 N  -43.619348   14.996250  -31.371349
 C  -43.551386   13.863821  -30.602873
 N  -44.777409   13.350312  -30.235850
 C  -45.832926   14.300863  -29.898337
 C  -44.815669   12.115619  -29.468262
 C  -46.223639   11.534173  -29.483722
 O  -47.186044   12.479810  -29.069952
 C  -47.180022   13.599773  -29.930946
 H  -44.673664   15.627971  -32.928528
 H  -46.573702   14.584782  -33.611345
 H  -48.375303   14.288757  -35.290781
 H  -44.631919   17.432565  -36.154434
 H  -46.432043   17.148206  -37.834490
 H  -48.307858   15.578856  -37.416742
 H  -41.475487   17.066271  -32.878199
 H  -42.865228   17.608780  -31.947328
 H  -40.426106   15.455679  -31.755288
 H  -42.292455   12.404519  -29.601703
 H  -45.669533   14.726264  -28.893897
 H  -45.803499   15.120854  -30.619478
 H  -44.140966   11.386436  -29.925808
 H  -44.494942   12.283062  -28.427780
 H  -46.461406   11.172077  -30.496369
 H  -46.288385   10.688977  -28.791901
 H  -47.970162   14.272132  -29.582541
 H  -47.415529   13.287538  -30.960884
