38 
4g19_ligand_xtb.xyz
 N   -1.709956    0.986751   -0.283680
 C   -2.647472    0.065005   -0.954207
 C   -4.007233    0.070230   -0.238927
 O   -4.144085    1.154419    0.522459
 O   -4.834110   -0.778299   -0.374806
 C   -2.080527   -1.356691   -1.057365
 C   -1.844612   -2.054316    0.293477
 C   -0.665003   -1.426094    0.998844
 O   -0.781230   -0.408576    1.681397
 N    0.530266   -1.991165    0.788251
 C    1.718878   -1.200766    1.027059
 C    1.637779    0.041963    0.110095
 O    0.815119    0.112943   -0.787577
 C    2.967506   -2.024056    0.743017
 S    2.974228   -2.511427   -1.037110
 N    2.522698    1.008182    0.373134
 C    2.578392    2.222472   -0.410858
 C    1.433720    3.184596   -0.096664
 O    1.854607    4.433100   -0.078967
 O    0.291050    2.847813    0.080520
 H   -1.532880    0.651275    0.709944
 H   -2.044246    1.952138   -0.255695
 H   -0.761899    0.954867   -0.718392
 H   -2.835416    0.427362   -1.973086
 H   -5.010273    1.172970    0.961612
 H   -1.146114   -1.319252   -1.619570
 H   -2.802749   -1.947719   -1.621289
 H   -1.657031   -3.111676    0.113109
 H   -2.733364   -1.964590    0.918812
 H    0.620893   -2.742120    0.117287
 H    1.709560   -0.866417    2.071715
 H    2.963423   -2.929662    1.348513
 H    3.869624   -1.448449    0.946553
 H    3.953608   -3.402104   -0.928298
 H    3.110903    0.949865    1.189248
 H    3.529477    2.728720   -0.255358
 H    2.478334    1.953909   -1.470062
 H    1.140077    5.072069    0.083745
