30 
4g3g_ligand_ani.xyz
 C   16.460568    9.237495    8.353884
 C   15.356260    9.367616    7.535117
 C   15.394354   10.023852    6.313159
 C   16.599150   10.579923    5.900108
 C   15.819005   11.744149    3.848252
 C   14.638231   12.762642    1.973320
 C   12.399058   12.514989    3.138106
 C   10.206741   12.845008    2.235830
 C   11.801857   12.482281    4.397118
 O   18.895066   10.989787    6.216210
 C   17.742432   10.441282    6.710912
 C   17.670161    9.784099    7.926809
 F   14.184409    8.838383    7.932753
 N   16.783494   11.259579    4.685980
 N   14.541311   11.783988    4.075619
 C   13.865273   12.359869    3.015765
 S   16.304887   12.418245    2.304964
 C   11.572936   12.699781    2.030003
 N    9.625145   12.821658    3.436233
 C   10.426478   12.642588    4.489207
 H   16.373161    8.715998    9.300669
 H   14.502269   10.087115    5.701302
 H   14.341776   13.260965    1.061698
 H    9.543020   12.989863    1.385018
 H   12.412537   12.343465    5.283089
 H   19.609947   10.843710    6.846668
 H   18.559019    9.691460    8.548711
 H   17.749777   11.462008    4.469479
 H   11.970100   12.718484    1.019253
 H    9.939578   12.624719    5.462769
