20 
4g5y_ligand_dft.xyz
 C   -1.626363    0.899655    1.740546
 N   -1.765726    0.747703    0.294260
 C   -3.131529    0.946781   -0.192616
 S   -1.000136   -0.615360   -0.322348
 O   -1.172865   -1.766899    0.555555
 O   -1.377241   -0.697574   -1.724072
 C    0.690742   -0.118773   -0.206285
 C    1.253076    0.969792   -0.938121
 C    2.582938    1.102033   -0.686492
 S    3.152301   -0.091375    0.427156
 C    1.590058   -0.785827    0.572072
 H   -2.221141    0.164233    2.298152
 H   -0.576224    0.797746    2.025433
 H   -1.953972    1.908598    2.005124
 H   -3.151944    0.828860   -1.275634
 H   -3.845599    0.246994    0.264117
 H   -3.426391    1.968895    0.060397
 H    0.684251    1.603428   -1.606236
 H    3.267247    1.832168   -1.096020
 H    1.396533   -1.643260    1.201421
