52 
4g68_ligand_ani.xyz
 C   -6.191976   -0.523617    1.015599
 C   -5.619314   -1.219437   -0.206321
 C   -4.160863   -0.818645   -0.384115
 C   -4.048662    0.697642   -0.536744
 C   -5.281058    1.416997    0.017516
 O   -6.846572   -1.108780    1.842737
 O   -5.716444   -2.606202   -0.044753
 O   -3.636510   -1.415721   -1.550543
 O   -2.895319    1.235927    0.101651
 O   -5.895577    0.774812    1.145234
 C   -1.677604    0.805318   -0.408958
 C   -0.651855    1.919107   -0.255526
 C    0.737911    1.449875   -0.664833
 C    1.101128    0.144743    0.048878
 C   -0.037931   -0.854987   -0.134630
 O   -1.042651    3.014080   -1.044136
 O    1.609785    2.514337   -0.360115
 O    2.263166   -0.422496   -0.537486
 O   -1.258808   -0.316185    0.341999
 C    3.437214   -0.349343    0.211247
 C    4.479733   -1.222177   -0.478613
 C    5.799405   -1.140161    0.265526
 C    6.224549    0.311878    0.419991
 C    5.086737    1.116276    1.034171
 O    4.084718   -2.579502   -0.496245
 O    6.832699   -1.811753   -0.424597
 O    7.339016    0.427032    1.274708
 O    3.894643    0.988831    0.258481
 H   -6.177319   -0.895931   -1.103463
 H   -3.600655   -1.134370    0.505692
 H   -3.985915    0.906977   -1.614236
 H   -5.000748    2.408935    0.372987
 H   -6.034595    1.528218   -0.772259
 H   -6.308847   -2.734856    0.716603
 H   -3.755871   -2.370171   -1.442419
 H   -1.767289    0.529897   -1.475867
 H   -0.621669    2.176158    0.816629
 H    0.739025    1.249805   -1.754237
 H    1.255302    0.350599    1.117856
 H    0.149978   -1.767644    0.435363
 H   -0.115874   -1.121147   -1.201463
 H   -0.343380    3.673502   -0.936475
 H    2.518125    2.170148   -0.369240
 H    3.256477   -0.704354    1.241520
 H    4.624780   -0.832266   -1.499448
 H    5.662809   -1.573390    1.273508
 H    6.445288    0.711067   -0.583676
 H    4.909440    0.769846    2.062836
 H    5.340739    2.177482    1.070073
 H    3.216537   -2.604231   -0.920140
 H    6.528916   -2.719930   -0.562107
 H    8.023103   -0.150203    0.907355
