52 
4g68_ligand_xtb.xyz
 C   -5.842986   -0.471030    1.255271
 C   -5.617336   -1.250098   -0.031267
 C   -4.235227   -0.860256   -0.599343
 C   -4.087485    0.672491   -0.680945
 C   -5.296529    1.390102   -0.068399
 O   -6.122306   -1.037341    2.279307
 O   -5.684843   -2.624656    0.216832
 O   -4.066461   -1.390106   -1.889771
 O   -2.947520    1.156736    0.001475
 O   -5.686286    0.843643    1.179331
 C   -1.722047    0.803884   -0.536414
 C   -0.715018    1.904030   -0.177724
 C    0.724478    1.501226   -0.543247
 C    1.048021    0.096007   -0.011973
 C   -0.072628   -0.866149   -0.433515
 O   -1.079000    3.063189   -0.874867
 O    1.550311    2.505028   -0.012238
 O    2.254631   -0.422068   -0.569405
 O   -1.328501   -0.438815    0.012291
 C    3.413492   -0.297927    0.177655
 C    4.439629   -1.270846   -0.426127
 C    5.765727   -1.142538    0.327672
 C    6.222889    0.323169    0.317533
 C    5.091914    1.210860    0.844066
 O    4.001396   -2.600830   -0.323454
 O    6.776101   -1.918417   -0.264431
 O    7.345554    0.510758    1.132732
 O    3.898824    1.027020    0.112526
 H   -6.390487   -0.979394   -0.768811
 H   -3.465846   -1.253687    0.080424
 H   -4.017286    0.938823   -1.746779
 H   -5.022213    2.424142    0.144543
 H   -6.140954    1.363369   -0.765967
 H   -5.865812   -2.732036    1.167590
 H   -4.280284   -2.331326   -1.846074
 H   -1.784559    0.718807   -1.638866
 H   -0.769940    2.068248    0.908482
 H    0.815735    1.474375   -1.642658
 H    1.121616    0.132454    1.082824
 H    0.084974   -1.850786    0.010574
 H   -0.056205   -0.956428   -1.529560
 H   -0.393951    3.721415   -0.697446
 H    2.473284    2.204980   -0.060498
 H    3.232128   -0.566374    1.239610
 H    4.587808   -0.989268   -1.479822
 H    5.605425   -1.465803    1.369830
 H    6.450131    0.598057   -0.724818
 H    4.931853    0.986218    1.907192
 H    5.355980    2.262616    0.736622
 H    3.120043   -2.652820   -0.712341
 H    6.418735   -2.804003   -0.402562
 H    7.993249   -0.162238    0.886440
