101 
4g69_ligand_ani.xyz
 N   -1.532279   -0.220107   -0.541231
 C   -1.825449    0.459118   -1.822153
 C   -1.162123    1.837207   -1.870659
 O   -0.661387    2.264402   -2.904730
 C   -3.337166    0.586251   -2.070424
 C   -4.057134   -0.733534   -1.940629
 C   -4.875181   -1.002592   -0.838923
 C   -3.899419   -1.742124   -2.893336
 C   -5.520477   -2.223037   -0.688690
 C   -4.540104   -2.970225   -2.762337
 C   -5.353521   -3.212665   -1.656254
 O   -6.008825   -4.392722   -1.467960
 N   -1.189423    2.566506   -0.716216
 C   -0.295956    3.714282   -0.582393
 C    1.082863    3.125345   -0.228266
 O    1.402465    2.926687    0.944965
 C   -0.787578    4.704674    0.468432
 C   -2.248744    5.145174    0.300846
 C   -2.541438    5.664640   -1.107509
 C   -2.587787    6.203310    1.350838
 N    1.855152    2.797762   -1.294901
 C    2.922492    1.799537   -1.255103
 C    2.306121    0.387926   -1.262632
 O    1.226946    0.121094   -0.734659
 C    3.941435    2.021156   -0.110785
 C    5.111799    1.038168   -0.198205
 C    4.460265    3.459035   -0.138557
 N    3.006733   -0.556295   -1.950729
 C    2.615652   -1.943894   -1.840571
 C    2.673235   -2.389526   -0.366103
 O    3.569938   -2.014799    0.385178
 C    3.506904   -2.816618   -2.738526
 O    4.846630   -2.404456   -2.497224
 C    3.138680   -2.664788   -4.208892
 N    1.659295   -3.213340    0.003544
 C    1.184239   -3.511376    1.360352
 C    0.008298   -2.562689    1.673342
 O   -0.912082   -2.482191    0.863468
 C    2.282382   -3.610475    2.425265
 O    2.755716   -2.368831    2.910606
 N    0.041301   -1.873437    2.845328
 C   -0.950002   -0.845861    3.096791
 C   -0.571534    0.492723    2.463131
 O   -1.415766    1.233286    1.990844
 C   -1.282508   -0.674322    4.592919
 C   -0.051233   -0.400910    5.458361
 C   -2.042507   -1.897958    5.104006
 O    0.725286    0.758137    2.483246
 H   -2.057053    0.182080    0.250504
 H   -1.752123   -1.226946   -0.572219
 H   -0.516217   -0.157824   -0.355889
 H   -1.369680   -0.110661   -2.635960
 H   -3.475369    1.015339   -3.068617
 H   -3.749937    1.307374   -1.355705
 H   -5.008904   -0.234385   -0.078344
 H   -3.260780   -1.567954   -3.758350
 H   -6.156219   -2.427382    0.167819
 H   -4.405395   -3.741142   -3.520050
 H   -5.811669   -4.983841   -2.205466
 H   -1.424391    2.094765    0.152221
 H   -0.237038    4.187549   -1.566952
 H   -0.135342    5.587582    0.431355
 H   -0.650986    4.263720    1.464550
 H   -2.888022    4.269042    0.481284
 H   -2.385569    4.892161   -1.869101
 H   -1.894528    6.517962   -1.350819
 H   -3.580939    6.002183   -1.185216
 H   -2.399609    5.832766    2.365148
 H   -1.975706    7.102127    1.202443
 H   -3.640407    6.501324    1.288937
 H    1.347341    2.806448   -2.174339
 H    3.465359    1.918933   -2.201275
 H    3.421480    1.856445    0.837898
 H    5.617471    1.109449   -1.171055
 H    4.796763    0.001402   -0.036693
 H    5.855092    1.280251    0.569852
 H    4.938897    3.684720   -1.100790
 H    5.210126    3.603992    0.647257
 H    3.659973    4.184795    0.023966
 H    4.003057   -0.417874   -2.063508
 H    1.579421   -2.020955   -2.185966
 H    3.377225   -3.868510   -2.438967
 H    5.421334   -2.889592   -3.102949
 H    2.102410   -2.974823   -4.379520
 H    3.249256   -1.623839   -4.528054
 H    3.782170   -3.293536   -4.835008
 H    0.915698   -3.302672   -0.675754
 H    0.726580   -4.504930    1.280010
 H    1.884513   -4.164495    3.282596
 H    3.108754   -4.192111    2.001366
 H    3.254750   -1.993935    2.158871
 H    0.955877   -1.774013    3.283460
 H   -1.862912   -1.156342    2.583100
 H   -1.946238    0.200921    4.652575
 H    0.547894    0.427081    5.067318
 H    0.593204   -1.286325    5.527148
 H   -0.360760   -0.147048    6.478055
 H   -2.300766   -1.777027    6.161262
 H   -2.973045   -2.054903    4.546751
 H   -1.429284   -2.800352    5.002044
 H    0.890390    1.614832    2.018333
