101 
4g69_ligand_dft.xyz
 N   -1.320879   -0.229930   -1.327821
 C   -1.953537    0.892032   -2.087826
 C   -1.174792    2.185706   -1.795232
 O   -0.520914    2.727480   -2.674315
 C   -3.452664    0.958297   -1.748557
 C   -4.107696   -0.401033   -1.810183
 C   -4.281238   -1.150343   -0.639697
 C   -4.491428   -0.971982   -3.024091
 C   -4.820337   -2.427243   -0.675820
 C   -5.036769   -2.250183   -3.075645
 C   -5.203642   -2.983352   -1.898544
 O   -5.724407   -4.231150   -1.872688
 N   -1.284127    2.652537   -0.529982
 C   -0.427193    3.733037   -0.053908
 C    0.907397    3.064704    0.295464
 O    1.074983    2.524615    1.390602
 C   -1.051663    4.430080    1.149363
 C   -2.450706    5.008219    0.893656
 C   -2.470127    5.981336   -0.287960
 C   -2.967153    5.679437    2.168275
 N    1.830020    3.080699   -0.687767
 C    2.973325    2.180490   -0.746218
 C    2.458161    0.784684   -1.135612
 O    1.280598    0.463196   -0.971469
 C    3.860350    2.197353    0.532519
 C    5.158095    1.401833    0.345472
 C    4.179969    3.646504    0.910610
 N    3.347805   -0.049985   -1.707252
 C    3.043742   -1.451292   -1.845490
 C    2.758224   -2.067210   -0.461109
 O    3.093979   -1.511102    0.574150
 C    4.212155   -2.154346   -2.557041
 O    5.360844   -1.779360   -1.820490
 C    4.315990   -1.762189   -4.026694
 N    2.107418   -3.258949   -0.497456
 C    1.371766   -3.762431    0.661485
 C    0.163985   -2.831476    0.895602
 O   -0.488342   -2.441586   -0.074235
 C    2.249635   -4.088347    1.888727
 O    2.472019   -3.016945    2.772865
 N   -0.140126   -2.524438    2.167894
 C   -1.241303   -1.625353    2.441457
 C   -0.904336   -0.203438    2.006685
 O   -1.721696    0.483317    1.389638
 C   -1.700264   -1.696692    3.916215
 C   -0.588819   -1.390462    4.925519
 C   -2.333081   -3.064085    4.188960
 O    0.294931    0.189315    2.328991
 H   -1.555577   -0.179831   -0.322654
 H   -1.656404   -1.145489   -1.635011
 H   -0.284313   -0.210977   -1.369969
 H   -1.801647    0.678913   -3.147068
 H   -3.914483    1.660763   -2.449624
 H   -3.580334    1.383424   -0.747587
 H   -3.992000   -0.720001    0.317232
 H   -4.377416   -0.409629   -3.948060
 H   -4.966417   -3.003542    0.231415
 H   -5.340950   -2.672565   -4.030194
 H   -6.003603   -4.493126   -2.758678
 H   -1.642640    2.041739    0.201344
 H   -0.295837    4.432753   -0.881778
 H   -0.372749    5.235328    1.458939
 H   -1.085515    3.719795    1.983856
 H   -3.124868    4.173857    0.654717
 H   -2.245502    5.482845   -1.237450
 H   -1.737896    6.785748   -0.143717
 H   -3.456121    6.445584   -0.389967
 H   -2.972191    4.981881    3.012955
 H   -2.337082    6.534356    2.442115
 H   -3.987881    6.049432    2.029145
 H    1.484124    3.403870   -1.584203
 H    3.599159    2.543286   -1.571477
 H    3.291503    1.739291    1.343345
 H    5.703664    1.718133   -0.554974
 H    4.987702    0.322659    0.310530
 H    5.820106    1.588813    1.195769
 H    4.704212    4.160666    0.095464
 H    4.831244    3.663105    1.789363
 H    3.280130    4.215320    1.153807
 H    4.335142    0.166712   -1.649087
 H    2.141614   -1.561123   -2.457685
 H    4.044559   -3.238709   -2.479039
 H    6.143232   -2.157559   -2.239548
 H    3.421596   -2.068589   -4.578309
 H    4.441306   -0.681237   -4.136762
 H    5.175670   -2.256951   -4.490735
 H    1.695168   -3.508508   -1.385319
 H    0.940425   -4.714312    0.332771
 H    1.739916   -4.858724    2.473769
 H    3.191169   -4.515532    1.520522
 H    2.868799   -2.300161    2.241609
 H    0.627602   -2.605560    2.836473
 H   -2.079051   -1.926580    1.807073
 H   -2.480022   -0.930550    4.017798
 H   -0.121144   -0.418427    4.750451
 H    0.198615   -2.153013    4.907940
 H   -1.007353   -1.387709    5.936151
 H   -2.730977   -3.101818    5.207149
 H   -3.155708   -3.272400    3.496562
 H   -1.592542   -3.864750    4.088421
 H    0.498550    1.103813    1.982235
