24 
4g8m_ligand_dft.xyz
 C   -2.232747   -0.513212   -0.267027
 O   -3.364770   -0.474948   -0.938553
 O   -1.875661   -1.512783    0.349964
 C   -1.473346    0.784022   -0.303616
 C    2.388367   -0.177838   -0.462281
 O    2.817065    0.544969   -1.314063
 O    3.124868   -0.858122    0.429853
 C    0.895648   -0.463373   -0.279888
 N    0.641350   -1.119751    1.046254
 C    0.083274    0.814787   -0.477819
 C    0.152424    1.856971    0.670852
 C   -1.302562    1.513827    1.062098
 H   -3.826094   -1.326617   -0.836704
 H   -1.933598    1.439622   -1.043780
 H    4.066311   -0.681548    0.255594
 H    0.610564   -1.209606   -1.029457
 H   -0.376699   -1.406690    1.037249
 H    1.246411   -1.935265    1.176374
 H    0.821785   -0.483650    1.827033
 H    0.394384    1.193933   -1.452876
 H    0.924765    1.726308    1.438131
 H    0.258488    2.870125    0.280142
 H   -1.983098    2.345885    1.244584
 H   -1.371039    0.821730    1.908418
