24 
4g8m_ligand_ani.xyz
 C   -2.160720   -0.582262   -0.225028
 O   -3.129823   -0.774093   -1.128086
 O   -1.870289   -1.443609    0.584652
 C   -1.510169    0.764806   -0.334384
 C    2.320527   -0.207093   -0.465552
 O    2.800264    0.496303   -1.316027
 O    3.062745   -0.986833    0.354741
 C    0.842764   -0.408828   -0.172084
 N    0.710663   -0.884826    1.240262
 C    0.044057    0.843258   -0.519002
 C    0.051290    1.980209    0.533464
 C   -1.372998    1.581072    0.974208
 H   -3.478626   -1.668702   -0.972731
 H   -2.005450    1.333854   -1.122814
 H    3.989125   -0.843747    0.099773
 H    0.521296   -1.223051   -0.830748
 H   -0.234689   -1.300536    1.324674
 H    1.443201   -1.594548    1.422616
 H    0.822937   -0.091586    1.895538
 H    0.352770    1.144922   -1.522807
 H    0.849260    1.985528    1.284244
 H    0.058756    2.959253    0.047365
 H   -2.094246    2.389170    1.119350
 H   -1.390658    0.942101    1.861730
