24 
4g8n_ligand_xtb.xyz
 C   -2.222504   -0.497147   -0.261406
 O   -3.363720   -0.435243   -0.884542
 O   -1.870441   -1.483172    0.375499
 C   -1.440579    0.780813   -0.351578
 C    2.398082   -0.183505   -0.458944
 O    3.091020   -0.721349    0.544352
 O    2.855429    0.452891   -1.353472
 C    0.894931   -0.494223   -0.318022
 N    0.602885   -1.177876    0.962297
 C    0.108914    0.809052   -0.471068
 C    0.168830    1.775022    0.728473
 C   -1.324275    1.541049    0.996563
 H   -3.910455   -1.235329   -0.782197
 H   -1.904334    1.394848   -1.122899
 H    4.042868   -0.546297    0.452986
 H    0.629907   -1.172603   -1.137746
 H   -0.460381   -1.424801    0.913660
 H    0.794172   -0.555264    1.753060
 H    1.175961   -2.019246    1.071782
 H    0.440981    1.253422   -1.410761
 H    0.388018    2.794545    0.424095
 H    0.851295    1.520027    1.537271
 H   -1.527951    0.911600    1.861112
 H   -1.938956    2.432848    1.064750
