40 
4g8v_ligand_ani.xyz
 C   -5.058230    1.013388    0.605740
 C   -4.706900    0.060829    1.478565
 C   -3.651989   -0.925650    1.108451
 C   -2.329812   -1.861972   -0.759568
 C   -0.933875   -1.391334   -0.474284
 C   -0.181443   -0.433127   -1.104935
 N   -3.357470   -0.919294   -0.322754
 N   -4.515062    1.072008   -0.658505
 O   -3.115308    0.264285   -2.269128
 C   -3.610800    0.145480   -1.162109
 O   -5.935383    2.017067    0.817863
 N   -0.210567   -1.886646    0.569049
 N    0.934499   -1.286994    0.604021
 N    0.969906   -0.387410   -0.388492
 C    2.166339    0.399182   -0.641134
 O    3.260734   -0.412966   -1.008729
 C    4.163982   -0.610103    0.081400
 C    5.556303   -0.234359   -0.389201
 O    5.536949    1.145974   -0.733294
 C    3.633881    0.230086    1.267132
 O    3.066579   -0.560291    2.275801
 C    2.631543    1.194044    0.588463
 O    3.214722    2.413051    0.201931
 H   -5.109114    0.027293    2.481649
 H   -2.724829   -0.735165    1.677994
 H   -3.966954   -1.942239    1.392192
 H   -2.482435   -2.809970   -0.234224
 H   -2.472118   -2.031960   -1.831886
 H   -0.364363    0.198343   -1.965569
 H   -4.753796    1.837038   -1.271291
 H   -6.283335    1.938985    1.717831
 H    1.918022    1.052176   -1.480322
 H    4.143795   -1.674572    0.355681
 H    6.281693   -0.430760    0.413872
 H    5.812089   -0.854972   -1.256398
 H    6.382960    1.392443   -1.124725
 H    4.440348    0.808047    1.737617
 H    2.281942   -1.001941    1.899582
 H    1.803915    1.428076    1.264277
 H    4.042688    2.201774   -0.266189
