40 
4g90_ligand_xtb.xyz
 C    4.812548    0.146575    1.044059
 C    4.526412    1.060291    0.116019
 C    3.446805    0.873502   -0.900049
 C    2.035183   -0.845346   -1.940395
 C    0.680657   -0.493569   -1.425782
 C   -0.184670   -1.256916   -0.667871
 N    3.052258   -0.522270   -0.948831
 N    4.081265   -1.025190    1.073713
 O    2.664961   -2.492249    0.107033
 C    3.210297   -1.409420    0.072087
 O    5.768082    0.234290    1.997578
 F    5.236103    2.227194    0.055988
 N    0.131529    0.731984   -1.561794
 N   -0.992975    0.757956   -0.954806
 N   -1.216112   -0.430872   -0.395151
 C   -2.437352   -0.722074    0.326681
 O   -3.490394   -0.928590   -0.566870
 C   -4.328331    0.223248   -0.657519
 C   -5.770230   -0.198775   -0.363760
 O   -5.885916   -0.530769    1.006861
 C   -3.787925    1.278978    0.338852
 O   -3.176974    2.359756   -0.285724
 C   -2.850650    0.450977    1.248386
 O   -3.469903   -0.011150    2.405377
 H    2.573785    1.512397   -0.680146
 H    3.822814    1.165824   -1.889875
 H    2.251047   -0.284284   -2.850527
 H    2.086675   -1.918664   -2.131589
 H   -0.121543   -2.265516   -0.322569
 H    4.307944   -1.706658    1.782101
 H    6.217673    1.086220    1.923169
 H   -2.269915   -1.644116    0.894947
 H   -4.278960    0.619110   -1.679426
 H   -6.007965   -1.066488   -0.989712
 H   -6.442270    0.630334   -0.618437
 H   -6.767288   -0.879833    1.173741
 H   -4.602691    1.696790    0.936405
 H   -2.355656    2.058281   -0.722723
 H   -1.982691    1.037165    1.560442
 H   -4.342957   -0.361695    2.160091
