32 
4ggz_ligand_xtb.xyz
 C    2.733332    0.667232   -0.037972
 O    2.411286    1.497145   -1.005047
 O    2.460204    0.850179    1.129248
 C    3.387551   -0.603483   -0.539599
 C    2.575445   -1.784263    0.009356
 C    1.083327   -1.662662   -0.347196
 C    0.168248   -1.980922    0.839917
 C   -1.250719   -1.427466    0.698585
 S   -1.859160   -1.423629   -1.027953
 C   -3.204163   -0.306399   -0.544908
 C   -2.615402    0.690413    0.457697
 N   -1.987659    1.823347   -0.169775
 C   -0.646444    1.890780    0.057899
 O    0.122259    2.712574   -0.410460
 N   -0.333282    0.893923    0.915960
 C   -1.433064    0.021162    1.212660
 H    1.748457    2.187471   -0.716703
 H    3.390727   -0.591661   -1.628674
 H    4.414369   -0.657707   -0.175652
 H    2.690320   -1.787402    1.094754
 H    2.988602   -2.718325   -0.371630
 H    0.832330   -2.328279   -1.174487
 H    0.872503   -0.650498   -0.690191
 H    0.114956   -3.063820    0.966986
 H    0.595630   -1.562526    1.754647
 H   -1.947228   -2.062070    1.257289
 H   -3.584111    0.185272   -1.437415
 H   -4.001079   -0.894097   -0.086657
 H   -3.406716    1.026156    1.141730
 H   -2.444614    2.389961   -0.860323
 H    0.596438    0.797515    1.305694
 H   -1.606093   -0.018350    2.296025
