53 
4gh6_ligand_ani.xyz
 C    0.390506    3.726239   -0.729550
 C    0.214425    3.114034    0.638669
 C    1.166051    3.367907    1.628803
 C    1.132241    2.740086    2.869621
 C    0.138669    1.806932    3.140325
 C   -0.817251    1.525173    2.175743
 C   -0.816562    2.209909    0.958633
 N   -1.862979    1.944964    0.037044
 C   -2.387519    0.720413   -0.255897
 N   -1.996616   -0.446595    0.290523
 N   -2.485403    2.927570   -0.680524
 C   -3.379091    2.311350   -1.429191
 C   -3.369345    0.915677   -1.226367
 C   -4.053261   -0.245874   -1.769155
 O   -4.941713   -0.285078   -2.590850
 N   -3.537432   -1.442411   -1.202982
 C   -2.564864   -1.511908   -0.223115
 N   -2.233198   -2.750459    0.224028
 C   -1.216868   -2.932048    1.260087
 C   -1.415859   -4.269738    1.952070
 C    0.216567   -2.831612    0.690332
 O    0.876738   -3.830458    0.453945
 N    0.643213   -1.548369    0.495479
 C    1.875465   -1.103357   -0.008561
 C    2.944386   -1.949931   -0.276586
 C    4.140179   -1.433588   -0.768897
 C    4.286142   -0.067791   -0.994353
 O    5.416790    0.518528   -1.470680
 C    6.498082   -0.328661   -1.792703
 C    3.212261    0.781878   -0.721159
 C    2.022028    0.269946   -0.239694
 H    1.359213    4.234191   -0.786881
 H    0.354005    2.956184   -1.509021
 H   -0.403452    4.443065   -0.958354
 H    1.968644    4.068047    1.401654
 H    1.889825    2.969514    3.614216
 H    0.111332    1.292855    4.097836
 H   -1.577674    0.766214    2.344412
 H   -4.012209    2.877879   -2.095398
 H   -4.011791   -2.282618   -1.514923
 H   -2.373383   -3.528837   -0.405149
 H   -1.355387   -2.111355    1.970662
 H   -0.700716   -4.385172    2.771479
 H   -1.250529   -5.089798    1.247792
 H   -2.430403   -4.334691    2.356142
 H   -0.071000   -0.829160    0.581137
 H    2.841586   -3.015153   -0.108461
 H    4.952638   -2.123561   -0.974323
 H    6.859247   -0.871690   -0.909376
 H    6.221520   -1.053103   -2.570112
 H    7.289797    0.321277   -2.167619
 H    3.341920    1.846366   -0.901810
 H    1.190902    0.942484   -0.042542
