27 
4ghi_ligand_dft.xyz
Cl    4.020813   -2.277755   -1.239795
 C    3.433788   -0.833807   -0.461955
 C    2.082812   -0.520961   -0.553585
 C    4.332429   -0.018323    0.215210
 C    3.831138    1.130107    0.809737
 F    4.675546    1.930809    1.464319
 C    2.488813    1.470688    0.768110
 C    1.612895    0.630300    0.082601
 N    0.256580    1.014174   -0.009065
 C   -0.838295    0.238351    0.175679
 C   -2.126596    0.667159   -0.177649
 N   -2.383326    1.944042   -0.771861
 O   -1.448978    2.755998   -0.886773
 O   -3.517569    2.186536   -1.139636
 C   -0.664741   -1.062990    0.810338
 C   -1.688082   -1.911603    1.045829
 C   -2.996157   -1.497439    0.652650
 C   -3.229052   -0.223531    0.056536
 N   -4.138087   -2.132297    0.771002
 O   -5.051306   -1.288393    0.266554
 N   -4.520886   -0.113845   -0.177702
 H    1.411256   -1.149826   -1.126482
 H    5.386918   -0.256199    0.278666
 H    2.135609    2.365229    1.267851
 H    0.041777    1.956948   -0.330675
 H    0.336323   -1.330036    1.124857
 H   -1.536475   -2.866908    1.534643
