27 
4ghi_ligand_ani.xyz
Cl   17.384463  -39.952717    9.374272
 C   16.563513  -41.255568   10.176495
 C   15.174490  -41.239145   10.223382
 C   17.314371  -42.276671   10.741001
 C   16.617669  -43.288725   11.383909
 F   17.314543  -44.285684   11.951016
 C   15.237768  -43.309903   11.473384
 C   14.506562  -42.285320   10.867088
 N   13.119688  -42.330479   10.999515
 C   12.149251  -41.848088   10.141848
 C   10.862931  -41.552321   10.609461
 N   10.437742  -41.820769   11.971080
 O   11.052295  -42.656171   12.643670
 O    9.472127  -41.214203   12.385435
 C   12.454235  -41.682077    8.747916
 C   11.584553  -41.164933    7.839389
 C   10.300047  -40.768213    8.320211
 C    9.936762  -40.952233    9.686670
 N    9.284709  -40.224056    7.684838
 O    8.332886  -40.077107    8.627865
 N    8.707385  -40.513768    9.844623
 H   14.628327  -40.414661    9.777861
 H   18.397195  -42.289675   10.695389
 H   14.738376  -44.119517   11.997816
 H   12.751613  -42.753040   11.843690
 H   13.431818  -42.007164    8.407836
 H   11.847681  -41.044794    6.796337
