84 
4ght_ligand_xtb.xyz
 C    1.862977    0.934686    1.382198
 C    2.765851   -0.256449    1.524128
 O    0.957788    1.191597    2.136260
 C    2.222846   -1.379179    0.615626
 C    3.290381   -2.462926    0.393634
 C    4.500462   -1.894375   -0.287232
 C    5.692895   -1.714929    0.403767
 C    6.794190   -1.144124   -0.210081
 C    6.686272   -0.748314   -1.529607
 C    5.515066   -0.914229   -2.246585
 C    4.427313   -1.489351   -1.616487
 N   -0.153616   -1.840386    0.663942
 C   -1.400911   -2.320323    1.229696
 C   -2.513868   -1.295243    1.026756
 C   -2.192525    0.061256    1.643076
 C   -3.310457    1.071518    1.407166
 N   -3.381127    1.846971    2.500743
 O   -4.014923    1.169904    0.422815
 C   -1.757432   -3.704376    0.663086
 C   -2.219917   -3.680193   -0.794968
 C   -3.692364   -3.337918   -0.889715
 O   -3.941522   -2.565935   -1.948900
 O   -4.531589   -3.731574   -0.122335
 C    1.010118   -1.999734    1.314184
 O    1.117113   -2.589286    2.372262
 C   -5.288545   -2.131969   -2.162586
 C   -5.335541   -0.615031   -2.244487
 C    2.138480    1.792958    0.141525
 N    0.897401    2.322043   -0.369335
 C   -0.011695    1.525469   -0.959794
 O    0.202904    0.362208   -1.275242
 C    3.143910    2.913094    0.477007
 C    2.555602    3.943519    1.439736
 F    7.752460   -0.181710   -2.135976
 C    3.624946    3.581762   -0.808593
 C   -2.416297    1.521836    3.527361
 C   -2.008690    0.091662    3.161343
 C   -1.298090    2.207278   -1.204831
 C   -2.397087    1.774261   -1.978368
 C   -3.323543    2.768435   -1.809234
 O   -2.807833    3.712932   -1.011385
 N   -1.562529    3.366404   -0.637287
 C   -4.710996    2.941140   -2.291478
 H    3.780473    0.002726    1.217695
 H    2.763288   -0.614257    2.555397
 H    1.918414   -0.967089   -0.348530
 H    3.554884   -2.894291    1.359656
 H    2.852471   -3.250581   -0.223870
 H    5.763310   -2.028477    1.434794
 H    7.723844   -1.004283    0.318557
 H    5.467817   -0.598529   -3.276919
 H    3.508014   -1.627065   -2.166232
 H   -0.189673   -1.282872   -0.180172
 H   -1.206725   -2.449572    2.301279
 H   -3.434757   -1.686908    1.462753
 H   -2.686092   -1.137536   -0.039562
 H   -1.293538    0.472361    1.170169
 H   -3.980516    2.653884    2.556208
 H   -2.557385   -4.138393    1.265190
 H   -0.874939   -4.337822    0.762061
 H   -2.106943   -4.679137   -1.223615
 H   -1.640923   -2.983204   -1.399143
 H   -5.905769   -2.501538   -1.337799
 H   -5.627379   -2.586082   -3.099638
 H   -4.942565   -0.168401   -1.333521
 H   -4.744366   -0.269224   -3.088435
 H   -6.364795   -0.295238   -2.380963
 H    2.571120    1.153057   -0.636085
 H    0.556489    3.201022   -0.007282
 H    4.000253    2.432499    0.963116
 H    1.846801    4.595139    0.933257
 H    2.051467    3.456766    2.270923
 H    3.350610    4.567489    1.840496
 H    4.319961    4.384052   -0.574565
 H    2.784239    4.001197   -1.355990
 H    4.132312    2.864853   -1.449957
 H   -1.552437    2.195165    3.474122
 H   -2.866349    1.597641    4.519295
 H   -0.985855   -0.125954    3.456495
 H   -2.681795   -0.627067    3.631095
 H   -2.474736    0.871410   -2.543104
 H   -5.383417    2.443265   -1.594146
 H   -4.961992    3.998095   -2.327923
 H   -4.831461    2.493032   -3.273004
