36 
4gih_ligand_dft.xyz
 C   -3.052351   -0.156266   -0.000623
 C   -3.573092   -0.639541    1.201042
 C   -4.561124   -1.616451    1.227583
 C    0.447529    1.243880   -0.016157
 C   -2.030163    0.962357   -0.017050
 C    0.486510    2.640773   -0.038558
 C    1.739892    3.236566   -0.047628
 C   -3.554316   -0.692123   -1.187875
 C   -5.042772   -2.124636    0.027050
 C   -4.542313   -1.669464   -1.186942
Cl   -2.965195   -0.015289    2.712589
 O   -2.366383    2.126670   -0.038691
 N   -0.739935    0.501673   -0.004640
 N    2.898554    2.578690   -0.036669
 C    2.833187    1.244625   -0.015306
 C    1.642514    0.523990   -0.004078
 N    4.096794    0.640981   -0.005528
 C    4.416546   -0.693038    0.015034
 O    3.586030   -1.590135    0.029208
 C    5.883947   -0.970687    0.018829
 C    6.343052   -2.194968    0.782411
 C    6.342504   -2.217892   -0.707082
Cl   -2.922836   -0.134781   -2.715897
 H   -4.944117   -1.969276    2.178166
 H   -0.419106    3.228287   -0.048447
 H    1.816162    4.321183   -0.064958
 H   -5.815803   -2.885924    0.037746
 H   -4.910728   -2.063590   -2.127006
 H   -0.626301   -0.502362    0.012455
 H    1.669113   -0.557866    0.013205
 H    4.844263    1.321350   -0.016457
 H    6.551203   -0.113529    0.005389
 H    5.565038   -2.754752    1.290819
 H    7.290618   -2.122337    1.305969
 H    7.289679   -2.161396   -1.233338
 H    5.564125   -2.793031   -1.197486
