36 
4gj2_ligand_xtb.xyz
 C    5.492326   -1.834893    0.406192
 C    5.082222   -0.999440    1.430817
 C    4.034235   -0.119497    1.209584
 C    3.389887   -0.068828   -0.021738
 C    3.816483   -0.923029   -1.032887
 C    4.864861   -1.805813   -0.827533
Cl    3.010801   -0.868970   -2.559767
 C    2.289550    0.935578   -0.274406
 O    2.516399    2.078925   -0.580516
 N    1.057878    0.376358   -0.109758
 C   -0.190792    0.976531   -0.254888
 C   -0.365540    2.302757   -0.647465
 C   -1.661675    2.774363   -0.756787
 N   -2.737383    2.048572   -0.511026
 C   -2.564804    0.783879   -0.136545
 C   -1.314328    0.197104    0.007300
 N   -3.763190    0.120570    0.104720
 C   -3.951356   -1.155863    0.533793
 O   -3.056167   -1.943016    0.759713
 C   -5.379828   -1.558024    0.753414
 C   -6.414715   -0.602846    1.308028
 C   -6.531759   -1.085594   -0.092790
 F   -6.297268   -0.201698   -1.101963
Cl    3.493238    0.924064    2.472097
 H    6.310323   -2.518554    0.571432
 H    5.566314   -1.023537    2.393519
 H    5.181236   -2.457263   -1.625798
 H    1.027085   -0.600098    0.155511
 H    0.478693    2.934876   -0.857592
 H   -1.853655    3.794930   -1.058097
 H   -1.228227   -0.832180    0.312719
 H   -4.560286    0.698630   -0.128931
 H   -5.432304   -2.587942    1.085955
 H   -7.112321   -0.973881    2.042224
 H   -6.118605    0.423731    1.463450
 H   -7.303122   -1.784123   -0.391965
