37 
4gj3_ligand_xtb.xyz
 C   -1.012968    2.497491   -0.089625
 C   -2.346528    2.867374   -0.100359
 N   -3.351387    2.014828   -0.021422
 C   -3.067121    0.718856    0.072825
 C   -1.768196    0.225904    0.097335
 C   -0.720868    1.138598    0.011494
 N    0.578970    0.631567    0.026167
 C    1.751339    1.317512   -0.046242
 O    1.879673    2.513214   -0.118833
 C    2.942645    0.383527   -0.028543
 C    3.456412   -0.121854   -1.220232
 C    4.582482   -0.927127   -1.227150
 C    5.202846   -1.227735   -0.015355
 C    4.705601   -0.734182    1.189920
 C    3.578592    0.069841    1.169796
Cl    2.931177    0.690736    2.641766
 C    6.355146   -2.053035   -0.007995
 N    7.284035   -2.722277   -0.001521
Cl    2.658899    0.265055   -2.699413
 N   -4.200978   -0.081167    0.150061
 C   -4.275604   -1.437787    0.223971
 O   -3.313072   -2.175783    0.251844
 C   -5.662398   -2.003291    0.300386
 C   -6.765452   -1.332646    1.091140
 C   -6.860818   -1.407970   -0.390020
 F   -6.715438   -0.258799   -1.106406
 H   -0.229634    3.230948   -0.158338
 H   -2.629528    3.907940   -0.178042
 H   -1.590603   -0.833697    0.174800
 H    0.634770   -0.377370    0.088712
 H    4.973509   -1.315276   -2.154182
 H    5.191156   -0.974496    2.122387
 H   -5.046630    0.466841    0.054862
 H   -5.625468   -3.085908    0.327613
 H   -6.551415   -0.371399    1.533803
 H   -7.420769   -1.952214    1.682775
 H   -7.575703   -2.055581   -0.881899
