66 
4gja_ligand_ani.xyz
 C    6.795317   -2.988363    0.284091
 C    5.521716   -2.266691   -0.082860
 C    4.324345   -2.534169    0.586129
 C    3.144745   -1.881304    0.245320
 C    3.161292   -0.938680   -0.778230
 C    4.336865   -0.659831   -1.466342
 C    5.506837   -1.321651   -1.112787
 S    1.679707   -0.089743   -1.233337
 O    0.706326   -1.033797   -1.751801
 O    2.064817    1.071431   -2.033079
 N    1.062983    0.480119    0.193179
 C    1.795596    1.308841    1.159946
 C    2.828335    2.228876    0.499775
 N    2.153164    3.180219   -0.427899
 C    1.258775    4.100983    0.334397
 C    0.173549    3.293449    1.052483
 C    0.809215    2.192811    1.934642
 C   -0.773872    2.703852   -0.002991
 O   -0.479050    2.673266   -1.191964
 N   -1.938550    2.195347    0.468711
 C   -2.831548    1.402565   -0.352822
 C   -3.518748    0.320897    0.499518
 C   -4.628753   -0.422079   -0.234136
 C   -5.494972   -1.206890    0.530022
 C   -6.529666   -1.922088   -0.062413
 C   -6.711701   -1.869592   -1.441516
 C   -5.851439   -1.098138   -2.215144
 C   -4.819961   -0.379288   -1.616461
 C   -2.486367   -0.633887    1.092178
 C   -1.829091   -1.550300    0.273346
 C   -0.832462   -2.375511    0.787934
 C   -0.493653   -2.303386    2.138444
 C   -1.155555   -1.401348    2.969670
 C   -2.140333   -0.569235    2.445490
 H    6.799022   -3.278542    1.339485
 H    6.921470   -3.902599   -0.308009
 H    7.673379   -2.359584    0.105472
 H    4.319796   -3.264876    1.390431
 H    2.219716   -2.110175    0.775993
 H    4.328775    0.078181   -2.265372
 H    6.429348   -1.097265   -1.642535
 H    0.297358   -0.081733    0.545726
 H    2.323769    0.641469    1.856926
 H    3.595436    1.666604   -0.035379
 H    3.333320    2.795900    1.291147
 H    1.580296    2.635956   -1.105571
 H    2.844416    3.705586   -0.975834
 H    0.811577    4.825291   -0.344476
 H    1.853176    4.646541    1.078081
 H   -0.409823    3.964151    1.695830
 H    0.035684    1.579037    2.411156
 H    1.360934    2.680361    2.748248
 H   -2.148461    2.272448    1.451978
 H   -3.582058    2.042494   -0.834514
 H   -2.225612    0.947064   -1.144727
 H   -3.990683    0.835657    1.348855
 H   -5.355698   -1.257083    1.608349
 H   -7.196104   -2.520908    0.553794
 H   -7.519498   -2.426688   -1.909103
 H   -5.982052   -1.047068   -3.293431
 H   -4.169668    0.224218   -2.246268
 H   -2.087544   -1.608692   -0.784100
 H   -0.308856   -3.058282    0.122859
 H    0.280668   -2.948966    2.546512
 H   -0.899660   -1.344718    4.024165
 H   -2.638474    0.146048    3.098435
