47 
4gjb_ligand_ani.xyz
 C   -2.709853   -0.187243    0.502781
 C   -2.608199    0.120752   -0.848209
 O   -1.564310    0.858471   -1.346694
 C   -1.616328    0.211462    1.468766
 C   -4.773507   -1.380084    0.029504
 C   -4.635570   -1.079645   -1.326991
 C   -3.552875   -0.336007   -1.769584
 C   -3.810104   -0.939835    0.926373
 C   -0.778616    1.328045    0.885660
 C   -0.786146    1.579895   -0.481306
 C    0.035408    2.560803   -1.044318
 C    0.845868    3.332071   -0.226474
 C    0.873041    3.096741    1.150649
 C    0.083771    2.085552    1.684753
 C   -0.750249   -1.007616    1.879835
 N    0.010839   -1.535295    0.761187
 C    1.361965   -1.424904    0.687403
 O    2.038281   -1.041149    1.641272
 C    1.994199   -1.779258   -0.662431
 C    1.972554   -0.555938   -1.603946
 C    2.850262    0.575908   -1.065738
 C    4.261228    0.071488   -0.761591
 N    4.191232   -1.093510    0.163213
 C    3.444647   -2.222031   -0.453241
 H   -2.089653    0.571525    2.392178
 H   -5.622103   -1.960135    0.380779
 H   -5.377568   -1.426823   -2.041095
 H   -3.420290   -0.090048   -2.818769
 H   -3.904312   -1.184769    1.982870
 H    0.032038    2.690805   -2.121918
 H    1.476416    4.104928   -0.660079
 H    1.516901    3.687509    1.796957
 H    0.134760    1.875465    2.750975
 H   -1.393355   -1.798810    2.282500
 H   -0.039984   -0.726604    2.658870
 H   -0.498440   -1.719067   -0.091980
 H    1.411859   -2.597040   -1.102274
 H    0.945100   -0.207315   -1.762978
 H    2.349849   -0.874514   -2.585731
 H    2.896506    1.400216   -1.786176
 H    2.404055    0.980620   -0.147115
 H    4.876851    0.857936   -0.318944
 H    4.740453   -0.239511   -1.699417
 H    3.617904   -0.818471    1.000895
 H    5.126550   -1.389939    0.471336
 H    3.511769   -3.103636    0.184069
 H    3.889448   -2.470204   -1.423745
