47 
4gk3_ligand_ani.xyz
 O   18.843921  -16.557389   24.735131
 C   19.186546  -15.400081   24.605460
 N   19.582960  -14.625412   25.692524
 N   19.209731  -14.753411   23.367877
 C   18.829390  -15.476204   22.166129
 C   19.594843  -13.438941   23.300807
 C   19.972205  -12.724415   24.420953
 C   19.996091  -13.283958   25.743765
 O   20.309983  -12.746392   26.786912
 N   19.639852  -12.693223   22.154228
 C   20.045076  -11.516966   22.600315
 N   20.265816  -11.467309   23.942287
 N   20.324215  -10.269679   22.090824
 C   20.441927  -10.037057   20.657479
 C   19.120564  -10.230711   19.918561
 C   18.051523   -9.179600   20.210799
 C   16.774099   -9.421431   19.410749
 C   20.763155   -9.473071   23.157619
 C   20.716435  -10.215784   24.299663
 C   21.122829   -8.058552   22.997355
 C   22.357130   -7.580036   23.471684
 C   23.384086   -8.474097   24.127509
 C   22.650347   -6.227708   23.299385
 C   21.756535   -5.351673   22.694631
 C   20.532301   -5.825621   22.240615
 C   20.226225   -7.169322   22.391673
 H   19.559139  -15.118593   26.576128
 H   18.412212  -16.429532   22.485918
 H   18.087872  -14.899517   21.608566
 H   19.699124  -15.652279   21.525527
 H   21.184052  -10.736826   20.253271
 H   20.834679   -9.027861   20.502031
 H   18.739648  -11.230285   20.163265
 H   19.339829  -10.226099   18.843114
 H   17.811609   -9.178762   21.282554
 H   18.440531   -8.177979   19.970258
 H   16.013996   -8.663908   19.628011
 H   16.972631   -9.396134   18.332849
 H   16.344638  -10.402046   19.646326
 H   20.920346   -9.969499   25.328854
 H   23.497615   -9.417018   23.584579
 H   24.358053   -7.978943   24.167610
 H   23.101494   -8.721994   25.156707
 H   23.612172   -5.855402   23.648582
 H   22.016203   -4.302364   22.578768
 H   19.820907   -5.157253   21.765429
 H   19.269465   -7.547662   22.042720
