86 
4gk7_ligand_ani.xyz
 C   -1.333514   -1.575249    1.500007
 O   -0.465844   -1.243287    2.308558
 C   -2.729757   -1.087957    1.627381
 C   -3.785467   -1.522451    0.930369
 C   -5.118867   -0.936470    1.044765
 C   -6.169011   -1.378890    0.348353
 C   -7.558251   -0.818232    0.376042
 C   -8.185260   -0.718656   -1.021423
 C   -9.647585   -0.263629   -1.013876
 C   -9.889015    1.132158   -0.426167
 C   -9.136158    2.248315   -1.154954
 C   -9.521079    3.659230   -0.700809
 C   -9.167955    3.953566    0.756328
 N   -1.053948   -2.402361    0.458320
 C    0.279708   -2.919925    0.247555
 C    1.153751   -1.881315   -0.481317
 O    1.433904   -1.993830   -1.674250
 C    0.209089   -4.212391   -0.576838
 O   -0.550121   -3.963795   -1.746206
 C   -0.437410   -5.355517    0.186549
 N    1.561925   -0.834004    0.270092
 C    2.535726    0.109459   -0.222496
 C    3.933736   -0.193491    0.354614
 O    4.100858   -0.657990    1.473322
 C    2.130990    1.533996    0.084700
 C    2.654112    2.276605    1.063658
 C    2.477984    3.763806    1.161138
 C    3.726136    4.537195    0.691519
 N    4.153319    4.174864   -0.651855
 N    4.958093    0.151243   -0.471621
 C    6.333698    0.216854   -0.003799
 C    7.142446   -0.977418   -0.547102
 C    8.602188   -0.934358   -0.088214
 C    6.481575   -2.293255   -0.125032
 C    6.938234    1.581843   -0.366871
 C    6.061769    2.768853    0.054278
 C    5.005213    3.148541   -0.979315
 O    4.908729    2.593551   -2.065805
 H   -2.844658   -0.321811    2.389541
 H   -3.700276   -2.364277    0.233350
 H   -5.209782   -0.087739    1.725054
 H   -6.024012   -2.246947   -0.300617
 H   -7.555821    0.163232    0.871366
 H   -8.200185   -1.470799    0.986652
 H   -8.124687   -1.706209   -1.497650
 H   -7.590707   -0.041594   -1.650286
 H  -10.246271   -0.993588   -0.450149
 H  -10.029258   -0.287591   -2.044371
 H  -10.965803    1.347522   -0.463549
 H   -9.619986    1.132338    0.638706
 H   -9.323836    2.154238   -2.233810
 H   -8.053476    2.112358   -1.019791
 H   -9.018921    4.389595   -1.348112
 H  -10.599442    3.807141   -0.853420
 H   -9.710010    3.294631    1.443263
 H   -8.095729    3.810758    0.936151
 H   -9.417336    4.985341    1.024847
 H   -1.694041   -2.525271   -0.313420
 H    0.706365   -3.103575    1.238501
 H    1.237130   -4.492532   -0.848003
 H   -0.007420   -3.338864   -2.258316
 H   -0.495548   -6.240450   -0.451958
 H   -1.447525   -5.087599    0.510920
 H    0.157064   -5.607908    1.072164
 H    1.277722   -0.793353    1.243297
 H    2.548197   -0.020599   -1.312163
 H    1.340358    1.926546   -0.551811
 H    3.313162    1.812337    1.801663
 H    2.254378    4.053200    2.195675
 H    1.621193    4.076770    0.547953
 H    3.514629    5.611931    0.703980
 H    4.557797    4.375006    1.384036
 H    3.456462    4.304297   -1.376472
 H    4.754873    0.684417   -1.309908
 H    6.288294    0.131421    1.091230
 H    7.122809   -0.913256   -1.646280
 H    8.668998   -0.908032    1.007416
 H    9.136477   -0.064605   -0.484096
 H    9.135840   -1.827669   -0.429947
 H    7.107289   -3.146972   -0.406807
 H    5.499838   -2.424380   -0.591036
 H    6.333642   -2.319705    0.961497
 H    7.113143    1.625855   -1.449699
 H    7.911773    1.675623    0.126293
 H    6.679103    3.655660    0.242514
 H    5.560107    2.532439    1.001848
