43 
4gkh_ligand_ani.xyz
 N   83.808551   49.745097  -38.282696
 C   82.721150   50.390763  -37.832823
 N   81.863660   50.020528  -36.896853
 C   82.172526   48.834150  -36.341141
 C   83.295650   48.065842  -36.667883
 C   84.098997   48.568551  -37.721618
 C   79.143816   48.771460  -35.727050
 C   79.854006   47.501221  -33.689556
 C   80.529143   49.897265  -33.963700
 N   85.196559   47.899813  -38.165844
 C   83.322443   41.681042  -35.659792
 C   82.265425   42.616175  -35.711556
 C   85.532550   46.229981  -35.596518
 C   84.616442   42.118415  -35.605743
 C   86.271425   43.944489  -35.540886
 C   82.525038   43.963084  -35.710235
 N   82.108958   46.978311  -35.079168
 C   84.211431   45.849043  -35.684505
 C   83.205647   46.915039  -35.813885
 C   84.922002   43.506371  -35.602677
 C   83.864397   44.457749  -35.657985
 N   81.488926   48.146697  -35.385583
 C   80.257479   48.576115  -34.692953
 C   86.570872   45.279183  -35.529152
 H   82.521442   51.344861  -38.313618
 H   78.216890   49.067078  -35.222888
 H   79.422084   49.546006  -36.445161
 H   78.959660   47.838694  -36.268627
 H   80.670844   47.308632  -32.990660
 H   78.971451   47.827797  -33.129434
 H   79.612661   46.567458  -34.203175
 H   81.332075   49.770768  -33.231013
 H   80.821133   50.672120  -34.676508
 H   79.626374   50.221700  -33.434234
 H   85.584173   48.242305  -39.033856
 H   85.214073   46.898631  -38.033476
 H   83.099303   40.616935  -35.661841
 H   81.239152   42.260822  -35.750659
 H   85.784249   47.285787  -35.591324
 H   85.439619   41.407954  -35.563925
 H   87.060619   43.197681  -35.495880
 H   81.709695   44.680642  -35.738038
 H   87.601411   45.615746  -35.471879
