43 
4gkh_ligand_dft.xyz
 N   -2.284707    3.046923   -0.907702
 C   -3.358443    2.244058   -0.833991
 N   -3.425444    0.973228   -0.473656
 C   -2.219828    0.481230   -0.127850
 C   -1.015027    1.196359   -0.117673
 C   -1.098853    2.538547   -0.560641
 C   -3.513385   -2.200816   -0.953560
 C   -2.071872   -3.156868    0.865637
 C   -3.915926   -1.559224    1.456473
 N   -0.024239    3.356120   -0.643360
 C    4.450273   -1.967362   -1.166949
 C    3.090745   -2.251499   -1.429112
 C    1.791934    1.540348    1.316723
 C    4.784820   -0.905703   -0.369259
 C    4.125968    1.028693    1.019341
 C    2.097711   -1.477657   -0.886663
 N   -0.603707   -0.920496    0.519486
 C    1.409667    0.473027    0.531184
 C   -0.033942    0.250970    0.304009
 C    3.781791   -0.081229    0.204903
 C    2.410270   -0.372731   -0.049738
 N   -1.926671   -0.787576    0.258936
 C   -2.859095   -1.929181    0.407577
 C    3.153091    1.824099    1.562007
 H   -4.299560    2.708206   -1.120797
 H   -2.751233   -2.444553   -1.701110
 H   -4.197738   -3.051286   -0.868394
 H   -4.078641   -1.330161   -1.294905
 H   -1.304449   -3.435912    0.139279
 H   -1.580543   -2.983246    1.825831
 H   -2.772391   -3.991076    0.973609
 H   -3.439514   -1.349657    2.419683
 H   -4.484549   -0.680189    1.143200
 H   -4.610111   -2.395592    1.588783
 H   -0.159827    4.243866   -1.101690
 H    0.908821    2.982773   -0.568063
 H    5.225815   -2.591180   -1.601149
 H    2.831697   -3.091967   -2.066049
 H    1.026461    2.165647    1.768539
 H    5.827244   -0.675832   -0.164063
 H    5.176782    1.235111    1.205287
 H    1.057530   -1.711099   -1.079387
 H    3.418200    2.668389    2.190957
