46 
4gki_ligand_ani.xyz
 N   36.230537   13.120790   19.586849
 C   37.344060   12.524926   19.126899
 N   38.247058   12.997604   18.285704
 C   37.967360   14.241340   17.854816
 C   36.845287   14.988679   18.242272
 C   35.976649   14.356947   19.161770
 C   39.747146   13.399882   15.478514
 C   40.380808   15.819039   15.422005
 C   35.637740   18.939898   12.479793
 C   36.691904   18.911759   13.417785
 C   32.715135   16.741831   15.657852
 C   33.745133   16.766556   16.625973
 C   34.416816   18.419542   12.809165
 C   32.922837   17.285708   14.421108
 C   34.969376   17.329109   16.361995
 C   36.957437   16.211808   17.509559
 C   34.181308   17.855479   14.091584
 N   38.673462   15.009565   16.981541
 C   39.945776   14.665392   16.321609
 C   41.012310   14.410816   17.394072
 N   38.055592   16.201560   16.778361
 N   34.827896   14.965797   19.602634
 C   36.014127   17.388975   17.465592
 C   35.225967   17.854641   15.053501
 C   36.495101   18.377752   14.665922
 H   37.518135   11.520158   19.503219
 H   39.445516   12.562938   16.112157
 H   38.975300   13.564393   14.720367
 H   40.682452   13.143080   14.968543
 H   40.499514   16.737217   16.002465
 H   41.336676   15.576301   14.945999
 H   39.638004   15.997326   14.640269
 H   35.805249   19.369087   11.495059
 H   37.662702   19.318573   13.147595
 H   31.756095   16.297129   15.910724
 H   33.550227   16.329174   17.603224
 H   33.601405   18.425483   12.088741
 H   32.134856   17.284638   13.670936
 H   41.155958   15.303649   18.010397
 H   40.713567   13.581190   18.039296
 H   41.967432   14.164142   16.916935
 H   34.415604   14.500218   20.402711
 H   34.895265   15.969570   19.702542
 H   36.609334   18.306057   17.382018
 H   35.500815   17.467994   18.433870
 H   37.323073   18.328289   15.368056
