25 
4glw_ligand_xtb.xyz
 C   -1.701534    1.131910   -0.013632
 C    0.321902   -0.673386    0.002273
 C   -2.859621    2.071617   -0.033781
 C    0.533121    0.726569    0.000740
 C    2.554201   -1.016913   -0.007429
 C    1.894303    1.162678    0.011788
 N   -0.940051   -1.155887    0.007426
 N    3.593669   -1.877150   -0.063870
 N    2.882521    0.290732    0.005692
 N    1.340903   -1.539255    0.001305
 C   -1.914164   -0.283505    0.001201
 O   -3.182921   -0.710171    0.007431
 C   -3.360875   -2.115159    0.023398
 N   -0.484697    1.608257   -0.010845
 N    2.167834    2.476837    0.049040
 H   -3.467262    1.892446   -0.919235
 H   -3.489776    1.903244    0.837853
 H   -2.500460    3.096604   -0.036145
 H    4.518144   -1.516443    0.084305
 H    3.399805   -2.853147    0.066821
 H   -2.900012   -2.568642   -0.856218
 H   -2.902308   -2.547687    0.914733
 H   -4.436037   -2.280847    0.023813
 H    1.396411    3.117965   -0.002700
 H    3.119622    2.790270   -0.001263
