97 
4gm3_ligand_ani.xyz
 C    9.620437    1.000906    1.982788
 C    8.508846    1.217943    0.960111
 C    9.067273    1.674182   -0.394656
 C    7.725722   -0.071926    0.745984
 O    8.255422   -1.173048    0.804975
 C    5.442223   -0.951423    0.200160
 C    4.114181   -0.208493   -0.085171
 C    5.848438   -1.823753   -1.011519
 N    6.410976    0.110149    0.439295
 O    4.045008    1.012287    0.006395
 C    5.279629   -1.846717    1.452842
 C    4.733134   -1.114913    2.675844
 C    5.931927   -1.070329   -2.337309
 N    3.040223   -0.961164   -0.428777
 C    1.755447   -0.360431   -0.693814
 C    0.658077   -1.370199   -0.347150
 O    0.896806   -2.553565   -0.142099
 C    1.591645    0.135879   -2.155902
 C    1.987278    1.599407   -2.379405
 C    1.332309    2.573242   -1.405087
 N   -0.094745    2.304828   -1.241259
 C   -0.828943    3.187063   -0.413658
 N   -0.358482    3.999224    0.454875
 N   -2.180098    3.106638   -0.650776
 N   -0.584556   -0.831019   -0.308505
 O   -2.758025    0.318186   -1.288501
 C   -1.809551   -1.607917   -0.196684
 C   -2.949645   -0.617537   -0.513187
 C   -1.926822   -2.274726    1.200112
 C   -1.904993   -2.802541   -1.207929
 C   -2.533250   -3.660681    0.949162
 C   -1.862037   -4.082408   -0.359190
 N   -4.166640   -0.831231    0.037544
 C   -5.294586    0.032623   -0.314272
 C   -6.607855   -0.660318    0.030171
 C   -5.168888    1.443575    0.253079
 C   -5.720091    2.509678   -0.463860
 C   -5.745957    3.796673    0.068239
 C   -5.205349    4.036971    1.329958
 C   -4.629401    2.988383    2.043236
 C   -4.596924    1.705084    1.498689
 C   -7.130274   -1.579129   -0.882065
 C   -8.310943   -2.264646   -0.612589
 C   -8.983021   -2.043139    0.585538
 C   -8.465892   -1.136778    1.506702
 C   -7.286437   -0.450794    1.231909
 H   10.295789    0.213212    1.636335
 H   10.197088    1.921916    2.122617
 H    9.217973    0.695119    2.953513
 H    7.809428    1.980749    1.331557
 H    8.265470    1.829232   -1.125775
 H    9.619960    2.614169   -0.291517
 H    9.751309    0.917317   -0.795054
 H    5.128546   -2.648492   -1.100823
 H    6.815415   -2.272533   -0.770529
 H    6.012458    1.041034    0.418440
 H    4.619530   -2.687665    1.198181
 H    6.263870   -2.272335    1.669400
 H    5.351973   -0.246675    2.926292
 H    4.720635   -1.783583    3.542126
 H    3.708607   -0.762732    2.509249
 H    4.953059   -0.685524   -2.645494
 H    6.619838   -0.220622   -2.268221
 H    6.292257   -1.734322   -3.129538
 H    3.044142   -1.969433   -0.352016
 H    1.641686    0.498302   -0.022882
 H    2.177906   -0.516570   -2.812375
 H    0.544026    0.013229   -2.456967
 H    3.071061    1.722728   -2.289923
 H    1.721475    1.875720   -3.407411
 H    1.513135    3.607260   -1.735562
 H    1.814411    2.470398   -0.426976
 H   -0.581450    2.177441   -2.124690
 H    0.656480    3.963098    0.489058
 H   -2.546452    2.198713   -0.921730
 H   -2.732032    3.574917    0.056828
 H   -0.687633    0.151019   -0.552826
 H   -0.910359   -2.398331    1.582295
 H   -2.477779   -1.660167    1.922153
 H   -1.104163   -2.749977   -1.950049
 H   -2.858294   -2.744400   -1.748221
 H   -2.355678   -4.353646    1.778155
 H   -3.620220   -3.586014    0.807740
 H   -0.816862   -4.338820   -0.164675
 H   -2.351529   -4.927588   -0.852388
 H   -4.318328   -1.616406    0.653898
 H   -5.272435    0.146954   -1.406347
 H   -6.147648    2.328805   -1.448836
 H   -6.184358    4.611338   -0.502528
 H   -5.228857    5.037674    1.753728
 H   -4.199171    3.169268    3.025526
 H   -4.135216    0.897274    2.062051
 H   -6.601225   -1.762691   -1.815295
 H   -8.705466   -2.971546   -1.338900
 H   -9.906074   -2.575238    0.801859
 H   -8.984358   -0.959254    2.445251
 H   -6.896616    0.257977    1.961896
