36 
4gmy_ligand_xtb.xyz
 C   -3.037446   -0.230689   -0.038213
 C   -3.103804   -1.397146   -0.795878
 C   -4.064011   -2.363802   -0.543977
 C    0.413029    1.185351   -0.340132
 C   -2.045634    0.860023   -0.361212
 C    0.438678    2.507687   -0.781947
 C    1.675072    3.107139   -0.941305
 C   -3.963998   -0.056579    0.987605
 C   -4.972016   -2.166257    0.482031
 C   -4.926258   -1.019002    1.253822
Cl   -1.979066   -1.635303   -2.089549
 O   -2.392087    1.942132   -0.766484
 N   -0.761338    0.465037   -0.135494
 N    2.827621    2.507141   -0.701744
 C    2.797656    1.244991   -0.280621
 C    1.618109    0.537940   -0.082647
 N    4.061219    0.710612   -0.060557
 C    4.401673   -0.545307    0.366760
 O    3.593737   -1.410834    0.630662
 C    5.872402   -0.751732    0.475040
 C    6.357138   -1.705413    1.540057
 C    6.400913   -2.119798    0.113963
Cl   -3.886974    1.365866    1.954690
 H   -4.096616   -3.256040   -1.148056
 H   -0.471370    3.040520   -0.992358
 H    1.751422    4.131027   -1.281180
 H   -5.722840   -2.914886    0.680674
 H   -5.629048   -0.862024    2.055855
 H   -0.619564   -0.484036    0.186402
 H    1.649432   -0.483088    0.258652
 H    4.795126    1.376804   -0.262401
 H    6.490834    0.105343    0.243464
 H    5.598015   -2.148037    2.166484
 H    7.277834   -1.464855    2.048660
 H    7.352434   -2.172530   -0.392111
 H    5.672293   -2.842129   -0.220418
