117 
4gpk_ligand_dft.xyz
 N    5.153449    1.074393   -1.256949
 C    5.095832    0.068121   -2.365865
 C    3.910314   -0.862804   -2.038988
 O    2.778813   -0.411845   -2.133177
 C    6.463800   -0.572576   -2.541098
 O    6.810666   -1.131617   -1.291705
 N    4.198470   -2.116367   -1.636866
 C    3.137820   -2.977389   -1.138271
 C    2.365483   -2.313344    0.018559
 O    1.148070   -2.463669    0.091964
 C    3.750816   -4.312565   -0.727586
 O    4.819213   -4.007213    0.145654
 N    3.125377   -1.611536    0.878243
 C    2.700212   -0.475200    1.671167
 C    3.868121    0.524088    1.595611
 O    5.008216    0.103219    1.348810
 C    2.467739   -0.818949    3.158832
 C    1.356754   -1.845466    3.434696
 C   -0.026116   -1.251402    3.737882
 C   -0.710442   -0.483227    2.615944
 N   -1.042164   -1.346711    1.455281
 N    3.652319    1.820851    1.868054
 C    2.380145    2.513236    1.752336
 C    2.020349    2.684589    0.261431
 O    2.846065    2.467105   -0.632814
 C    2.668741    3.863597    2.429750
 C    4.116564    4.144564    2.012952
 C    4.778500    2.761545    2.005967
 N    0.772223    3.099115    0.048155
 C    0.036402    3.080240   -1.207919
 C   -1.447583    3.099045   -0.759347
 O   -1.746624    3.545393    0.338258
 C    0.392454    1.889611   -2.114740
 C   -0.005799    0.578246   -1.488475
 O   -0.724916   -0.183217   -2.301420
 O    0.273553    0.278456   -0.345306
 N   -2.366739    2.606244   -1.622439
 C   -3.704273    2.321535   -1.146938
 C   -3.634532    1.254136   -0.040764
 O   -2.607730    0.630611    0.197720
 C   -4.615478    1.837806   -2.299178
 C   -4.124797    0.504877   -2.903291
 C   -4.796325    2.929196   -3.356231
 C   -5.245663   -0.296993   -3.564636
 N   -4.795512    0.972158    0.599029
 C   -4.811363    0.015004    1.697767
 C   -4.362120   -1.370896    1.222318
 O   -3.685158   -2.100941    1.941494
 C   -6.198318   -0.005152    2.382563
 C   -6.164034   -0.850932    3.657491
 C   -7.334563   -0.452130    1.456434
 N   -4.790529   -1.758401   -0.001077
 C   -4.436655   -3.033999   -0.554357
 C   -3.041496   -3.062435   -1.154999
 O   -2.224258   -2.168097   -1.066817
 O   -2.816533   -4.208522   -1.781394
 H    5.832714    1.810931   -1.462223
 H    5.425632    0.624015   -0.355625
 H    4.226905    1.537633   -1.080152
 H    4.817359    0.605155   -3.275355
 H    6.397674   -1.327727   -3.335011
 H    7.189699    0.188112   -2.860515
 H    7.712048   -1.476361   -1.318656
 H    5.150971   -2.331909   -1.349248
 H    2.393611   -3.141696   -1.921187
 H    4.102721   -4.839710   -1.624449
 H    2.978101   -4.922960   -0.243537
 H    5.233220   -4.823934    0.448227
 H    4.133432   -1.689745    0.790247
 H    1.805251   -0.063009    1.198765
 H    3.418288   -1.203886    3.544356
 H    2.267084    0.109724    3.710172
 H    1.303744   -2.565676    2.610650
 H    1.646145   -2.427923    4.314832
 H    0.058513   -0.566821    4.590341
 H   -0.697541   -2.054736    4.065866
 H   -0.103621    0.335057    2.223167
 H   -1.654052   -0.058089    2.963014
 H   -0.200938   -1.765359    1.011826
 H   -1.729279   -2.062376    1.720250
 H   -1.509980   -0.769964    0.742212
 H    1.579348    1.966817    2.258673
 H    2.589869    3.739582    3.513876
 H    1.971190    4.646051    2.123523
 H    4.140109    4.581526    1.010382
 H    4.620021    4.835266    2.690995
 H    5.490581    2.639062    1.185946
 H    5.309424    2.539311    2.935836
 H    0.158544    3.273389    0.840646
 H    0.229374    4.005486   -1.764726
 H   -0.071735    2.012814   -3.096204
 H    1.472914    1.865129   -2.268038
 H   -1.020654   -0.987642   -1.825231
 H   -2.049715    2.057458   -2.407875
 H   -4.116661    3.240508   -0.716136
 H   -5.597210    1.652834   -1.842284
 H   -3.646784   -0.111899   -2.132060
 H   -3.343093    0.701785   -3.649039
 H   -3.846872    3.174053   -3.843345
 H   -5.194755    3.848001   -2.915120
 H   -5.494806    2.602851   -4.131448
 H   -5.726679    0.261204   -4.373173
 H   -4.861499   -1.226949   -3.994772
 H   -6.029899   -0.556097   -2.841071
 H   -5.573313    1.612503    0.512721
 H   -4.065415    0.311358    2.442745
 H   -6.383627    1.037106    2.678410
 H   -5.382122   -0.512135    4.344156
 H   -5.981867   -1.906904    3.434915
 H   -7.123560   -0.776745    4.176241
 H   -7.249434   -1.515416    1.209935
 H   -8.296489   -0.305702    1.954728
 H   -7.368912    0.112605    0.516614
 H   -5.281133   -1.089164   -0.575749
 H   -5.155773   -3.321229   -1.325378
 H   -4.474163   -3.799574    0.227356
 H   -1.909099   -4.205392   -2.128277
