117 
4gpk_ligand_ani.xyz
 N    4.923862    1.343108   -1.198885
 C    4.845587    0.649148   -2.525353
 C    3.643225   -0.307011   -2.457074
 O    2.507466    0.149328   -2.509801
 C    6.188208   -0.006910   -2.807810
 O    6.513400   -0.759606   -1.640425
 N    3.897816   -1.631087   -2.280716
 C    2.841325   -2.538039   -1.876659
 C    2.191638   -2.192160   -0.518867
 O    0.987492   -2.428516   -0.366653
 C    3.425424   -3.946131   -1.862005
 O    4.624646   -3.871564   -1.101656
 N    3.002706   -1.694828    0.432299
 C    2.646139   -0.890070    1.591798
 C    3.795485    0.131729    1.769962
 O    4.921792   -0.127918    1.349534
 C    2.551600   -1.717306    2.896558
 C    1.374192   -2.695941    3.011830
 C    0.088944   -2.117605    3.620506
 C   -0.619256   -1.032516    2.805402
 N   -0.977004   -1.489393    1.451331
 N    3.558099    1.284538    2.456224
 C    2.304592    2.031420    2.439919
 C    1.968727    2.534841    1.021162
 O    2.821651    2.579098    0.133871
 C    2.611632    3.217066    3.367489
 C    4.071738    3.524141    3.032012
 C    4.698739    2.141072    2.828961
 N    0.701316    2.971492    0.862133
 C    0.060775    3.318973   -0.398289
 C   -1.458004    3.300413   -0.089345
 O   -1.865160    3.693475    0.993543
 C    0.475988    2.415493   -1.577279
 C    0.074424    0.968355   -1.375757
 O   -0.604223    0.480603   -2.412275
 O    0.285762    0.343227   -0.356526
 N   -2.297676    2.824406   -1.055927
 C   -3.647698    2.430296   -0.707425
 C   -3.640050    1.103918    0.093200
 O   -2.611051    0.501181    0.375460
 C   -4.539613    2.362211   -1.969323
 C   -3.971250    1.387886   -3.017861
 C   -4.755665    3.760140   -2.553131
 C   -5.013779    0.889459   -4.017757
 N   -4.855083    0.606678    0.471935
 C   -4.925236   -0.483974    1.442170
 C   -4.319019   -1.778627    0.888739
 O   -3.649037   -2.509535    1.614028
 C   -6.362547   -0.691084    1.961869
 C   -6.370117   -1.675951    3.130993
 C   -7.354496   -1.129698    0.881865
 N   -4.569209   -2.085791   -0.411297
 C   -3.833536   -3.158090   -1.052184
 C   -2.371313   -2.769162   -1.256156
 O   -2.055475   -1.753860   -1.851077
 O   -1.506996   -3.616427   -0.723704
 H    5.466421    2.219821   -1.265251
 H    5.372736    0.702999   -0.511374
 H    3.971129    1.574077   -0.859235
 H    4.602944    1.376249   -3.298498
 H    6.122168   -0.648181   -3.695569
 H    6.942575    0.768370   -2.998196
 H    7.416762   -1.088952   -1.709052
 H    4.838508   -1.920519   -2.027879
 H    2.016037   -2.478809   -2.590043
 H    3.629953   -4.256291   -2.895420
 H    2.704418   -4.651364   -1.426081
 H    5.016643   -4.750723   -1.048737
 H    3.995742   -1.662847    0.222464
 H    1.704567   -0.380782    1.369300
 H    3.494578   -2.271729    2.980927
 H    2.524523   -1.018512    3.743755
 H    1.171080   -3.151823    2.034876
 H    1.692331   -3.520137    3.661427
 H    0.314851   -1.703070    4.611645
 H   -0.618334   -2.940463    3.790825
 H    0.019718   -0.146239    2.707185
 H   -1.534102   -0.709165    3.318839
 H   -0.163718   -1.884168    0.964239
 H   -1.748277   -2.166112    1.504744
 H   -1.301378   -0.687895    0.896814
 H    1.476120    1.418786    2.818855
 H    2.513052    2.889809    4.406984
 H    1.939913    4.066895    3.210307
 H    4.123802    4.090646    2.097400
 H    4.571742    4.103581    3.812741
 H    5.447232    2.120733    2.030968
 H    5.173548    1.756390    3.740416
 H    0.059237    2.941431    1.643056
 H    0.322432    4.352885   -0.664247
 H    0.057440    2.792287   -2.514565
 H    1.561955    2.442385   -1.658109
 H   -0.930846   -0.419939   -2.188046
 H   -1.896185    2.328050   -1.836870
 H   -4.035650    3.204055   -0.033597
 H   -5.519228    1.978946   -1.649961
 H   -3.506869    0.525547   -2.517413
 H   -3.155244    1.879458   -3.567319
 H   -3.803146    4.205396   -2.859702
 H   -5.219284    4.429800   -1.819600
 H   -5.412161    3.726211   -3.428969
 H   -5.461825    1.711434   -4.587414
 H   -4.561210    0.196412   -4.734703
 H   -5.824367    0.356116   -3.507890
 H   -5.669230    1.196034    0.385235
 H   -4.280471   -0.252462    2.298865
 H   -6.679833    0.292543    2.340090
 H   -5.672996   -1.370774    3.919446
 H   -6.078789   -2.678361    2.800211
 H   -7.370475   -1.740909    3.572216
 H   -7.116295   -2.132881    0.513426
 H   -8.369507   -1.158879    1.292566
 H   -7.364578   -0.447281    0.024635
 H   -4.911053   -1.326347   -0.984115
 H   -4.281382   -3.339238   -2.032754
 H   -3.888826   -4.067003   -0.452417
 H   -0.605634   -3.232967   -0.808634
