27 
4gqp_ligand_dft.xyz
 N   -1.618564    0.955759   -0.252009
 C   -1.768844   -0.484894    0.210475
 C   -3.175023   -0.985631   -0.073017
 C   -0.667532   -1.313043   -0.469549
 C    0.704157   -0.716745   -0.246466
 C    1.334380   -0.841032    0.996730
 C    1.329230    0.030568   -1.251302
 C    2.565719   -0.238098    1.225784
 C    2.563188    0.638633   -1.019968
 C    3.180516    0.505016    0.218763
 C   -2.248620    1.991939    0.615867
 H   -0.603831    1.135515   -0.325364
 H   -1.985672    1.032742   -1.205636
 H   -1.577953   -0.445159    1.287417
 H   -3.944573   -0.403954    0.441671
 H   -3.259790   -2.016657    0.279452
 H   -3.387579   -0.988083   -1.148191
 H   -0.884427   -1.402269   -1.541584
 H   -0.728555   -2.324183   -0.054566
 H    0.868683   -1.431654    1.782585
 H    0.869568    0.105764   -2.235531
 H    3.052157   -0.355076    2.188760
 H    3.045139    1.200577   -1.813452
 H    4.144247    0.969945    0.398259
 H   -3.318389    1.800798    0.688767
 H   -2.074504    2.974013    0.175603
 H   -1.787604    1.937080    1.601972
