27 
4gqq_ligand_xtb.xyz
 C   -5.801421    1.392553   -0.005662
 C   -4.974980    0.120595   -0.028817
 O   -3.594140    0.476755   -0.038321
 C   -2.719661   -0.541985   -0.000384
 O   -3.055979   -1.702785    0.036518
 C   -1.336824   -0.050682   -0.008112
 C   -0.312346   -0.913325    0.020165
 C    1.100751   -0.603624    0.017216
 C    1.583852    0.706910    0.019867
 C    2.025687   -1.651405    0.027763
 C    3.382021   -1.403721    0.004437
 C    3.855308   -0.099458   -0.021877
 O    5.203974    0.121618   -0.067305
 C    2.940844    0.963285    0.017887
 O    3.371594    2.267822    0.031925
 H   -5.560541    1.978519    0.877301
 H   -5.591517    1.991678   -0.887598
 H   -6.857940    1.141187    0.011198
 H   -5.191378   -0.480144   -0.920000
 H   -5.172884   -0.501272    0.852097
 H   -1.222837    1.020630   -0.038483
 H   -0.564390   -1.967146    0.046726
 H    0.913533    1.549774    0.033310
 H    1.671845   -2.670948    0.041329
 H    4.100279   -2.207828   -0.005327
 H    5.383898    0.994671   -0.440228
 H    4.228944    2.328747    0.472226
