33 
4gqr_ligand_xtb.xyz
 C   -4.680664    0.695077    0.028897
 C   -4.005284   -0.511280   -0.014772
 C   -2.585924   -0.512261   -0.012957
 C   -1.891444    0.704680    0.030071
 C   -2.584890    1.909101    0.073408
 C   -3.973811    1.896436    0.073522
 C   -1.839650   -1.736388   -0.054250
 C   -0.389228   -1.604844   -0.043766
 C    0.210756   -0.376314   -0.004993
 C    1.644993   -0.106240   -0.001608
 C    2.585994   -1.128895    0.103119
 C    3.941017   -0.838829    0.109787
 C    4.374116    0.486198    0.008335
 C    3.433336    1.509791   -0.099016
 C    2.084066    1.218403   -0.102128
 O   -0.546798    0.755146    0.030343
 O   -2.340297   -2.878051   -0.099181
 O    3.925356    2.788636   -0.198626
 O    5.718458    0.744161    0.016218
 O    4.847310   -1.838669    0.215764
 O    0.267660   -2.783511   -0.085597
 O   -4.690488    3.039784    0.115913
 O   -4.679715   -1.657919   -0.057735
 H   -5.757004    0.710891    0.028961
 H   -2.033850    2.836629    0.107795
 H    2.286534   -2.157616    0.182808
 H    1.365744    2.019277   -0.186740
 H    3.190669    3.406865   -0.270667
 H    5.830330    1.700221   -0.063084
 H    5.731176   -1.445072    0.200598
 H   -0.441815   -3.461583   -0.120417
 H   -4.101989    3.804500    0.146443
 H   -4.021974   -2.398554   -0.084378
