52 
4gs6_ligand_ani.xyz
 C    2.365977    0.762290   -0.125304
 C    1.865095   -0.518697   -0.495205
 C    3.733241    0.870707    0.226409
 C    2.684957   -1.632538   -0.406848
 C    4.025025   -1.505441   -0.034959
 O    0.226490    1.807166   -0.256620
 C    4.556695   -0.262906    0.266831
 C   -0.318958   -1.708521   -0.627930
 C   -2.076714    2.382284    0.013308
 C    0.480470   -0.704085   -0.988219
 C   -2.619892   -1.982774    0.391823
 C    1.527775    1.983452   -0.021069
 C   -0.657632    2.938314   -0.048124
 C   -1.800346   -1.755538   -0.892769
 O    1.980980    3.084307    0.283046
 C   -4.058431   -1.490981    0.303045
 C   -4.277950    0.013000    0.112551
 O   -5.677299    0.223972    0.047023
 C   -3.747928    0.883577    1.253548
 C   -2.295330    1.366881    1.135855
 O   -2.746082   -3.379815    0.660487
 O   -4.713764   -2.118104   -0.792142
 O    4.319615    2.029700    0.540895
 O    4.741575   -2.654988    0.002089
 C    6.099263   -2.561207    0.370589
 C   -0.506713    3.957255   -1.167018
 H    2.306090   -2.616593   -0.661100
 H    5.594341   -0.120343    0.544972
 H    0.084618   -2.534453   -0.037785
 H   -2.761441    3.231492    0.150297
 H   -2.325894    1.944700   -0.962873
 H    0.111059    0.070592   -1.648000
 H   -2.140546   -1.496089    1.255399
 H   -0.393391    3.393036    0.912597
 H   -2.046644   -2.570153   -1.583887
 H   -2.103519   -0.821496   -1.383453
 H   -4.559361   -1.772889    1.243747
 H   -3.819036    0.319313   -0.843667
 H   -6.013174   -0.446204   -0.567013
 H   -4.416870    1.748851    1.316860
 H   -3.882288    0.330422    2.193323
 H   -1.611354    0.522756    0.999314
 H   -2.012300    1.835574    2.088020
 H   -1.876115   -3.791366    0.575237
 H   -4.613363   -3.069679   -0.646463
 H    3.626289    2.727013    0.520110
 H    6.488604   -3.579932    0.346525
 H    6.213184   -2.152947    1.383020
 H    6.664708   -1.939098   -0.335126
 H    0.481448    4.418189   -1.153897
 H   -0.662373    3.474549   -2.137819
 H   -1.256416    4.746421   -1.045648
