27 
4gs9_ligand_dft.xyz
 C    4.353678    0.799547    1.085792
 C    3.008930    1.155679    1.078076
 C    4.832036   -0.198002    0.242539
 C    3.936572   -0.815239   -0.618194
 F    4.380649   -1.768175   -1.446802
 C    2.595574   -0.469780   -0.668106
 C    2.130096    0.516016    0.203811
 N    0.778866    0.938794    0.171768
 C   -0.329475    0.165678    0.199503
 C   -1.611681    0.680594   -0.053159
 N   -1.845122    2.055166   -0.369574
 O   -2.977501    2.391398   -0.664668
 O   -0.894167    2.855459   -0.329199
 C   -0.179934   -1.242557    0.551039
 C   -1.218210   -2.102781    0.610667
 C   -2.519225   -1.593658    0.316292
 C   -2.729774   -0.220153   -0.003808
 N   -3.671257   -2.220399    0.304802
 O   -4.570626   -1.275486   -0.012234
 N   -4.019449   -0.043193   -0.206307
 H    5.036445    1.298567    1.765546
 H    2.632417    1.920680    1.749083
 H    5.874088   -0.496112    0.239331
 H    1.938973   -0.948863   -1.385818
 H    0.585081    1.930372    0.042035
 H    0.816973   -1.585500    0.797700
 H   -1.084254   -3.141191    0.890621
