90 
4gtm_ligand_dft.xyz
 C   -5.055469    4.470207   -1.326624
 C   -4.737393    3.532982   -0.162196
 C   -4.486640    2.080764   -0.582603
 C   -5.626910    1.415160   -1.364468
 C   -6.983589    1.370610   -0.650859
 C   -7.010070    0.540855    0.638648
 N   -6.609573   -0.840459    0.420678
 C   -5.362453   -1.266867    0.721453
 O   -4.556256   -0.679522    1.412298
 O   -5.139544   -2.485961    0.138200
 C   -3.815495   -2.872620   -0.020847
 C   -2.973925   -3.094866    1.063258
 C   -1.646329   -3.428991    0.824281
 C   -3.365761   -3.044595   -1.322705
 C   -2.037055   -3.395551   -1.544437
 C   -1.152156   -3.561066   -0.478389
 C    0.332227   -3.735711   -0.689925
 C    1.045664   -2.374910   -0.524456
 C    0.809697   -1.466899   -1.728709
 N    1.232411   -0.087579   -1.529479
 C    0.248463    0.940130   -1.894943
 C   -0.261330    1.804351   -0.783885
 C   -0.104441    3.144241   -0.531989
 N   -0.815350    3.526360    0.574614
 C   -1.406503    2.425180    0.983366
 N   -1.115118    1.355334    0.201224
 C   -1.654982    0.022294    0.358394
 C    2.585813    0.241192   -1.562807
 C    2.963278    1.598439   -1.602009
 C    4.282534    1.995518   -1.709034
 C    5.295737    1.040793   -1.770664
 C    6.670235    1.428600   -1.880522
 N    7.783192    1.743689   -1.968015
 C    4.944296   -0.306183   -1.660364
 C    3.627578   -0.728284   -1.538289
 C    3.430911   -2.218333   -1.274337
 N    2.468944   -2.537168   -0.231987
 S    2.933042   -2.353964    1.368345
 O    4.289088   -2.868147    1.452449
 O    1.838913   -2.924085    2.142825
 C    2.988084   -0.612643    1.699663
 C    4.200696    0.069584    1.572674
 C    4.231287    1.442385    1.713013
 C    3.049953    2.152706    1.971429
 O    3.183980    3.488425    2.072746
 C    2.059562    4.251622    2.480922
 C    1.840609    1.466219    2.117365
 C    1.817591    0.082610    1.983439
 H   -4.268446    4.424124   -2.088448
 H   -5.129486    5.507752   -0.985885
 H   -6.004615    4.215115   -1.811690
 H   -5.549840    3.574890    0.575762
 H   -3.840059    3.897864    0.350815
 H   -3.580991    2.049967   -1.205038
 H   -4.263291    1.482903    0.308440
 H   -5.764058    1.930931   -2.322592
 H   -5.324995    0.390445   -1.621296
 H   -7.734283    0.966983   -1.344217
 H   -7.317091    2.386391   -0.405014
 H   -6.326068    0.948322    1.385811
 H   -8.015834    0.553314    1.071310
 H   -7.114251   -1.385877   -0.262774
 H   -3.346393   -2.969618    2.072485
 H   -0.964981   -3.559841    1.661739
 H   -4.053718   -2.888451   -2.147355
 H   -1.680382   -3.519151   -2.564378
 H    0.749194   -4.411302    0.060687
 H    0.548810   -4.160893   -1.678036
 H    0.587301   -1.883678    0.334576
 H   -0.268497   -1.460055   -1.893809
 H    1.253434   -1.893973   -2.638977
 H   -0.597351    0.426236   -2.362514
 H    0.658862    1.594832   -2.672284
 H    0.482345    3.857942   -1.096244
 H   -2.072232    2.340626    1.832489
 H   -0.876402   -0.675319    0.665262
 H   -2.444648    0.029690    1.108508
 H   -2.098421   -0.331067   -0.577565
 H    2.213849    2.369033   -1.503446
 H    4.525473    3.052498   -1.731156
 H    5.734353   -1.051452   -1.637131
 H    3.133838   -2.765679   -2.173997
 H    4.385795   -2.648935   -0.967813
 H    5.111467   -0.481931    1.369062
 H    5.160415    1.993475    1.618978
 H    1.708332    3.929176    3.469082
 H    2.411873    5.281567    2.542793
 H    1.234684    4.184941    1.763697
 H    0.917822    1.995680    2.322224
 H    0.886543   -0.454487    2.129969
