74 
4gto_ligand_ani.xyz
 C    4.224655    3.893261   -1.429111
 O    3.094363    4.559407   -0.908660
 C    2.150059    3.797255   -0.296268
 C    2.255412    2.413823   -0.139481
 C    1.243072    1.720216    0.518090
 C    1.035533    4.482851    0.194775
 C    0.031348    3.789649    0.846506
 C    0.143745    2.412305    1.007442
 S   -1.132790    1.520205    1.854734
 O   -2.279078    2.395106    2.019220
 O   -0.555444    0.854666    3.011952
 N   -1.487438    0.328773    0.730960
 C   -2.094820    0.773563   -0.531477
 C   -3.559273    1.153792   -0.501018
 C   -3.954479    2.421749   -0.900075
 C   -5.299627    2.796512   -0.902814
 C   -5.663129    4.124330   -1.312023
 N   -5.955689    5.195804   -1.642590
 C   -6.271341    1.875887   -0.508113
 C   -5.890664    0.595890   -0.131093
 C   -4.539070    0.219758   -0.132891
 N   -4.110443   -1.084816    0.220837
 C   -5.078644   -2.176853    0.086901
 C   -4.389108   -3.479391   -0.145968
 C   -4.177456   -4.572288    0.657994
 N   -3.372264   -5.493707    0.043196
 C   -3.095128   -4.963674   -1.122880
 N   -3.695529   -3.750748   -1.307543
 C   -3.638209   -2.951006   -2.517195
 C   -3.323904   -1.155203    1.458526
 C   -1.812039   -1.009086    1.244771
 C   -1.205150   -2.138127    0.392605
 C    0.302632   -2.043221    0.249695
 C    0.899974   -1.712176   -0.971849
 C    2.283292   -1.602736   -1.096567
 C    1.129436   -2.245141    1.360116
 C    2.512988   -2.155300    1.253268
 C    3.068885   -1.844871    0.020739
 O    4.477251   -1.856400   -0.080504
 S    5.242863   -0.516268   -0.584085
 O    4.812027    0.610485    0.209252
 O    5.264270   -0.475253   -2.024716
 C    6.909480   -1.032348    0.007208
 F    7.759115   -0.052295   -0.284793
 F    7.288498   -2.142917   -0.606215
 F    6.891731   -1.224532    1.319360
 H    3.933835    3.184074   -2.215738
 H    4.765005    3.348079   -0.644114
 H    4.868112    4.664987   -1.853862
 H    3.115012    1.867592   -0.507746
 H    1.310652    0.633887    0.637639
 H    0.985225    5.557705    0.051363
 H   -0.845359    4.300552    1.236569
 H   -1.938235   -0.036992   -1.252138
 H   -1.504747    1.619416   -0.898027
 H   -3.208957    3.155035   -1.198910
 H   -7.320215    2.156933   -0.507752
 H   -6.650126   -0.113153    0.183881
 H   -5.738812   -1.951846   -0.758288
 H   -5.718367   -2.278948    0.979564
 H   -4.558141   -4.744069    1.659248
 H   -2.461441   -5.407239   -1.883184
 H   -2.668244   -3.115456   -2.996247
 H   -3.729358   -1.891499   -2.261424
 H   -4.433171   -3.222388   -3.221851
 H   -3.510575   -2.118769    1.944810
 H   -3.634991   -0.359213    2.150744
 H   -1.345190   -1.050516    2.234068
 H   -1.674021   -2.169393   -0.593930
 H   -1.467273   -3.085729    0.880897
 H    0.275551   -1.517979   -1.841310
 H    2.747267   -1.339623   -2.040802
 H    0.687891   -2.473505    2.329801
 H    3.155008   -2.304999    2.115960
