78 
4gtp_ligand_xtb.xyz
 C   -5.460936   -0.647811   -2.792220
 O   -5.266905   -1.357023   -1.589986
 C   -4.002000   -1.608209   -1.174252
 C   -2.848192   -1.250959   -1.870264
 C   -1.605438   -1.549732   -1.338746
 C   -3.887646   -2.275774    0.049743
 C   -2.645261   -2.554143    0.576397
 C   -1.507649   -2.185608   -0.119586
 S    0.102181   -2.489527    0.598609
 O    0.894387   -3.293311   -0.285381
 O   -0.107164   -2.949014    1.943340
 N    0.782817   -0.986113    0.636760
 C    0.136098    0.003232    1.458390
 C   -0.712504    0.913543    0.613477
 C   -2.088143    0.899990    0.723737
 C   -2.893947    1.697751   -0.088990
 C   -4.335010    1.604752   -0.005710
 O   -4.879285    0.615834    0.745247
 C   -5.339404    2.329327   -0.598413
 C   -6.556037    1.745919   -0.181717
 C   -6.219932    0.702218    0.630407
 C   -7.043516   -0.338036    1.321445
 O   -6.550677   -0.671104    2.595083
 C   -2.272765    2.543572   -1.007025
 C   -0.898989    2.566623   -1.121523
 C   -0.094241    1.743795   -0.332653
 N    1.310264    1.727838   -0.430929
 C    1.927011    2.947728   -0.946404
 C    3.310176    3.097729   -0.417391
 C    4.536183    3.043750   -1.025335
 N    5.520699    3.251870   -0.114567
 C    4.912776    3.426929    1.026488
 N    3.568106    3.342593    0.909027
 C    2.590148    3.510442    1.945206
 C    1.870492    0.511659   -1.009974
 C    2.011464   -0.673693   -0.038967
 C    3.177517   -0.472023    0.955648
 C    4.448687   -1.082420    0.433752
 C    4.527562   -2.462783    0.263138
 C    5.676232   -3.053593   -0.219282
 C    6.780067   -2.268212   -0.541482
 O    7.900009   -2.885278   -1.012033
 C    6.709946   -0.892472   -0.374585
 C    5.551487   -0.308583    0.108737
 H   -5.004279    0.345550   -2.746476
 H   -5.063316   -1.197983   -3.650187
 H   -6.539316   -0.542982   -2.898151
 H   -2.907186   -0.740619   -2.818004
 H   -0.704251   -1.286714   -1.869533
 H   -4.790676   -2.562932    0.564519
 H   -2.530334   -3.053995    1.525180
 H    0.898705    0.578755    1.994423
 H   -0.475028   -0.534829    2.185590
 H   -2.552850    0.254656    1.453341
 H   -5.229747    3.179621   -1.239781
 H   -7.544704    2.056747   -0.449254
 H   -8.061116    0.031956    1.464414
 H   -7.086342   -1.235677    0.679797
 H   -5.602519   -0.831727    2.517498
 H   -2.870176    3.170140   -1.650810
 H   -0.451941    3.212005   -1.862093
 H    1.971190    2.965061   -2.045570
 H    1.322883    3.794539   -0.606827
 H    4.767329    2.870783   -2.057354
 H    5.407197    3.608987    1.959936
 H    2.142667    4.507227    1.896843
 H    1.799641    2.768118    1.831541
 H    3.069452    3.388335    2.915406
 H    1.264803    0.193384   -1.872210
 H    2.875776    0.743793   -1.369262
 H    2.224747   -1.562437   -0.640583
 H    3.323089    0.590346    1.153374
 H    2.905798   -0.967328    1.891082
 H    3.673831   -3.077796    0.508484
 H    5.741855   -4.121491   -0.352563
 H    8.582943   -2.226178   -1.185198
 H    7.561218   -0.271714   -0.621233
 H    5.524221    0.763232    0.231454
