85 
4gtq_ligand_xtb.xyz
 C   -8.122140   -0.885410    2.642682
 O   -6.725296   -1.012983    2.821678
 C   -5.904030   -0.105399    2.255341
 C   -4.536367   -0.289917    2.496289
 C   -3.610066    0.564108    1.940989
 C   -6.321374    0.973872    1.476332
 C   -5.380899    1.822297    0.920051
 C   -4.035659    1.606532    1.137800
 S   -2.833778    2.639394    0.315431
 O   -3.507594    3.814207   -0.153699
 O   -1.667595    2.790054    1.139612
 N   -2.352847    1.765116   -1.016667
 C   -3.395260    1.237119   -1.851724
 C   -3.959989   -0.093330   -1.380248
 C   -5.330968   -0.246530   -1.460903
 C   -5.981743   -1.373540   -0.960842
 C   -7.385692   -1.440259   -0.964740
 N   -8.533122   -1.473987   -0.916953
 C   -5.221879   -2.395650   -0.389182
 C   -3.858067   -2.267483   -0.325463
 C   -3.187742   -1.123220   -0.793979
 N   -1.819075   -1.074225   -0.698718
 C   -1.098539   -1.556411    0.469782
 C    0.146097   -2.278095    0.073680
 C    0.333060   -3.354655   -0.755244
 N    1.655382   -3.622906   -0.886468
 C    2.267337   -2.731673   -0.154705
 N    1.407712   -1.881321    0.448322
 C    1.766415   -0.815263    1.340655
 C   -1.049940   -0.220955   -1.567141
 C   -1.015306    1.238363   -1.108564
 C   -0.134568    2.093602   -2.045388
 C    1.287428    1.620976   -1.969886
 C    1.809515    0.756980   -2.925893
 C    3.085839    0.244114   -2.798177
 C    2.086202    1.982148   -0.891480
 C    3.370337    1.485175   -0.756066
 C    3.862498    0.602919   -1.705967
 O    5.151186    0.086809   -1.638071
 C    5.564683   -0.500824   -0.485934
 O    4.884600   -0.642853    0.502218
 N    6.825389   -0.946092   -0.634889
 C    7.582305   -1.528852    0.455484
 C    8.573400   -0.541157    1.017369
 C    8.113146    0.562468    1.725866
 C    9.003352    1.499318    2.217382
 C   10.363378    1.341104    2.006362
 C   10.828513    0.244521    1.301760
 C    9.936282   -0.690833    0.805365
 H   -8.402855   -0.970428    1.589360
 H   -8.489224    0.061126    3.049101
 H   -8.560902   -1.710986    3.199958
 H   -4.236651   -1.114965    3.122543
 H   -2.556030    0.448829    2.133823
 H   -7.368264    1.148319    1.288451
 H   -5.679876    2.664899    0.316842
 H   -3.038891    1.172189   -2.886080
 H   -4.193258    1.983519   -1.834404
 H   -5.924859    0.545402   -1.895034
 H   -5.708482   -3.280955   -0.008663
 H   -3.280255   -3.083171    0.079263
 H   -1.752092   -2.206382    1.052360
 H   -0.827672   -0.703185    1.107416
 H   -0.405922   -3.943075   -1.261201
 H    3.328510   -2.657983   -0.028898
 H    1.445033   -1.040458    2.360465
 H    1.314364    0.125728    1.021762
 H    2.849296   -0.704572    1.322126
 H   -1.458992   -0.290952   -2.576908
 H   -0.029376   -0.610119   -1.600551
 H   -0.593485    1.311149   -0.100963
 H   -0.512732    2.020787   -3.066111
 H   -0.215882    3.129977   -1.715488
 H    1.209034    0.473189   -3.777540
 H    3.488800   -0.436129   -3.531603
 H    1.696287    2.663640   -0.149394
 H    3.982615    1.770446    0.084911
 H    7.313758   -0.696493   -1.480399
 H    8.092360   -2.424854    0.091303
 H    6.853311   -1.812951    1.218868
 H    7.051794    0.677543    1.890696
 H    8.637372    2.352959    2.768400
 H   11.059199    2.071372    2.391717
 H   11.888068    0.117376    1.135776
 H   10.302498   -1.545989    0.254940
