76 
4gts_ligand_xtb.xyz
 C   -5.739554   -2.347932   -1.315079
 O   -4.505131   -1.923965   -1.852858
 C   -3.366785   -2.199322   -1.177684
 C   -3.311933   -2.761675    0.096325
 C   -2.083979   -2.986638    0.694244
 C   -2.174282   -1.890802   -1.843477
 C   -0.958394   -2.142077   -1.247556
 C   -0.916998   -2.675589    0.027908
 S    0.650513   -2.972712    0.841878
 O    0.357201   -3.472001    2.155044
 O    1.505125   -3.745265   -0.012765
 N    1.369856   -1.489617    1.023347
 C    0.623917   -0.506690    1.764429
 C   -0.317159    0.286006    0.894257
 C   -1.678348    0.210376    1.114692
 C   -2.587540    0.886915    0.301820
 C   -4.011735    0.765819    0.511998
 O   -4.854427    1.341107   -0.358605
 C   -4.730971    0.105864    1.494649
 C   -6.082026    0.295743    1.190321
 C   -6.119843    1.060540    0.037831
 C   -7.229826    1.544247   -0.745054
 O   -8.394928    1.319831   -0.511700
 C   -2.090287    1.663843   -0.745394
 C   -0.734506    1.763076   -0.960013
 C    0.177715    1.080819   -0.152997
 N    1.568010    1.169870   -0.342776
 C    2.068701    2.370788   -1.008070
 C    1.510873    3.628467   -0.439055
 C    0.834618    4.661723   -1.034517
 N    0.554128    5.627709   -0.126945
 C    1.046650    5.200092    1.001422
 N    1.647386    3.994106    0.876832
 C    2.293106    3.244171    1.912784
 C    2.186051   -0.050961   -0.843770
 C    2.505632   -1.096579    0.236678
 C    3.661749   -0.622462    1.140496
 C    4.966124   -0.619601    0.396589
 C    5.552061   -1.818400    0.008174
 C    6.742050   -1.832127   -0.693276
 C    7.374126   -0.637947   -1.022360
 O    8.545571   -0.602340   -1.711163
 C    6.798207    0.567259   -0.636034
 C    5.607947    0.566854    0.064642
 H   -5.961285   -1.851792   -0.366040
 H   -5.758099   -3.432771   -1.175604
 H   -6.491826   -2.064096   -2.048879
 H   -4.213492   -3.023128    0.626345
 H   -2.013355   -3.416023    1.681166
 H   -2.237900   -1.466684   -2.832591
 H   -0.035857   -1.944202   -1.768855
 H    1.332067    0.157225    2.269708
 H    0.064111   -1.057335    2.523150
 H   -2.038932   -0.391879    1.933458
 H   -4.330954   -0.438366    2.324942
 H   -6.936447   -0.064179    1.726916
 H   -6.914943    2.154586   -1.612347
 H   -2.778587    2.181342   -1.394797
 H   -0.382369    2.361094   -1.783438
 H    3.157525    2.363013   -0.871462
 H    1.874875    2.365716   -2.091723
 H    0.542682    4.770976   -2.060104
 H    0.994966    5.730372    1.931410
 H    1.736718    2.328818    2.122069
 H    2.337792    3.850717    2.816128
 H    3.309205    2.979589    1.613044
 H    3.135796    0.211222   -1.315764
 H    1.549892   -0.511301   -1.612723
 H    2.817432   -2.012928   -0.273608
 H    3.719539   -1.306437    1.989476
 H    3.445881    0.379778    1.511568
 H    5.070962   -2.751527    0.260927
 H    7.187595   -2.773511   -0.986598
 H    8.837166   -1.500619   -1.908434
 H    7.298558    1.487883   -0.890857
 H    5.177980    1.511628    0.367125
