85 
4gtt_ligand_ani.xyz
 C   -5.427755   -3.427096    3.132293
 O   -4.177341   -2.790481    3.255711
 C   -4.077491   -1.515637    2.793339
 C   -2.818429   -0.918042    2.925952
 C   -2.600287    0.356831    2.436288
 C   -5.130741   -0.798010    2.226381
 C   -4.912980    0.497225    1.766732
 C   -3.641344    1.045145    1.819655
 S   -3.340694    2.641836    1.085095
 O   -4.621299    3.319493    0.981479
 O   -2.210363    3.233468    1.783938
 N   -2.824675    2.360970   -0.473425
 C   -3.819692    1.954230   -1.461219
 C   -4.233491    0.490957   -1.422632
 C   -5.578358    0.202419   -1.597108
 C   -6.088706   -1.086196   -1.442685
 C   -7.499801   -1.324474   -1.605670
 N   -8.635966   -1.513205   -1.733786
 C   -5.215958   -2.120634   -1.101624
 C   -3.866547   -1.860687   -0.952063
 C   -3.339586   -0.567965   -1.132004
 N   -1.969543   -0.373080   -1.012465
 C   -1.131029   -1.277824   -0.257089
 C   -0.421401   -2.278008   -1.118645
 C   -0.858151   -2.905497   -2.254194
 N    0.076592   -3.792322   -2.724486
 C    1.069708   -3.699099   -1.876399
 N    0.832805   -2.799870   -0.875436
 C    1.752650   -2.438989    0.188556
 C   -1.298852    0.777088   -1.587533
 C   -1.418397    1.995206   -0.668115
 C   -0.584190    3.201616   -1.124711
 C    0.895521    2.938735   -0.960368
 C    1.711212    2.646087   -2.055468
 C    3.051763    2.316758   -1.881623
 C    1.453464    2.914002    0.322824
 C    2.793299    2.594000    0.508736
 C    3.575528    2.293431   -0.597408
 O    4.928128    1.993190   -0.418851
 C    5.231105    0.675745   -0.228042
 O    4.410305   -0.210415   -0.141388
 N    6.583449    0.529732   -0.141783
 C    7.139042   -0.809995   -0.200226
 C    8.557427   -0.866111    0.320520
 C    8.881559   -0.297431    1.553281
 C   10.181597   -0.365850    2.042384
 C   11.176852   -0.999119    1.302110
 C   10.862877   -1.566710    0.071495
 C    9.559348   -1.500526   -0.412439
 H   -5.743350   -3.495016    2.081454
 H   -6.205491   -2.902352    3.703743
 H   -5.299586   -4.432219    3.537466
 H   -2.026175   -1.492251    3.399797
 H   -1.628034    0.830213    2.544604
 H   -6.118817   -1.236882    2.143517
 H   -5.726465    1.077111    1.336454
 H   -3.441889    2.232246   -2.451037
 H   -4.703450    2.575300   -1.292203
 H   -6.272937    1.004625   -1.840006
 H   -5.606946   -3.122361   -0.949509
 H   -3.192662   -2.681560   -0.719270
 H   -1.741272   -1.790383    0.498210
 H   -0.403236   -0.667718    0.303039
 H   -1.803357   -2.745113   -2.758595
 H    1.996801   -4.259550   -1.925007
 H    1.295469   -2.586884    1.173111
 H    2.084618   -1.399194    0.090208
 H    2.628941   -3.085803    0.115579
 H   -1.688603    0.990707   -2.591716
 H   -0.242603    0.511936   -1.707797
 H   -1.049695    1.688788    0.319486
 H   -0.825375    3.446671   -2.166926
 H   -0.890199    4.052859   -0.506678
 H    1.290872    2.663296   -3.059944
 H    3.689968    2.072997   -2.724532
 H    0.824481    3.140789    1.184132
 H    3.235031    2.561971    1.499832
 H    7.127528    1.297653   -0.505383
 H    7.094886   -1.214091   -1.222536
 H    6.472318   -1.433398    0.403573
 H    8.106096    0.205098    2.128290
 H   10.420078    0.080778    3.004682
 H   12.193285   -1.049386    1.684701
 H   11.633255   -2.063242   -0.514062
 H    9.314950   -1.946069   -1.375308
