22 
4guj_ligand_ani.xyz
 O   -3.048551   -0.361987   -0.331574
 C   -1.677854   -0.126542   -0.587106
 C   -1.153142    0.990619    0.302355
 O   -2.002819    2.107791    0.062981
 C    0.310235    1.274312   -0.024220
 C    1.110344   -0.004205   -0.098323
 C    2.582286    0.180513   -0.000602
 O    3.122945    1.243757    0.201239
 O    3.288243   -0.961483   -0.154042
 C    0.557051   -1.212176   -0.255292
 C   -0.930402   -1.427887   -0.284705
 O   -1.326664   -1.912495    0.984262
 H   -3.445556    0.515178   -0.212215
 H   -1.532187    0.157981   -1.641849
 H   -1.245871    0.659585    1.348068
 H   -1.895911    2.731497    0.790387
 H    0.366926    1.809380   -0.982217
 H    0.764861    1.939806    0.716785
 H    4.218887   -0.699410   -0.066375
 H    1.171993   -2.106420   -0.314455
 H   -1.169557   -2.177644   -1.055736
 H   -2.289916   -1.802427    1.002041
