36 
4gw8_ligand_dft.xyz
 C    4.252647   -1.688140   -0.122862
 C    4.227476   -3.076419   -0.126215
 C    3.012473   -3.754088   -0.145838
 C    1.827997   -3.024308   -0.165952
 C    1.835321   -1.633458   -0.168850
 C    3.059402   -0.959831   -0.141933
 N    3.194005    0.449607   -0.149871
 C    2.308072    1.443554   -0.025065
 N    0.916382    1.142961    0.149100
 C    0.382408    2.302530    0.225425
 C    1.480978    3.386534    0.099351
 N    2.674968    2.701059   -0.054701
 O    1.276711    4.576308    0.131299
 C   -1.059613    2.608883    0.433440
 C   -2.000325    1.468408    0.128019
 C   -1.980512    0.313073    0.934257
 C   -2.837515   -0.704713    0.593833
 C   -3.702867   -0.612625   -0.491233
 C   -3.746187    0.506448   -1.287502
 C   -2.868523    1.551402   -0.955580
 O   -3.023094   -1.904263    1.222709
 C   -3.880256   -2.649957    0.367520
 O   -4.455908   -1.750566   -0.571173
 H    5.206047   -1.165512   -0.101518
 H    5.163286   -3.626353   -0.111124
 H    2.989569   -4.839089   -0.146527
 H    0.872554   -3.539932   -0.182814
 H    0.908193   -1.077016   -0.182852
 H    4.140150    0.796415   -0.248460
 H   -1.296565    3.498373   -0.161152
 H   -1.161027    2.936226    1.479378
 H   -1.307921    0.222245    1.779719
 H   -4.425386    0.577187   -2.129055
 H   -2.868958    2.448131   -1.568419
 H   -4.672198   -3.111934    0.960416
 H   -3.292765   -3.409729   -0.166853
