36 
4gw8_ligand_ani.xyz
 C   92.138245   27.399490   19.473163
 C   93.305774   27.208536   20.198839
 C   94.184151   26.187618   19.849691
 C   93.874070   25.367591   18.770250
 C   92.705012   25.542498   18.032536
 C   91.825751   26.568780   18.389724
 N   90.629404   26.837883   17.706576
 C   89.952659   26.121355   16.765369
 N   90.391793   24.918301   16.243252
 C   89.442142   24.587096   15.401632
 C   88.365287   25.663415   15.396207
 N   88.810531   26.609582   16.321365
 O   87.346574   25.689575   14.740010
 C   89.484748   23.493335   14.428239
 C   89.921631   24.044098   13.082654
 C   91.264729   24.412845   12.902579
 C   91.620952   24.915699   11.674389
 C   90.692575   25.088977   10.653266
 C   89.366376   24.767959   10.816419
 C   88.997225   24.238395   12.063353
 O   92.846405   25.358449   11.256980
 C   92.702802   25.609877    9.862502
 O   91.311633   25.642778    9.563979
 H   91.452132   28.197393   19.748554
 H   93.528891   27.861950   21.038651
 H   95.100910   26.031483   20.411174
 H   94.554510   24.566595   18.489966
 H   92.480401   24.894301   17.194379
 H   90.138011   27.675939   17.980890
 H   90.182287   22.721074   14.780499
 H   88.492351   23.035676   14.335441
 H   91.986102   24.315210   13.709186
 H   88.644835   24.917928   10.019445
 H   87.955249   23.978332   12.234659
 H   93.149149   26.577498    9.621103
 H   93.182705   24.801490    9.292080
