36 
4gw8_ligand_xtb.xyz
 C    3.986522   -1.969404   -0.220404
 C    3.797050   -3.337235   -0.249246
 C    2.517617   -3.864528   -0.176963
 C    1.430025   -3.012286   -0.077223
 C    1.604986   -1.641170   -0.048924
 C    2.891328   -1.110864   -0.119499
 N    3.152480    0.258242   -0.092539
 C    2.331147    1.298102    0.005831
 N    0.926973    1.145088    0.102943
 C    0.475015    2.338148    0.186782
 C    1.670929    3.327556    0.135316
 N    2.774804    2.528223    0.023044
 O    1.596674    4.528867    0.183566
 C   -0.934886    2.743384    0.320104
 C   -1.882095    1.606468    0.049868
 C   -1.876899    0.503076    0.909772
 C   -2.711373   -0.540528    0.602582
 C   -3.547227   -0.508924   -0.515474
 C   -3.566960    0.570997   -1.361721
 C   -2.711774    1.629218   -1.058581
 O   -2.886836   -1.726450    1.266856
 C   -3.863164   -2.437592    0.537143
 O   -4.268778   -1.672556   -0.576701
 H    4.984950   -1.558817   -0.275396
 H    4.650730   -3.993374   -0.327581
 H    2.371356   -4.933590   -0.198388
 H    0.430674   -3.416147   -0.018505
 H    0.759540   -0.977765    0.026742
 H    4.129191    0.525546   -0.151667
 H   -1.112567    3.589144   -0.349678
 H   -1.061997    3.122647    1.341336
 H   -1.233839    0.467462    1.772605
 H   -4.212508    0.594538   -2.223180
 H   -2.701115    2.488449   -1.711941
 H   -4.733243   -2.638800    1.183052
 H   -3.440887   -3.395562    0.192524
