45 
4gzp_ligand_xtb.xyz
 C   -3.931025    0.222608   -0.152321
 O   -4.119916    1.529919   -0.303593
 O   -4.822086   -0.574943   -0.020780
 C   -2.492566   -0.171142   -0.162257
 C   -2.257855   -1.640037    0.042090
 C   -0.819056   -2.081004   -0.236924
 C    0.160542   -1.056959    0.347340
 N    1.590199   -1.306784    0.172264
 C    2.334897   -2.402218    0.110542
 O    1.880032   -3.563072    0.128196
 C    3.809635   -2.182834    0.009485
 C   -0.066226    0.313124   -0.338831
 C   -1.512048    0.710739   -0.314351
 O    0.769913    1.224076    0.328541
 C    1.192762    2.374845   -0.421817
 C    2.520259    2.073970   -1.136044
 C    1.286310    3.549015    0.552894
 C   -0.088283    4.012966    1.019293
 C    3.687395    1.858966   -0.176253
 N   -0.594239   -3.421220    0.346333
 H   -5.068064    1.741599   -0.290738
 H   -2.958910   -2.192860   -0.587343
 H   -2.522631   -1.869342    1.080081
 H   -0.647008   -2.159094   -1.315328
 H   -0.039106   -0.925318    1.419680
 H    2.079873   -0.413101    0.211405
 H    4.202850   -1.912870    0.989013
 H    4.047457   -1.383709   -0.687143
 H    4.290364   -3.104465   -0.307231
 H    0.243991    0.220824   -1.396595
 H   -1.726441    1.760884   -0.433290
 H    0.433826    2.604047   -1.181294
 H    2.745737    2.903304   -1.806101
 H    2.384535    1.183920   -1.759955
 H    1.873263    3.237696    1.416347
 H    1.804484    4.369568    0.056646
 H   -0.684658    4.361459    0.178596
 H    0.015009    4.832085    1.724991
 H   -0.616112    3.200357    1.512821
 H    4.001171    2.802315    0.259618
 H    3.408813    1.191481    0.638138
 H    4.538303    1.435694   -0.704586
 H   -0.869691   -3.446956    1.329253
 H   -1.119670   -4.137807   -0.153465
 H    0.598906   -3.623762    0.260307
