88 
4gzw_ligand_xtb.xyz
 C    3.519385    1.991200    1.328728
 C    3.221021    1.571279   -0.133980
 C    4.390599    1.974481   -1.049926
 C    5.564788    0.993519   -0.981137
 C    5.039568   -0.439910   -1.158622
 C    3.988803   -0.724356   -0.071840
 C    3.427553   -2.160490   -0.181352
 C    2.172945   -2.346498    0.684678
 C    1.813178   -3.840241    0.788542
 C    6.915341   -1.633905   -0.066621
 C    8.122536   -2.487799   -0.389100
 N    6.121523   -1.405802   -1.153832
 O    2.852140    2.774698    1.948309
 O    4.610577    1.421444    1.814192
 O    6.482811    1.227877   -2.030210
 O    2.918922    0.195309   -0.221301
 O    3.072733   -2.516323   -1.493888
 O    2.392550   -1.822258    1.972597
 O    0.741682   -4.025681    1.678161
 O    6.660676   -1.230727    1.044988
 C   -5.568969   -2.089313   -0.048212
 C   -5.851002   -0.558060    0.013575
 C   -4.719552    0.199926   -0.691861
 C   -3.364270   -0.224455   -0.130096
 C   -3.222238   -1.746850   -0.242695
 C   -1.916871   -2.217140    0.403381
 C   -8.321103   -0.627971   -0.578496
 C   -9.349021    0.243324   -1.263911
 N   -7.073589   -0.125574   -0.645491
 O   -6.396454   -2.832013    0.752684
 O   -4.914654    1.585361   -0.536173
 O   -2.345723    0.434181   -0.862533
 O   -4.282934   -2.366002    0.447045
 O   -1.762468   -3.611192    0.333513
 O   -8.615254   -1.687078   -0.050678
 C   -1.440874    1.156506   -0.108031
 C   -0.102890    1.237238   -0.857510
 C    0.852651    2.039389    0.038603
 C    0.236159    3.420334    0.334624
 C   -1.168058    3.254086    0.931228
 C   -1.899785    4.596216    1.054447
 O    0.316521   -0.073905   -1.089295
 O    2.106814    2.260798   -0.617495
 O    0.157475    4.181872   -0.842504
 O   -1.992250    2.428501    0.125584
 O   -3.138363    4.453190    1.691478
 H    4.002885    1.983240   -2.071610
 H    4.709655    2.986703   -0.794039
 H    6.070534    1.060180   -0.009107
 H    4.550506   -0.494920   -2.137985
 H    4.439254   -0.628786    0.920155
 H    4.216889   -2.823294    0.202004
 H    1.341904   -1.816114    0.199280
 H    2.665009   -4.379647    1.216866
 H    1.597613   -4.235874   -0.207108
 H    8.826304   -1.912014   -0.986959
 H    8.606614   -2.785880    0.536003
 H    7.828356   -3.372167   -0.948506
 H    6.546698   -1.561721   -2.055123
 H    4.748989    1.654399    2.749327
 H    6.842608    2.116736   -1.941375
 H    3.874413   -2.658491   -2.007794
 H    1.841258   -2.357139    2.565048
 H   -0.095834   -3.883589    1.204298
 H   -5.628286   -2.403147   -1.116570
 H   -5.874674   -0.273449    1.075696
 H   -4.735665   -0.056338   -1.765416
 H   -3.323589    0.058340    0.929799
 H   -3.232625   -2.032271   -1.306109
 H   -1.077354   -1.768284   -0.133028
 H   -1.912498   -1.891610    1.453562
 H  -10.311917   -0.258396   -1.241645
 H   -9.060928    0.428877   -2.295685
 H   -9.430542    1.196515   -0.746170
 H   -6.975155    0.807655   -1.022218
 H   -7.331372   -2.559926    0.572622
 H   -4.053790    2.009232   -0.678512
 H   -2.590458   -4.005128    0.640453
 H   -1.247235    0.657009    0.863515
 H   -0.257659    1.773873   -1.804914
 H    1.007519    1.485265    0.968378
 H    0.872550    3.929063    1.074427
 H   -1.065548    2.791489    1.926732
 H   -2.010881    5.014132    0.047269
 H   -1.308886    5.278857    1.666482
 H    1.288551   -0.094270   -1.114231
 H    1.002046    4.078953   -1.299455
 H   -3.648574    3.794134    1.204611
