55 
4h3c_ligand_ani.xyz
 O   -7.212073    2.377372    1.052822
 C   -6.870660    1.142184    0.649452
 O   -6.918989    0.178634    1.374616
 C   -6.496549    1.100197   -0.828698
 O   -7.672815    0.858180   -1.579918
 C   -5.533642   -0.036330   -1.098116
 C   -4.191944    0.212607   -0.432279
 O   -4.009450    1.249434    0.181177
 C   -3.099896   -0.807135   -0.522678
 C   -1.894930   -0.513550    0.122271
 C   -3.250322   -2.006552   -1.213339
 C   -2.197643   -2.917325   -1.252362
 C   -1.001126   -2.640250   -0.610507
 C   -0.848604   -1.429850    0.079324
 O    0.361146   -1.246418    0.674995
 C    0.586192   -0.016315    1.341794
 C    1.989534   -0.033183    1.919554
 C    3.076043   -0.199144    0.860063
 C    4.482807   -0.181794    1.452107
 C    5.577001   -0.393324    0.408071
 C    6.981535   -0.434971    1.010624
 C    8.089742   -0.741460   -0.003145
 C    8.199635    0.249619   -1.166903
 C    8.436098    1.697359   -0.735138
 C    8.662207    2.637469   -1.916215
 H   -7.470558    2.293106    1.985848
 H   -6.028819    2.054353   -1.095811
 H   -8.245074    1.628713   -1.472476
 H   -5.968045   -0.975347   -0.733799
 H   -5.411256   -0.141955   -2.182700
 H   -1.816374    0.437339    0.640741
 H   -4.185335   -2.230299   -1.719995
 H   -2.316356   -3.853666   -1.790416
 H   -0.170129   -3.338515   -0.628017
 H    0.467315    0.812339    0.628410
 H   -0.156799    0.111688    2.141130
 H    2.139030    0.903551    2.472574
 H    2.057560   -0.850679    2.649141
 H    2.909316   -1.142800    0.326475
 H    2.979854    0.599405    0.109954
 H    4.652485    0.774018    1.970971
 H    4.559043   -0.964469    2.221740
 H    5.388712   -1.334592   -0.129868
 H    5.513731    0.404047   -0.345998
 H    7.192317    0.518847    1.515120
 H    7.006325   -1.200836    1.798203
 H    7.929365   -1.749595   -0.410937
 H    9.052151   -0.775984    0.526872
 H    7.294481    0.197413   -1.788570
 H    9.026954   -0.064943   -1.818057
 H    7.580405    2.053208   -0.146729
 H    9.304293    1.731627   -0.062511
 H    7.791348    2.648635   -2.582485
 H    8.839686    3.664991   -1.581853
 H    9.528949    2.323289   -2.509775
