52 
4h3g_ligand_xtb.xyz
 C   -0.907008    0.160304    0.363808
 C   -1.152681    1.140182   -0.785567
 N   -0.324597    2.909966    0.672536
 C   -0.685587    2.181998    1.802150
 C   -0.454828    2.474017   -0.609793
 N   -1.113942    0.892827    1.601396
 C    0.448948   -0.476872    0.342383
 N   -3.122900   -0.061599   -0.383769
 C   -2.056393   -0.846464    0.189083
 C   -2.679470    1.259862   -0.788073
 C    1.580982   -0.027188   -0.259823
 C    2.716088   -0.846331   -0.006782
 S    0.748879   -1.925535    1.252111
 C    2.401495   -1.901911    0.801236
 C   -4.411633   -0.429108   -0.525336
 N    8.532259   -1.413161    0.935978
 N   -0.617816    2.773226    2.920003
 C    4.047162   -0.585021   -0.552117
 C   -4.911842   -1.719538   -0.200475
 C    7.600815   -1.097323    0.347450
 O   -0.052477    3.108674   -1.561073
 C   -6.273052   -1.959564   -0.391506
 C    5.187048   -0.961449    0.150652
 C    0.237281    4.226004    0.915689
 C    6.449849   -0.710266   -0.378848
 N   -5.218116    0.519389   -1.013942
 C    4.195169    0.046220   -1.787971
 C   -6.497117    0.261076   -1.188944
 C    5.452067    0.294757   -2.310520
 C   -7.086620   -0.959113   -0.889817
 C    6.586739   -0.078928   -1.615566
 C   -4.126352   -2.780818    0.283571
 N   -3.546422   -3.692623    0.675031
 H   -0.816820    0.705113   -1.730166
 H   -1.180560    0.328397    2.437065
 H   -1.752778   -1.659436   -0.482667
 H   -2.346072   -1.285311    1.147966
 H   -3.086338    1.513815   -1.767614
 H   -3.023188    2.013215   -0.069252
 H    1.621678    0.869568   -0.851253
 H    3.041275   -2.692653    1.139129
 H   -0.875676    2.207141    3.719463
 H   -6.671492   -2.934231   -0.148262
 H    5.101091   -1.435313    1.117103
 H    1.130394    4.135488    1.531565
 H   -0.488681    4.837294    1.448301
 H    0.479996    4.667344   -0.047837
 H    3.319263    0.331093   -2.350493
 H   -7.077802    1.081831   -1.589128
 H    5.546351    0.782818   -3.268846
 H   -8.140036   -1.121614   -1.045267
 H    7.571504    0.111283   -2.014942
