55 
4h3i_ligand_dft.xyz
 C   -5.908673    1.709302    0.705102
 C   -6.967283    0.813743    0.783962
 C   -6.743256   -0.532007    0.477586
 C   -5.473167   -0.972691    0.098510
 C   -4.411022   -0.071460    0.009620
 C   -4.645205    1.273307    0.320860
 C   -3.069092   -0.526980   -0.405963
 C   -1.846053    0.011228    0.111723
 C   -0.729783   -0.558542   -0.424246
 S   -1.156796   -1.765379   -1.596293
 C   -2.835749   -1.501637   -1.336346
 C    0.718261   -0.257986   -0.131860
 C    0.912675    0.735048    1.016290
 C    0.608620    2.158667    0.605782
 N    0.940271    2.488327   -0.690251
 C    1.558360    1.596106   -1.590425
 N    1.413688    0.255099   -1.306046
 N    2.169009    2.094107   -2.595697
 C    1.523409   -1.451321    0.402130
 C    0.789145    3.872535   -1.125643
 O    0.099077    2.948591    1.380746
 C   -7.823598   -1.476690    0.564124
 N   -8.693993   -2.239114    0.631763
 C    2.378687    0.501384    1.465889
 N    2.724271   -0.843458    0.959892
 C    6.312621   -0.658549    0.167612
 C    5.131545   -0.554143    0.878751
 C    3.928873   -0.969205    0.263212
 C    5.075676   -1.613414   -1.627296
 C    6.293994   -1.199378   -1.118083
 C    4.942819   -0.995154    3.169830
 O    5.140327   -0.030132    2.142272
 N    3.919429   -1.488869   -0.964677
 H   -6.070064    2.757076    0.936603
 H   -7.957029    1.143498    1.080744
 H   -5.312572   -2.026423   -0.105667
 H   -3.832444    1.989756    0.244511
 H   -1.816120    0.792378    0.863663
 H   -3.566713   -2.052524   -1.913093
 H    0.236602    0.496183    1.839211
 H    2.135340   -0.348084   -1.685847
 H    2.508116    1.354081   -3.207985
 H    0.947333   -1.946813    1.192417
 H    1.776473   -2.185901   -0.362756
 H    0.191928    4.387753   -0.375842
 H    0.295065    3.893595   -2.097800
 H    1.767306    4.347739   -1.225894
 H    3.056221    1.247826    1.041728
 H    2.461355    0.561334    2.553879
 H    7.233335   -0.327645    0.637633
 H    5.004442   -2.052451   -2.619099
 H    7.203511   -1.301735   -1.699027
 H    3.972040   -1.491974    3.062732
 H    4.978011   -0.448665    4.113355
 H    5.741802   -1.746246    3.151444
