52 
4h3j_ligand_ani.xyz
 C    2.507664   -2.664052   -0.794699
 N    2.253316   -3.154818    0.481439
 C    1.780572   -2.389884    1.555610
 N    1.706307   -1.014798    1.334083
 N    1.494033   -2.988973    2.645035
 C    2.424759   -4.585585    0.725042
 O    2.799291   -3.401846   -1.717217
 C    2.417608   -1.173317   -0.967474
 C    1.417623   -0.506835   -0.018260
 C    1.871089    0.971842   -0.079513
 N    3.289370    0.914305   -0.381794
 C    3.733786   -0.432005   -0.686376
 C   -0.027308   -0.705635   -0.410730
 C   -0.572233   -1.507690   -1.374222
 C   -1.994202   -1.435148   -1.419109
 C   -2.525308   -0.577897   -0.493720
 S   -1.264871    0.131810    0.465563
 C   -3.941029   -0.223802   -0.302104
 C   -4.328296    1.104229   -0.099694
 C   -5.669759    1.436801    0.068075
 C   -6.625699    0.421505    0.035109
 C   -6.270423   -0.900806   -0.166670
 C   -4.928305   -1.214710   -0.341896
 C   -6.070548    2.798843    0.272535
 N   -6.383073    3.900914    0.436128
 F   -7.908096    0.742405    0.201504
 C    4.147768    1.972309   -0.186350
 C    3.651123    3.267743    0.043255
 C    4.522541    4.332849    0.229466
 C    5.900221    4.145385    0.192136
 C    6.397862    2.867305   -0.038611
 C    5.541412    1.790636   -0.228477
 H    1.128016   -0.567029    2.032002
 H    1.177175   -2.334411    3.359688
 H    1.469205   -5.037846    1.000950
 H    2.804463   -5.024782   -0.194697
 H    3.126725   -4.738708    1.547156
 H    2.128265   -0.981232   -2.000945
 H    1.312146    1.512355   -0.855719
 H    1.690787    1.466130    0.882051
 H    4.257593   -0.885370    0.167451
 H    4.404321   -0.453263   -1.553288
 H    0.022131   -2.140720   -2.028981
 H   -2.607479   -1.974885   -2.133174
 H   -3.588041    1.896422   -0.086761
 H   -7.044817   -1.659104   -0.187086
 H   -4.644457   -2.251705   -0.496618
 H    2.579172    3.440823    0.069410
 H    4.112525    5.324301    0.408853
 H    6.575864    4.982913    0.339901
 H    7.471989    2.698966   -0.073739
 H    5.955720    0.802413   -0.405449
