26 
4h42_ligand_dft.xyz
 O    5.873525   -1.139669    0.161874
 C    4.532497   -1.088168    0.218260
 O    3.892121   -2.032489    0.598479
 C    3.909508    0.226944   -0.219279
 N    2.480491    0.110084   -0.165755
 C    1.709561    1.233618   -0.249820
 O    2.213923    2.332212   -0.441057
 C    0.233568    1.041370   -0.098107
 C   -0.528695    2.165087    0.255297
 C   -0.389676   -0.188701   -0.312754
 C   -1.764815   -0.266386   -0.146679
 S   -2.818124   -1.654020   -0.345149
 C   -2.537784    0.852682    0.224062
 C   -1.899632    2.080295    0.423022
 N   -3.899117    0.635775    0.339771
 C   -4.179994   -0.598398    0.076498
 N   -5.435139   -1.124722    0.164612
 H    6.235440   -0.302323   -0.159856
 H    4.246470    0.475110   -1.235166
 H    4.262320    1.039374    0.432464
 H    2.131373   -0.749935    0.235659
 H   -0.010489    3.108126    0.391063
 H    0.174546   -1.058795   -0.634254
 H   -2.490435    2.946164    0.701375
 H   -5.656253   -1.936594   -0.390858
 H   -6.170428   -0.435248    0.234209
