19 
4h7q_ligand_ani.xyz
 C   85.098436   55.635293   -9.633510
 O   85.524146   55.453206   -8.524200
 O   83.792261   55.747422   -9.934368
 C   85.954250   55.821695  -10.897138
 O   86.817043   55.021055  -11.161709
 C   85.641886   57.043064  -11.726885
 C   85.488542   58.331101  -10.905797
 C   86.706464   58.571072  -10.012218
 C   85.248108   59.515733  -11.838968
 H   83.307822   55.633412   -9.099553
 H   86.452340   57.140972  -12.456753
 H   84.712021   56.846843  -12.277133
 H   84.606184   58.211402  -10.262159
 H   86.590201   59.500841   -9.444544
 H   86.853767   57.755408   -9.295566
 H   87.620576   58.657446  -10.614446
 H   85.111584   60.443572  -11.272601
 H   86.103769   59.656900  -12.511550
 H   84.355599   59.362564  -12.455901
