19 
4h7q_ligand_xtb.xyz
 C   -1.679802   -0.266455   -0.056953
 O   -1.814219   -1.391405   -0.446679
 O   -2.552853    0.393016    0.688268
 C   -0.441727    0.613017   -0.374601
 O   -0.454048    1.743290    0.064595
 C    0.644083   -0.030146   -1.159875
 C    1.812926   -0.461464   -0.237217
 C    2.557520    0.753890    0.303711
 C    1.308200   -1.348429    0.897903
 H   -2.194904    1.295050    0.847568
 H    1.028856    0.678726   -1.894879
 H    0.237038   -0.910618   -1.658332
 H    2.498873   -1.046376   -0.859009
 H    1.885200    1.405455    0.856841
 H    3.353199    0.436096    0.973214
 H    2.999971    1.328399   -0.506864
 H    2.147542   -1.789404    1.430508
 H    0.723034   -0.768089    1.609562
 H    0.682941   -2.150917    0.514116
