20 
4h85_ligand_dft.xyz
 C   -0.574022    0.116744    0.330749
 C    0.577770   -0.524230   -0.452871
 C    1.973604    0.044352   -0.163620
 C    3.007675   -0.699787   -1.012861
 C    2.334683   -0.028487    1.321949
 C   -1.879080   -0.588262   -0.012944
 O   -1.951965   -1.749046    0.669836
 O   -2.715701   -0.227860   -0.795755
Cl   -0.715577    1.871274   -0.004165
 H   -0.406278    0.014902    1.404208
 H    0.357605   -0.434199   -1.523420
 H    0.567955   -1.595033   -0.206849
 H    1.978576    1.098221   -0.467215
 H    4.005917   -0.272565   -0.871377
 H    3.054758   -1.760129   -0.734819
 H    2.765418   -0.641282   -2.079703
 H    1.691335    0.612606    1.934046
 H    2.250309   -1.056553    1.696905
 H    3.366280    0.301343    1.482819
 H   -2.769534   -2.185694    0.381148
