33 
4hbw_ligand_ani.xyz
 C   26.403328   17.865487   -5.152952
 C   26.647433   17.042451   -3.894811
 N   27.356521   15.810226   -4.245118
 S   27.557957   14.672226   -3.041796
 O   27.830315   13.428787   -3.742352
 O   26.469111   14.776259   -2.081385
 C   29.040171   15.214859   -2.250698
 C   28.968013   16.000312   -1.107196
 C   30.136670   16.453604   -0.512589
 C   30.159202   17.235714    0.776027
 N   31.314811   18.113463    0.840151
 C   31.253033   19.224857    1.766218
 C   32.545615   17.704914    0.390895
 O   33.596020   18.249834    0.688085
 N   32.519094   16.609911   -0.462324
 C   31.367126   16.115427   -1.076566
 C   31.439886   15.302614   -2.210329
 C   30.268816   14.851729   -2.799543
 H   25.926578   18.818514   -4.906542
 H   27.350518   18.072619   -5.659404
 H   25.743862   17.332472   -5.847386
 H   27.281278   17.593962   -3.189328
 H   25.708467   16.811111   -3.373855
 H   26.999494   15.323293   -5.062764
 H   27.997248   16.235095   -0.679361
 H   29.256912   17.851204    0.860325
 H   30.157951   16.541506    1.634848
 H   30.421269   19.886487    1.501418
 H   31.118695   18.888410    2.803848
 H   32.190995   19.776077    1.700565
 H   33.419363   16.393235   -0.860897
 H   32.406757   15.027775   -2.626563
 H   30.297488   14.212568   -3.676622
