37 
4hbx_ligand_ani.xyz
 C   50.470303    2.541092   21.655836
 C   50.103551    3.718383   22.304301
 C   50.473269    4.940233   21.763636
 C   52.985042   -0.198097   24.696785
 C   51.212299    4.967660   20.578241
 C   52.662594    6.292983   19.092449
 C   52.471624   -0.228013   22.323646
 C   53.229815   -1.005664   23.412665
 C   51.562225    0.339770   24.520656
 N   51.626813    6.172992   20.009343
 N   51.465487    0.520124   23.071046
 C   51.179306    2.569089   20.461690
 O   49.108119    1.220933   23.456608
 S   50.050086    0.979572   22.376669
 O   49.753591    0.055067   21.292721
 C   51.553067    3.787730   19.915963
 C   52.244745    3.920894   18.583709
 O   53.152529    7.379095   18.830056
 N   53.080683    5.108215   18.539987
 C   54.129676    5.145095   17.542533
 H   49.528662    3.658578   23.223187
 H   50.194029    5.868197   22.258072
 H   53.089151   -0.799294   25.604223
 H   53.687021    0.640539   24.767287
 H   51.987830   -0.884218   21.591583
 H   53.121414    0.471604   21.779243
 H   52.807619   -2.012748   23.508635
 H   54.291700   -1.114134   23.175655
 H   51.387945    1.293178   25.028203
 H   50.799355   -0.372242   24.863961
 H   51.407126    7.038080   20.477975
 H   51.411993    1.635621   19.954274
 H   51.494498    3.951761   17.773840
 H   52.880599    3.048475   18.398806
 H   54.655271    6.095400   17.635296
 H   54.832318    4.321404   17.708354
 H   53.729644    5.066646   16.521866
