37 
4hby_ligand_ani.xyz
 C    6.130062    4.100376   22.113722
 C    9.044977    3.810782   18.972675
 C    6.451602    2.848911   21.588075
 C    7.923241    0.686183   23.581223
 C    8.552151    0.044782   22.514240
 C    8.659769    1.019171   24.720059
 C   10.018792    0.738371   24.780831
 C   10.656111    0.113384   23.713395
 C    9.913955   -0.230904   22.588611
 C    7.403817    2.720889   20.583316
 C    8.064905    3.847089   20.117333
 N    8.472533    6.198981   20.184014
 N    6.540576    0.982066   23.575336
 C    6.788487    5.228769   21.651985
 O   10.379992    7.116429   19.351771
 C    9.688317    6.125071   19.517220
 C    7.767402    5.094455   20.664729
 N   10.034852    4.867304   19.090780
 C   11.269032    4.705735   18.350863
 S    5.643983    1.410239   22.234954
 O    4.364935    1.810598   22.791005
 O    5.761758    0.352255   21.247892
 H    5.357343    4.182323   22.872344
 H    8.504587    3.898455   18.013532
 H    9.570914    2.850016   18.957374
 H    7.976581   -0.251977   21.645166
 H    8.164470    1.507802   25.556482
 H   10.581413    1.010245   25.670419
 H   11.718987   -0.106911   23.759276
 H   10.395695   -0.727496   21.750205
 H    7.611407    1.743916   20.155436
 H    8.288135    7.108624   20.577426
 H    6.169831    1.401204   24.419418
 H    6.546861    6.210264   22.054139
 H   11.895867    5.577386   18.538560
 H   11.790056    3.802234   18.685479
 H   11.092603    4.629979   17.268716
