24 
4hco_ligand_ani.xyz
 C   -2.911713  -12.995709   -2.171418
 C   -4.174392  -12.682786   -2.506553
 C   -4.551063  -12.101723   -3.807293
 C   -3.454969  -11.862864   -4.773723
 C   -2.187013  -12.175706   -4.440441
 C   -1.813454  -12.753697   -3.145716
 C   -2.541681  -13.585530   -0.846877
 C   -3.786616  -11.274213   -6.109395
 C   -3.408612  -12.236862   -7.244050
 O   -0.648623  -13.021335   -2.887786
 O   -5.719435  -11.838139   -4.053097
 C   -3.084745   -9.922808   -6.304615
 H   -4.992551  -12.848298   -1.816948
 H   -1.359332  -12.016357   -5.118342
 H   -1.462395  -13.749353   -0.816156
 H   -2.820082  -12.923373   -0.016169
 H   -3.047526  -14.544960   -0.674709
 H   -4.871277  -11.116760   -6.123285
 H   -3.627702  -11.789104   -8.220247
 H   -2.339937  -12.479367   -7.215340
 H   -3.965985  -13.176281   -7.164713
 H   -3.308779   -9.510132   -7.295047
 H   -3.409259   -9.198582   -5.549859
 H   -1.996859  -10.028063   -6.220222
