71 
4hcv_ligand_ani.xyz
 C    7.410654    0.259315    0.675974
 C    5.221577   -1.019085   -0.420118
 C    6.185703    0.911461    0.649354
 C   -1.258988   -3.306583   -0.849026
 C    7.576450   -1.027170    0.159184
 C   -5.837092   -1.031897    2.430076
 C   -4.412294   -0.838119    1.913726
 C    1.030905    1.575086    0.148998
 C    3.478700    2.187892    0.225489
 C   -2.142590   -1.329814   -0.398446
 C   -7.690154   -0.017949   -0.338683
 C    9.981636   -0.945958   -0.595657
 C    0.375266    4.089919   -0.785795
 C   -0.609143    3.106007   -0.720612
 C    1.695064    3.800807   -0.445874
 C    6.455876   -1.651938   -0.388379
 C   -0.924579   -0.672610   -0.605459
 C   -0.267071    1.825320   -0.287249
 C    2.036463    2.522051   -0.012805
 C    5.074406    0.272307    0.095633
 C   -1.216568    0.704348   -0.315535
 C    0.135855   -1.501615   -1.044737
 C   -6.723733    0.132538    1.983334
 C   -5.342948    0.529683    0.007587
 C   -4.408386   -0.620900    0.393657
 C  -10.103705   -0.571958   -0.826833
 C    9.392573   -1.976552    1.629496
 C   -9.058406   -0.334891    0.253149
 C    8.921309   -1.725416    0.191530
 N   -2.349191   -2.654344   -0.487826
 N   -0.039737   -2.816297   -1.138648
 N   -2.494823    0.858147   -0.020738
 N   -3.055927   -0.373353   -0.087688
 N   -6.678360    0.289471    0.536527
 N    1.380811   -0.981097   -1.350937
 N    3.796569    0.861819    0.047775
 O    4.286527    3.057141    0.513283
 O   -7.512428   -0.027888   -1.547263
 H    8.256614    0.787135    1.114792
 H    4.363398   -1.529847   -0.852755
 H    6.085245    1.912703    1.044450
 H   -1.355074   -4.387209   -0.935102
 H   -5.842331   -1.105183    3.524072
 H   -6.249744   -1.973891    2.044019
 H   -3.948240    0.035494    2.394499
 H   -3.785233   -1.709508    2.135229
 H    1.231416    0.621406    0.627080
 H    9.692832   -0.827521   -1.645322
 H   10.127492    0.055375   -0.174275
 H   10.945420   -1.466797   -0.561906
 H    0.114175    5.090193   -1.121493
 H   -1.636377    3.319500   -1.004514
 H    2.474015    4.555018   -0.514941
 H    6.557032   -2.656359   -0.795959
 H   -7.755103    0.006611    2.319706
 H   -6.347045    1.061645    2.435305
 H   -5.427095    0.611957   -1.077603
 H   -4.934358    1.466032    0.408090
 H   -4.745310   -1.540182   -0.092420
 H  -10.220620    0.313385   -1.457768
 H   -9.811003   -1.400478   -1.477233
 H  -11.073340   -0.807382   -0.376672
 H    9.490654   -1.033646    2.180175
 H    8.687130   -2.611057    2.176203
 H   10.371030   -2.470491    1.632491
 H   -9.367707    0.493244    0.904099
 H   -8.969597   -1.220967    0.895149
 H    8.795472   -2.701561   -0.294181
 H    1.310057   -0.075643   -1.808868
 H    1.928304   -1.641248   -1.898062
 H    3.069007    0.239147   -0.295561
