82 
4hdp_ligand_xtb.xyz
 C   -6.616259   -0.097849   -0.483625
 C   -5.968461    0.065786   -1.713070
 C   -4.727776   -0.494304   -1.926745
 C   -4.130092   -1.233830   -0.921479
 C   -4.764593   -1.419314    0.289361
 C   -6.004782   -0.849709    0.518841
 S   -2.522349   -1.974991   -1.183601
 O   -1.934508   -1.331655   -2.333718
 O   -2.643439   -3.400653   -1.207728
 N   -1.655257   -1.549389    0.151683
 C   -1.304326   -2.515655    1.162902
 C    0.211790   -2.715568    1.314721
 C    0.808155   -3.211479    0.000741
 C    0.482101   -3.714200    2.437129
 C   -1.551733   -0.137477    0.415716
 C   -0.291405    0.487105   -0.217794
 O   -0.477208    0.827520   -1.564101
 C    0.187225    1.741832    0.554218
 N    1.621975    1.890034    0.392219
 C    2.444619    1.103547    1.121738
 O    2.129434    0.500382    2.117808
 O    3.703861    1.115035    0.611346
 C    4.640853    0.329930    1.330954
 C    4.375910   -1.182604    1.171561
 O    5.650320   -1.786738    1.215229
 C    6.515904   -0.956250    0.517221
 O    6.383929   -1.151114   -0.871714
 C    6.382342    0.062642   -1.578000
 C    6.195832    1.214609   -0.550420
 C    6.079469    0.504823    0.795914
 C   -0.511690    3.027192    0.101457
 C   -2.860870    2.844711   -0.768836
 C   -4.227593    2.750478   -0.573496
 C   -4.748334    2.757314    0.708687
 C   -3.896212    2.872349    1.793938
 C   -2.530644    2.975482    1.596289
 C   -1.997025    2.955490    0.313204
 O   -7.818593    0.511063   -0.367303
 C   -8.530719    0.391499    0.843423
 O    7.588438    0.292839   -2.245036
 C    8.425508    1.061562   -1.402166
 C    7.474769    2.044639   -0.713150
 H   -6.465216    0.639046   -2.479419
 H   -4.204466   -0.368957   -2.860938
 H   -4.284157   -2.009872    1.053609
 H   -6.483345   -0.998665    1.473179
 H   -1.737329   -2.214565    2.126342
 H   -1.757966   -3.455897    0.843511
 H    0.667475   -1.757012    1.586363
 H    0.553958   -2.538601   -0.815274
 H    1.890911   -3.284182    0.075134
 H    0.407584   -4.192783   -0.243713
 H    0.084257   -3.351416    3.382114
 H    1.551970   -3.866650    2.552700
 H    0.019731   -4.672542    2.210740
 H   -2.436515    0.359741    0.005800
 H   -1.538232    0.015508    1.497652
 H    0.512211   -0.262899   -0.130503
 H   -0.925738    0.081139   -2.008690
 H    0.026203    1.572707    1.623022
 H    1.944527    2.174223   -0.520755
 H    4.585334    0.607213    2.389737
 H    3.769582   -1.601079    1.972611
 H    3.893893   -1.359970    0.201112
 H    7.533406   -1.206216    0.845253
 H    5.606783   -0.013389   -2.347490
 H    5.302669    1.799497   -0.757301
 H    6.706703    0.969771    1.554940
 H   -0.089801    3.859010    0.669748
 H   -0.300763    3.174826   -0.957358
 H   -2.455242    2.821435   -1.768708
 H   -4.888982    2.671816   -1.422857
 H   -5.815346    2.684259    0.858562
 H   -4.296600    2.889072    2.797390
 H   -1.871248    3.076533    2.446478
 H   -7.970008    0.815348    1.682248
 H   -8.780442   -0.651167    1.060744
 H   -9.448741    0.958903    0.700252
 H    8.928097    0.418064   -0.667274
 H    9.173028    1.539402   -2.035081
 H    7.867374    2.410197    0.232541
 H    7.285329    2.893558   -1.369771
