82 
4heg_ligand_ani.xyz
 C   -6.997202   -0.341132   -0.578724
 C   -6.067685    0.519975   -1.172897
 C   -4.757973    0.113472   -1.355364
 C   -4.364168   -1.153897   -0.929635
 C   -5.280497   -2.014452   -0.345570
 C   -6.600253   -1.611660   -0.163805
 S   -2.684332   -1.670405   -1.141499
 O   -2.137283   -0.877547   -2.243369
 O   -2.660272   -3.121076   -1.192587
 N   -1.897992   -1.198906    0.239788
 C   -1.646087   -2.150817    1.315585
 C   -0.169687   -2.530041    1.500743
 C    0.413229   -3.160051    0.232465
 C   -0.043911   -3.484819    2.689681
 C   -1.598902    0.212926    0.461476
 C   -0.245124    0.651864   -0.126909
 O   -0.360362    1.102038   -1.456965
 C    0.451666    1.752065    0.689680
 N    1.890042    1.728427    0.485502
 C    2.640260    0.774900    1.110934
 O    2.243599    0.026689    1.982240
 O    3.905682    0.776618    0.625631
 C    4.779226   -0.200081    1.225697
 C    4.469634   -1.614395    0.726564
 O    5.722890   -2.278576    0.716203
 C    6.671638   -1.357816    0.278710
 O    6.660299   -1.245229   -1.134174
 C    6.411330    0.089879   -1.553239
 C    6.512960    0.984272   -0.299448
 C    6.259563    0.023393    0.845046
 C   -0.062955    3.159074    0.361611
 C   -2.383537    3.418105   -0.604046
 C   -3.765852    3.490986   -0.458897
 C   -4.341699    3.474730    0.809048
 C   -3.525345    3.384311    1.932362
 C   -2.143803    3.307264    1.784336
 C   -1.555744    3.326652    0.516482
 O   -8.261072    0.144841   -0.454203
 C   -9.227782   -0.699835    0.129318
 O    7.391389    0.520564   -2.438652
 C    8.524236    0.871536   -1.655207
 C    7.953758    1.531595   -0.390715
 H   -6.413841    1.500491   -1.488110
 H   -4.033022    0.761838   -1.842209
 H   -4.967855   -3.010939   -0.044857
 H   -7.305479   -2.296275    0.294751
 H   -2.015532   -1.696747    2.244081
 H   -2.242843   -3.046320    1.115201
 H    0.403355   -1.619113    1.734266
 H    0.372062   -2.473796   -0.621821
 H    1.462314   -3.434805    0.390830
 H   -0.135278   -4.069384   -0.046449
 H   -0.431107   -3.032161    3.610089
 H    1.001735   -3.760400    2.865249
 H   -0.608281   -4.408488    2.504919
 H   -2.405898    0.834470    0.062751
 H   -1.583377    0.357034    1.547138
 H    0.414113   -0.233973   -0.092413
 H   -0.903722    0.449546   -1.935482
 H    0.304181    1.536557    1.754330
 H    2.245624    2.063186   -0.399368
 H    4.656606   -0.145295    2.310250
 H    3.792392   -2.155480    1.392270
 H    4.037869   -1.578632   -0.281403
 H    7.654885   -1.729761    0.584935
 H    5.452866    0.111430   -2.082658
 H    5.782212    1.792366   -0.320492
 H    6.832565    0.281619    1.744319
 H    0.473176    3.853522    1.019813
 H    0.225416    3.391283   -0.668310
 H   -1.935951    3.390601   -1.595583
 H   -4.398920    3.556448   -1.341382
 H   -5.421049    3.534819    0.923136
 H   -3.964681    3.373366    2.926472
 H   -1.509919    3.223416    2.667103
 H   -8.959153   -0.965174    1.160461
 H   -9.361138   -1.620814   -0.453754
 H  -10.161114   -0.134914    0.132321
 H    9.106815   -0.025540   -1.413439
 H    9.146050    1.542855   -2.253522
 H    8.556591    1.287242    0.489595
 H    7.947569    2.621129   -0.490768
