82 
4heg_ligand_xtb.xyz
 C   -6.613298   -0.093937   -0.514818
 C   -5.948078    0.067457   -1.735146
 C   -4.705922   -0.496060   -1.931367
 C   -4.124024   -1.235766   -0.917055
 C   -4.774558   -1.416513    0.285941
 C   -6.016620   -0.844352    0.497621
 S   -2.517131   -1.986554   -1.152573
 O   -1.914083   -1.362634   -2.305933
 O   -2.644162   -3.411932   -1.157993
 N   -1.671271   -1.545808    0.190515
 C   -1.290445   -2.506283    1.196263
 C    0.229406   -2.702027    1.312354
 C    0.793423   -3.205877   -0.012845
 C    0.530147   -3.691102    2.435470
 C   -1.562908   -0.132229    0.440030
 C   -0.308875    0.490218   -0.209225
 O   -0.511250    0.833410   -1.552559
 C    0.180579    1.742734    0.559667
 N    1.615292    1.884334    0.391786
 C    2.435011    1.084327    1.109904
 O    2.117486    0.469132    2.097782
 O    3.693935    1.096480    0.599022
 C    4.625914    0.293087    1.304676
 C    4.361339   -1.214636    1.104516
 O    5.635024   -1.820579    1.146712
 C    6.507985   -0.974206    0.477977
 O    6.391004   -1.136856   -0.916738
 C    6.416945    0.092748   -1.592663
 C    6.193273    1.220258   -0.545542
 C    6.068126    0.480595    0.784359
 C   -0.516093    3.030620    0.111150
 C   -2.867512    2.848366   -0.753420
 C   -4.233647    2.753525   -0.554710
 C   -4.751265    2.760073    0.728673
 C   -3.896533    2.875014    1.811854
 C   -2.531472    2.978750    1.610909
 C   -2.001054    2.959579    0.326453
 O   -7.817153    0.515379   -0.416188
 C   -8.548582    0.391474    0.782541
 O    7.646936    0.338282   -2.210696
 C    8.445658    1.108818   -1.332898
 C    7.459944    2.074146   -0.669457
 H   -6.432916    0.640915   -2.508914
 H   -4.170326   -0.373508   -2.858884
 H   -4.304317   -2.005834    1.057517
 H   -6.507961   -0.990275    1.445969
 H   -1.701132   -2.200752    2.167755
 H   -1.749475   -3.449353    0.893108
 H    0.689413   -1.740848    1.566499
 H    0.516392   -2.539766   -0.827205
 H    1.877968   -3.275527    0.033736
 H    0.389238   -4.189873   -0.240154
 H    0.161829   -3.317571    3.388246
 H    1.602615   -3.845460    2.520689
 H    0.058994   -4.650416    2.232496
 H   -2.451792    0.361441    0.034601
 H   -1.539597    0.028669    1.520605
 H    0.494233   -0.261228   -0.133889
 H   -0.944376    0.077820   -1.997104
 H    0.023925    1.574273    1.629226
 H    1.936403    2.177809   -0.518722
 H    4.563111    0.542760    2.369880
 H    3.746383   -1.652448    1.888510
 H    3.889936   -1.367202    0.124701
 H    7.521920   -1.231203    0.811568
 H    5.669330    0.034837   -2.390822
 H    5.293146    1.793499   -0.754673
 H    6.689744    0.929497    1.557557
 H   -0.091681    3.860593    0.680257
 H   -0.307801    3.180190   -0.947913
 H   -2.464186    2.824300   -1.754145
 H   -4.897092    2.674223   -1.402406
 H   -5.817898    2.686487    0.881273
 H   -4.294470    2.890902    2.816277
 H   -1.870115    3.079001    2.459645
 H   -8.002308    0.813941    1.631490
 H   -8.799847   -0.652260    0.992966
 H   -9.465223    0.957577    0.626229
 H    8.930356    0.464978   -0.586282
 H    9.208787    1.600921   -1.935541
 H    7.818135    2.445807    0.287387
 H    7.273521    2.919981   -1.331008
