71 
4hfp_ligand_ani.xyz
 S   -0.502755   -1.919072   -0.951238
 O   -0.210731   -3.201948   -1.564765
 O   -0.251920   -0.690200   -1.707654
 C   -3.768120    1.180230   -1.677174
 C   -4.764032    1.428289   -0.550909
 C   -5.406491    0.087868   -0.195498
 C   -4.392848   -1.015099    0.021764
 C   -4.717428   -2.150397    0.761916
 C   -3.801895   -3.182882    0.941554
 C   -2.532663   -3.076630    0.383664
 C   -2.176156   -1.948346   -0.344684
 C   -3.116702   -0.914132   -0.562580
 C   -5.799773    2.478246   -0.940467
 N   -2.751861    0.232706   -1.253517
 N    0.409907   -1.890695    0.445539
 C    0.705653   -0.610035    1.101159
 C    2.147894   -0.680682    1.644559
 O    2.351064   -0.908429    2.827770
 C   -0.280310   -0.359435    2.242825
 C   -0.291641    1.099673    2.733235
 C   -1.415159    1.968458    2.152629
 N   -1.383576    2.155734    0.710738
 C   -0.369305    2.854607    0.091395
 N   -0.244399    2.599958   -1.256143
 N    0.429354    3.709537    0.648277
 N    3.191978   -0.528787    0.756861
 C    3.007745    0.033127   -0.574980
 C    4.125659   -0.380648   -1.531261
 C    5.513038   -0.139106   -0.944441
 C    5.597990   -0.862901    0.397092
 C    4.525977   -0.376745    1.354290
 C    2.795837    1.552722   -0.582778
 O    2.762146    2.174196   -1.625090
 O    2.564409    2.065032    0.618083
 C    6.610981   -0.598592   -1.901089
 H   -4.306408    0.823447   -2.573810
 H   -3.253492    2.111968   -1.951175
 H   -4.194536    1.787820    0.317967
 H   -6.086316   -0.201109   -1.014062
 H   -6.039427    0.195768    0.694543
 H   -5.709243   -2.227657    1.203677
 H   -4.074764   -4.064460    1.514724
 H   -1.808593   -3.877771    0.509436
 H   -6.505623    2.667377   -0.123412
 H   -5.323586    3.431231   -1.199025
 H   -6.379063    2.146334   -1.811952
 H   -2.051059    0.027585   -1.954216
 H    1.181782   -2.538025    0.319495
 H    0.604862    0.196605    0.364568
 H   -0.006251   -1.027325    3.064323
 H   -1.277041   -0.667165    1.906251
 H   -0.402043    1.111829    3.824310
 H    0.675235    1.575905    2.520238
 H   -1.413333    2.950541    2.643051
 H   -2.387638    1.519175    2.389197
 H   -1.769383    1.389274    0.161824
 H    0.617717    2.978695   -1.630103
 H   -0.366685    1.630643   -1.535422
 H    0.184896    3.878990    1.620989
 H    2.080144   -0.354674   -1.009128
 H    4.007069   -1.449867   -1.750114
 H    3.994504    0.168021   -2.468742
 H    5.629054    0.941482   -0.764464
 H    6.587807   -0.714780    0.848691
 H    5.476999   -1.942702    0.233307
 H    4.694573    0.676674    1.620933
 H    4.527139   -0.952916    2.279422
 H    1.993367    2.894056    0.536980
 H    7.605836   -0.411768   -1.481810
 H    6.525728   -1.675037   -2.095102
 H    6.542786   -0.076955   -2.861940
