38 
4hge_ligand_xtb.xyz
 C   -4.516148   -2.155083   -0.263667
 C    1.328331   -2.224221    1.380970
 C   -2.965646    0.984171   -0.073673
 C   -4.338448    1.266578   -0.131158
 C    1.939640   -0.124681    0.393108
 C   -1.856604    1.946845    0.010854
 C    2.340906    3.279526   -0.075323
 C    0.929716    3.270546   -0.092493
 C    0.583781    1.950100    0.076631
 C    3.236429    4.456571   -0.212608
 C    1.102631   -0.868887    1.222093
 N   -1.884281   -1.269580   -0.101324
 N   -4.230022   -0.842837   -0.201855
 C   -2.901605   -0.411055   -0.120884
 N   -5.079101    0.171480   -0.206888
Cl    4.573426   -2.851866   -0.830146
 C    3.233991   -2.090864   -0.049371
 C    2.385076   -2.849659    0.743212
 C    3.022965   -0.737527   -0.232352
 N    1.750752    1.243032    0.194205
 N    2.815529    2.061922    0.080600
 N   -0.641202    1.316044    0.054438
 O   -2.011127    3.148188    0.047716
 C   -2.160903   -2.545010   -0.161343
 C   -3.477790   -3.043880   -0.244395
 H   -5.558778   -2.427496   -0.325387
 H    0.678981   -2.798187    2.024617
 H   -4.799492    2.233741   -0.119341
 H    0.262247    4.096430   -0.213056
 H    3.055933    4.958608   -1.161823
 H    3.045299    5.169073    0.588158
 H    4.272191    4.133247   -0.166569
 H    0.306131   -0.391191    1.770083
 H    2.562606   -3.905603    0.869484
 H    3.684430   -0.140510   -0.838552
 H   -0.637767    0.302230   -0.012316
 H   -1.310830   -3.211784   -0.144113
 H   -3.659837   -4.103582   -0.292282
