27 
4his_ligand_dft.xyz
 O    6.666497   -0.003927   -0.446516
 O    5.765160    1.824630    0.421123
 C    4.166263   -1.400154    0.055912
 C    2.931082   -2.032689    0.066617
 C   -4.337103    0.303638   -0.019457
 C   -2.450015   -1.219962    0.015503
 C   -2.074483    1.179418   -0.020227
 C    3.153809    0.823430    0.020466
 N    0.446383   -1.531990    0.035625
 O    0.685661    0.704565    0.002907
 C    5.614588    0.697862    0.026965
 C   -3.816495   -0.987053    0.004054
 C   -3.449265    1.373238   -0.031312
 C    4.283823    0.004109    0.022979
 C   -1.581956   -0.125961    0.003114
 C   -0.140933   -0.379390    0.015000
 C    1.799429   -1.220699    0.038240
 C    1.940208    0.168693    0.018534
Cl   -4.915823   -2.339279    0.019311
Cl   -4.081601    2.997069   -0.061243
 H    6.364234   -0.811102   -0.882726
 H    5.059020   -2.016551    0.122456
 H    2.842797   -3.112287    0.106427
 H   -5.407571    0.470500   -0.028176
 H   -2.050890   -2.227276    0.033922
 H   -1.399653    2.026749   -0.029255
 H    3.251332    1.902453    0.022364
