27 
4hki_ligand_ani.xyz
 O    0.172895   -0.808635   -0.006251
 C    1.537911   -0.727817    0.005970
 C    2.207469    0.488758   -0.005348
 C    1.438847    1.753846   -0.039438
 C   -0.003518    1.559550   -0.046435
 C   -0.572309    0.334408   -0.016165
 C   -2.031207    0.046615   -0.001957
 C   -2.963926    1.084058    0.092139
 C   -4.326392    0.808758    0.098215
 C   -4.775992   -0.505149    0.012698
 C   -3.854260   -1.545402   -0.076365
 C   -2.492565   -1.274802   -0.083325
 O    1.969850    2.854283   -0.058566
 C    3.606303    0.490541    0.012887
 C    4.311910   -0.699078    0.038760
 C    3.618302   -1.915120    0.044682
 C    2.233222   -1.938324    0.027896
 H   -0.602935    2.458623   -0.083531
 H   -2.640057    2.117733    0.170531
 H   -5.038817    1.626754    0.169897
 H   -5.841333   -0.719209    0.016613
 H   -4.198333   -2.575181   -0.139694
 H   -1.773284   -2.084184   -0.151861
 H    4.109029    1.454070    0.004874
 H    5.397676   -0.688965    0.053316
 H    4.169358   -2.851556    0.062227
 H    1.673972   -2.868308    0.030877
