30 
4hkk_ligand_xtb.xyz
 C    3.086057    1.121124   -0.429880
 C    4.435619    0.847080   -0.428289
 C    4.898620   -0.396987   -0.002780
 O    6.235018   -0.622214   -0.010993
 C    3.984163   -1.361149    0.408667
 C    2.632659   -1.084107    0.399587
 C    2.161591    0.162727   -0.010258
 C    0.721958    0.438851    0.003285
 O   -0.032962   -0.683375   -0.053244
 C    0.176140    1.670312    0.085643
 C   -1.263578    1.898455    0.109383
 O   -1.745331    3.014194    0.186601
 C   -2.043887    0.650114    0.034784
 C   -1.382174   -0.582450   -0.041261
 C   -2.077619   -1.784363   -0.112478
 C   -3.461864   -1.771471   -0.109446
 O   -4.114636   -2.954721   -0.181655
 C   -4.143740   -0.559430   -0.033565
 C   -3.455250    0.641986    0.038550
 O   -4.104630    1.812758    0.111404
 H    2.743645    2.081733   -0.779704
 H    5.154767    1.580493   -0.756066
 H    6.423921   -1.515603    0.301906
 H    4.336428   -2.329984    0.737642
 H    1.929911   -1.835727    0.723454
 H    0.800499    2.544635    0.157981
 H   -1.543479   -2.716651   -0.172874
 H   -5.069019   -2.811223   -0.174166
 H   -5.227797   -0.552582   -0.031602
 H   -5.060711    1.677625    0.104867
