30 
4hkk_ligand_dft.xyz
 C    3.101956    1.138280   -0.386609
 C    4.457172    0.857524   -0.382889
 C    4.902490   -0.409561    0.000018
 O    6.240007   -0.631162   -0.015913
 C    3.977959   -1.386362    0.371007
 C    2.620835   -1.094526    0.364435
 C    2.161426    0.172430   -0.005015
 C    0.721740    0.481821    0.011705
 O   -0.038456   -0.641159   -0.061993
 C    0.168579    1.705665    0.102662
 C   -1.279112    1.921727    0.097636
 O   -1.760557    3.042749    0.158495
 C   -2.065468    0.669376    0.025737
 C   -1.397037   -0.562464   -0.043124
 C   -2.046954   -1.789083   -0.105744
 C   -3.433179   -1.793974   -0.098388
 O   -4.050911   -2.996664   -0.159671
 C   -4.150884   -0.595850   -0.030543
 C   -3.478847    0.621441    0.030862
 O   -4.155190    1.782269    0.097140
 H    2.769325    2.118855   -0.711849
 H    5.185840    1.602016   -0.684372
 H    6.418117   -1.538271    0.260326
 H    4.317355   -2.376306    0.667597
 H    1.909070   -1.858852    0.655302
 H    0.790297    2.586473    0.201121
 H   -1.484588   -2.712260   -0.161999
 H   -5.007180   -2.870260   -0.150166
 H   -5.239505   -0.612332   -0.025931
 H   -5.101938    1.594019    0.094988
