30 
4hkk_ligand_ani.xyz
 C    3.117030    1.187850   -0.118178
 C    4.472699    0.908947   -0.140754
 C    4.908688   -0.411838   -0.029569
 O    6.249596   -0.629570   -0.058219
 C    3.980665   -1.444216    0.103178
 C    2.625217   -1.153074    0.125045
 C    2.169284    0.166461    0.016526
 C    0.719407    0.472261    0.041773
 O   -0.044506   -0.654530    0.040538
 C    0.164307    1.700620    0.076980
 C   -1.275133    1.928189    0.067845
 O   -1.750391    3.049510    0.101286
 C   -2.066735    0.670167    0.014267
 C   -1.406893   -0.562298    0.017363
 C   -2.062353   -1.785999    0.001029
 C   -3.447603   -1.788252   -0.031506
 O   -4.067363   -2.993248   -0.044258
 C   -4.158653   -0.585659   -0.053483
 C   -3.476046    0.625840   -0.034724
 O   -4.154507    1.788902   -0.063105
 H    2.802847    2.222977   -0.218840
 H    5.208361    1.700800   -0.243233
 H    6.419290   -1.576512    0.023219
 H    4.317604   -2.476954    0.187788
 H    1.903916   -1.956174    0.227229
 H    0.775528    2.590712    0.122983
 H   -1.500874   -2.710702    0.012486
 H   -5.023796   -2.861574   -0.063390
 H   -5.248086   -0.591998   -0.085489
 H   -5.100712    1.596908   -0.107443
