32 
4hl5_ligand_xtb.xyz
 C   -6.545486   -0.102506    0.199429
 O   -5.502817   -1.000187   -0.100995
 C   -4.223286   -0.555807   -0.051873
 C   -3.836468    0.735840    0.297583
 C   -2.499082    1.081475    0.308189
 C   -3.237379   -1.491189   -0.379006
 C   -1.908454   -1.141018   -0.363513
 C   -1.512292    0.157520   -0.027113
 C   -0.090707    0.511078   -0.027240
 O    0.720217   -0.569251    0.048480
 C    2.062721   -0.392527    0.039787
 C    2.849615   -1.537853    0.108823
 C    4.230394   -1.424206    0.104211
 O    4.963776   -2.560611    0.169666
 C    4.828728   -0.161605    0.032224
 C    4.046027    0.965052   -0.035277
 C    2.653042    0.873533   -0.033307
 C    1.807882    2.075330   -0.112388
 O    2.259128    3.208849   -0.176709
 C    0.387368    1.774896   -0.111932
 H   -6.479533    0.258970    1.230409
 H   -6.550545    0.749956   -0.486831
 H   -7.466573   -0.669598    0.075467
 H   -4.568763    1.479603    0.568733
 H   -2.224399    2.082086    0.601884
 H   -3.547966   -2.489390   -0.643702
 H   -1.158778   -1.871901   -0.622901
 H    2.388571   -2.509807    0.165476
 H    5.905474   -2.348468    0.157205
 H    5.907294   -0.081194    0.030203
 H    4.482715    1.950394   -0.091883
 H   -0.285668    2.610879   -0.199184
