32 
4hl5_ligand_ani.xyz
 C   -6.524463   -0.094017    0.272347
 O   -5.506868   -1.017067   -0.048172
 C   -4.227369   -0.565674   -0.040767
 C   -3.857550    0.750088    0.234598
 C   -2.511821    1.102116    0.216975
 C   -3.245852   -1.519523   -0.333568
 C   -1.913894   -1.159096   -0.342699
 C   -1.523149    0.162256   -0.067704
 C   -0.091304    0.540313   -0.080263
 O    0.726010   -0.551880   -0.072629
 C    2.079940   -0.382776   -0.012304
 C    2.837089   -1.547422    0.051927
 C    4.219890   -1.438777    0.113817
 O    4.927151   -2.595434    0.178110
 C    4.841368   -0.179581    0.108668
 C    4.060751    0.957631    0.039450
 C    2.666808    0.878968   -0.022788
 C    1.821869    2.088754   -0.099896
 O    2.281103    3.220637   -0.135700
 C    0.394093    1.800625   -0.122594
 H   -6.392263    0.314135    1.283103
 H   -6.556162    0.734710   -0.447248
 H   -7.461798   -0.650039    0.225947
 H   -4.599730    1.507332    0.462274
 H   -2.247140    2.129620    0.453010
 H   -3.560915   -2.537680   -0.544883
 H   -1.151016   -1.898609   -0.563648
 H    2.354109   -2.517269    0.054215
 H    5.869586   -2.391207    0.214458
 H    5.925318   -0.102304    0.158136
 H    4.511339    1.945676    0.031299
 H   -0.268946    2.652266   -0.190726
