55 
4hld_ligand_ani.xyz
 C   -7.306645   -0.097896   -0.592072
 C   -5.965927    0.157710    0.018754
 C   -4.818190    0.212884   -0.676710
 N   -3.572982    0.434555   -0.113901
 C   -3.436505    0.631585    1.252153
 O   -2.374752    0.828975    1.816780
 N   -4.623495    0.583474    1.949674
 C   -5.910327    0.356272    1.467434
 O   -6.863990    0.334812    2.223030
 C   -2.384244    0.468512   -0.978538
 C   -1.670997    1.824343   -0.977888
 C   -0.514936    1.801941   -1.977863
 C    0.437714    0.651569   -1.671151
 N   -0.312631   -0.609991   -1.639482
 C   -1.394025   -0.649253   -0.653220
 S    0.523350   -2.020454   -1.909219
 O   -0.458053   -3.088872   -1.957094
 O    1.424092   -1.762278   -3.019055
 C    1.501101   -2.246878   -0.444735
 C    1.106326   -3.151197    0.531988
 C    1.820413   -3.228361    1.724627
 C    2.912404   -2.398614    1.945774
 C    3.291235   -1.488215    0.947351
 C    2.622462   -1.443136   -0.264446
 O    4.365018   -0.672188    1.241456
 C    4.325816    0.604546    0.719131
 C    5.479464    1.116299    0.137774
 C    5.452241    2.401627   -0.391471
 C    4.296129    3.175504   -0.342945
 C    3.163686    2.641245    0.253449
 C    3.159688    1.363336    0.798587
Cl    1.695320    3.583299    0.287573
 O    3.590629   -2.475325    3.117455
 H   -7.994850    0.726225   -0.376933
 H   -7.236646   -0.221666   -1.678646
 H   -7.762295   -0.998404   -0.166650
 H   -4.815450    0.076820   -1.755609
 H   -4.534686    0.724231    2.947417
 H   -2.760428    0.274146   -1.989643
 H   -2.392527    2.607619   -1.231512
 H   -1.299814    2.035631    0.032456
 H    0.035104    2.748495   -1.961137
 H   -0.902532    1.677677   -2.997811
 H    0.935993    0.811250   -0.700749
 H    1.211232    0.577738   -2.439784
 H   -0.997106   -0.527303    0.363719
 H   -1.893059   -1.619072   -0.717851
 H    0.242566   -3.784348    0.351408
 H    1.536412   -3.927674    2.504868
 H    2.958313   -0.775624   -1.052335
 H    6.376934    0.506938    0.098754
 H    6.348111    2.807673   -0.852940
 H    4.268044    4.176408   -0.761328
 H    2.264777    0.948605    1.252195
 H    4.316774   -1.834387    3.080378
