30 
4hlf_ligand_ani.xyz
 C   -2.659233    0.885627    0.197373
 C   -3.977792    0.467144    0.203438
 O   -4.970329    1.354647    0.459275
 C   -4.278896   -0.878663   -0.056819
 O   -5.611982   -1.186287   -0.025975
 C   -3.264183   -1.784924   -0.317121
 C   -1.939973   -1.360764   -0.320546
 C   -1.627302   -0.022451   -0.068033
 C   -0.215674    0.431695   -0.084921
 O    0.655860   -0.616663   -0.042433
 C    2.000106   -0.379084    0.002291
 C    2.815563   -1.502403    0.087722
 C    4.191637   -1.322915    0.135517
 O    4.957002   -2.440586    0.219543
 C    4.748986   -0.034560    0.096959
 C    3.911704    1.059904    0.005839
 C    2.523284    0.909549   -0.045153
 C    1.618701    2.072356   -0.153855
 O    2.020283    3.224565   -0.223054
 C    0.207427    1.712804   -0.166797
 H   -2.456261    1.927911    0.427617
 H   -5.811732    0.876403    0.416084
 H   -5.733115   -2.126860   -0.204603
 H   -3.504245   -2.828252   -0.515458
 H   -1.142910   -2.067743   -0.519165
 H    2.382237   -2.495064    0.115336
 H    5.888131   -2.188128    0.244394
 H    5.827964    0.098079    0.136365
 H    4.311556    2.068992   -0.029830
 H   -0.494429    2.529352   -0.264950
