28 
4hlg_ligand_dft.xyz
 C   -2.650883    0.725040    0.269082
 C   -3.995986    0.364954    0.236903
 O   -4.897278    1.312713    0.602516
 C   -4.366729   -0.923550   -0.148214
 C   -3.383974   -1.844860   -0.495465
 C   -2.040401   -1.496784   -0.467296
 C   -1.671445   -0.200098   -0.090657
 C   -0.246601    0.191851   -0.082612
 O    0.569182   -0.875074    0.091093
 C    1.922475   -0.700306    0.106069
 C    2.697072   -1.847555    0.280228
 C    4.075392   -1.721997    0.307656
 C    4.683707   -0.467658    0.164211
 C    3.901814    0.659695   -0.006663
 C    2.505843    0.557713   -0.037136
 C    1.649029    1.750185   -0.224784
 O    2.103931    2.877668   -0.357540
 C    0.222646    1.447865   -0.247024
 H   -2.391540    1.724211    0.601297
 H   -5.787547    0.944890    0.552677
 H   -5.416578   -1.207162   -0.170740
 H   -3.675150   -2.847217   -0.793776
 H   -1.279886   -2.217898   -0.741515
 H    2.206119   -2.808275    0.391491
 H    4.687839   -2.608270    0.442689
 H    5.765419   -0.384646    0.187884
 H    4.335791    1.647762   -0.121498
 H   -0.462916    2.267184   -0.422848
