27 
4hlh_ligand_ani.xyz
 C  -37.954258  -10.967996   12.886891
 C  -37.925233  -11.233724   14.318027
 O  -37.185919  -10.651564   15.097546
 C  -38.885434  -12.277794   14.744599
 C  -39.015537  -12.638386   16.089952
 C  -39.914777  -13.617336   16.473534
 C  -40.699924  -14.254396   15.505167
 C  -40.585076  -13.913768   14.167447
 C  -39.675309  -12.921118   13.800034
 O  -39.598876  -12.630617   12.465932
 C  -38.776756  -11.629408   12.043598
 C  -38.870201  -11.409285   10.579752
 C  -38.421962  -10.213300   10.009970
 C  -38.490549  -10.006922    8.638818
 C  -39.009447  -11.015446    7.842275
 F  -39.074652  -10.825589    6.514768
 C  -39.466616  -12.213578    8.371126
 C  -39.398849  -12.402403    9.743372
 H  -37.261779  -10.223844   12.517646
 H  -38.387616  -12.123875   16.812447
 H  -40.009949  -13.890460   17.520213
 H  -41.406253  -15.024606   15.802996
 H  -41.179163  -14.393459   13.396481
 H  -38.034966   -9.415701   10.637914
 H  -38.147158   -9.083550    8.183724
 H  -39.868561  -12.974341    7.708665
 H  -39.755181  -13.328534   10.182106
