30 
4hlk_ligand_ani.xyz
 C  -39.125577  -10.775267   12.906664
 C  -39.071080  -11.034906   14.338099
 O  -38.260076  -10.512446   15.088118
 C  -40.100020  -11.992811   14.804554
 C  -40.213776  -12.334738   16.156213
 C  -41.178170  -13.232885   16.577341
 C  -42.046548  -13.806297   15.640788
 C  -41.949403  -13.482903   14.297403
 C  -40.972659  -12.572011   13.891852
 O  -40.917808  -12.295190   12.553747
 C  -40.028560  -11.369370   12.095864
 C  -40.152313  -11.148979   10.634250
 C  -39.613718  -10.008289   10.036367
 C  -39.716724   -9.813989    8.664266
 C  -40.353599  -10.749934    7.850471
 C  -40.461601  -10.544411    6.362396
 C  -40.895517  -11.889676    8.454602
 C  -40.803091  -12.087763    9.822677
 H  -38.385650  -10.093629   12.509706
 H  -39.520644  -11.871215   16.853155
 H  -41.260060  -13.492064   17.628678
 H  -42.804369  -14.513006   15.968043
 H  -42.607873  -13.914738   13.550835
 H  -39.127512   -9.246375   10.639949
 H  -39.289810   -8.917484    8.218868
 H  -41.509178  -10.514818    6.041178
 H  -39.991126   -9.606711    6.053728
 H  -39.976094  -11.359269    5.813099
 H  -41.400558  -12.631370    7.837915
 H  -41.232886  -12.974456   10.278174
