29 
4hlm_ligand_ani.xyz
 C    7.453229    6.580349  -19.484462
 C    7.221976    6.507307  -20.845199
 O    6.087277    6.959364  -21.469007
 C    8.181007    5.942884  -21.699615
 O    7.955447    5.876040  -23.032403
 C    9.365050    5.449441  -21.167410
 C    9.594571    5.516753  -19.800025
 C    8.648276    6.087804  -18.944196
 C    8.910775    6.182781  -17.488194
 O    9.878267    5.313613  -17.081880
 C   10.196210    5.231531  -15.754503
 C   11.147681    4.272819  -15.402706
 C   11.513902    4.149979  -14.072511
 C   10.943194    4.975321  -13.096187
 C   10.004592    5.922713  -13.464337
 C    9.618992    6.061695  -14.801830
 C    8.617797    7.073081  -15.212253
 O    8.095877    7.849402  -14.425991
 C    8.315124    7.046398  -16.635875
 H    6.683380    6.998102  -18.838490
 H    5.486363    7.335381  -20.813784
 H    7.084612    6.264781  -23.204437
 H   10.097904    5.011455  -21.839151
 H   10.517434    5.125685  -19.385136
 H   11.576297    3.648201  -16.179597
 H   12.252381    3.405752  -13.786844
 H   11.236130    4.873535  -12.055507
 H    9.541905    6.582790  -12.735496
 H    7.601350    7.776041  -16.992977
