29 
4hmh_ligand_xtb.xyz
 C   -3.021846    0.606188    0.267905
 C   -4.321930    0.116465    0.238111
 O   -5.325819    0.959371    0.590539
 C   -4.558804   -1.200875   -0.140602
 C   -3.496328   -2.019117   -0.481148
 C   -2.202447   -1.537679   -0.452416
 C   -1.955560   -0.214402   -0.082704
 C   -0.575463    0.289662   -0.070123
 O    0.343043   -0.695503    0.044927
 C    1.659296   -0.375939    0.045996
 C    2.563713   -1.426884    0.161387
 C    3.924320   -1.165010    0.168014
 O    4.774600   -2.212230    0.280639
 C    4.384187    0.152048    0.059380
 C    3.486064    1.184886   -0.053433
 C    2.110818    0.943786   -0.062209
 C    1.143789    2.045393   -0.186836
 O    1.471742    3.217266   -0.284554
 C   -0.238443    1.593815   -0.186987
 H   -2.869210    1.623778    0.586470
 H   -6.176106    0.507223    0.529791
 H   -5.571295   -1.581427   -0.163370
 H   -3.683795   -3.041797   -0.771881
 H   -1.377917   -2.177133   -0.723583
 H    2.209377   -2.440694    0.245814
 H    5.688134   -1.899956    0.274790
 H    5.447730    0.348227    0.065190
 H    3.815219    2.209167   -0.138484
 H   -0.998866    2.347349   -0.303160
