29 
4hmh_ligand_dft.xyz
 C   -3.020124    0.599857    0.294622
 C   -4.322820    0.108067    0.264986
 O   -5.310225    0.951534    0.663027
 C   -4.567752   -1.201055   -0.150031
 C   -3.502027   -2.010566   -0.529759
 C   -2.199634   -1.530651   -0.504766
 C   -1.957395   -0.213366   -0.097953
 C   -0.578744    0.318518   -0.092548
 O    0.340834   -0.670178    0.038224
 C    1.669122   -0.366195    0.043533
 C    2.544120   -1.439827    0.171027
 C    3.908590   -1.184074    0.186757
 O    4.735956   -2.248816    0.311094
 C    4.392746    0.131432    0.077114
 C    3.501579    1.177431   -0.047157
 C    2.121027    0.950444   -0.065890
 C    1.155941    2.056830   -0.204584
 O    1.495114    3.228497   -0.305259
 C   -0.236548    1.617878   -0.221469
 H   -2.857702    1.611289    0.650454
 H   -6.159525    0.497240    0.611679
 H   -5.584293   -1.587565   -0.170332
 H   -3.695073   -3.029434   -0.850962
 H   -1.373928   -2.165075   -0.803611
 H    2.169991   -2.452834    0.258090
 H    5.651570   -1.944633    0.311550
 H    5.463707    0.318957    0.090625
 H    3.843820    2.203581   -0.134179
 H   -1.000484    2.371838   -0.363296
