29 
4hmh_ligand_ani.xyz
 C    1.522383  -11.056097   -9.458108
 C    1.461735  -10.868436   -8.079668
 O    0.334752  -10.291482   -7.579077
 C    2.524367  -11.266138   -7.269916
 C    3.649731  -11.843976   -7.850498
 C    3.725099  -12.028376   -9.222911
 C    2.650540  -11.638543  -10.033419
 C    2.710296  -11.856408  -11.501213
 O    3.990615  -12.010081  -11.942818
 C    4.228776  -12.156345  -13.278924
 C    5.567797  -12.237832  -13.657140
 C    5.870786  -12.395131  -15.003352
 O    7.147369  -12.480086  -15.453952
 C    4.850072  -12.474996  -15.965385
 C    3.536358  -12.395319  -15.557927
 C    3.198567  -12.234015  -14.207869
 C    1.792051  -12.151440  -13.764828
 O    0.844566  -12.242067  -14.531360
 C    1.646885  -11.946152  -12.329867
 H    0.686028  -10.712345  -10.060748
 H    0.416059  -10.220848   -6.619939
 H    2.474638  -11.123151   -6.191822
 H    4.478970  -12.150118   -7.217833
 H    4.602936  -12.472247   -9.679489
 H    6.337151  -12.177271  -12.892677
 H    7.752411  -12.413554  -14.704207
 H    5.118779  -12.598953  -17.008695
 H    2.722481  -12.456280  -16.275141
 H    0.636802  -11.894314  -11.947217
