23 
4hmk_ligand_ani.xyz
 N    0.779387    1.735904   -0.261862
 C    0.610051    0.344150    0.294799
 C    1.972200   -0.309928    0.067790
 O    2.041206   -1.587233    0.454894
 C   -0.538528   -0.441026   -0.348983
 C   -1.939322    0.161742   -0.178732
 C   -2.332147    0.316777    1.292885
 C   -2.960703   -0.711820   -0.909998
 O    2.902423    0.298161   -0.413168
 H    0.181843    1.872597   -1.092857
 H    0.574180    2.465439    0.439826
 H    1.782229    1.773188   -0.548709
 H    0.463577    0.411341    1.373301
 H    2.946272   -1.889488    0.267897
 H   -0.534934   -1.446839    0.084616
 H   -0.324531   -0.575347   -1.419583
 H   -1.965317    1.155790   -0.646913
 H   -2.270954   -0.648186    1.813136
 H   -1.691694    1.028039    1.824865
 H   -3.363433    0.676472    1.380508
 H   -2.987266   -1.719382   -0.475774
 H   -2.715090   -0.812070   -1.973334
 H   -3.968931   -0.289681   -0.834317
