43 
4hnf_ligand_dft.xyz
 C    3.797282   -0.930186   -0.222723
 C    3.214133    0.101938    0.509943
 C    3.993393    0.901530    1.350941
 C   -2.511455    3.564849   -0.341002
 C   -2.218192    1.382611   -0.193504
 C   -0.827885    1.501232   -0.299635
 C   -0.337078    2.824575   -0.404644
 C   -0.351380    0.161538   -0.242339
 C    1.040269   -0.356842   -0.381104
 C   -5.437138   -2.200916   -0.869749
 C   -5.266359   -2.027656    1.454110
 C   -3.912408   -1.322085    1.387489
 C   -3.793064   -0.566891    0.062118
 N   -3.107466    2.389782   -0.208991
 N   -1.200134    3.844449   -0.433608
 N   -2.488765    0.058682   -0.080203
 N   -1.354470   -0.681718   -0.105931
 N    0.984008    3.098297   -0.501939
 O    1.888854    0.412507    0.466050
 O   -5.459620   -2.895433    0.358298
 C   -4.095431   -1.508222   -1.105564
 C    5.354753    0.666062    1.453367
 C    5.963334   -0.358996    0.729278
 C    5.169219   -1.139902   -0.096058
Cl    5.899890   -2.434135   -1.016702
 H    3.220145   -1.567727   -0.880030
 H    3.510420    1.689856    1.918840
 H   -3.168086    4.431515   -0.371201
 H    1.388131   -0.263689   -1.419619
 H    1.058186   -1.414241   -0.095336
 H   -6.252338   -1.456357   -0.895793
 H   -5.633445   -2.943057   -1.647345
 H   -6.077385   -1.278879    1.488420
 H   -5.339165   -2.644925    2.352799
 H   -3.109069   -2.063822    1.449220
 H   -3.803384   -0.629915    2.229829
 H   -4.502160    0.268743    0.051587
 H    1.639694    2.394300   -0.190388
 H    1.246699    4.069458   -0.427026
 H   -4.117476   -0.949381   -2.047785
 H   -3.301920   -2.260033   -1.172708
 H    5.957387    1.287028    2.108579
 H    7.027613   -0.547431    0.806260
