43 
4hnf_ligand_ani.xyz
 C   23.672574   -8.048078   24.721556
 C   24.720341   -7.553595   23.947068
 C   25.629055   -8.427320   23.344858
 C   26.532265   -1.363507   21.767556
 C   25.596375   -1.974413   23.673636
 C   25.332651   -3.269946   23.210458
 C   25.749105   -3.522393   21.874249
 C   24.695803   -3.914783   24.309851
 C   24.140588   -5.296468   24.454506
 C   24.102287    0.598964   27.606969
 C   26.315701   -0.041876   28.024740
 C   26.277008   -1.147321   26.976019
 C   25.257593   -0.806665   25.884810
 N   26.195478   -0.986885   22.988655
 N   26.347522   -2.550582   21.172539
 N   25.125510   -1.912361   24.946580
 N   24.587407   -3.084581   25.333477
 N   25.533590   -4.703446   21.259134
 O   24.919259   -6.221734   23.703084
 O   25.040109    0.196421   28.584251
 C   23.911648   -0.463666   26.530514
 C   25.488887   -9.793601   23.527190
 C   24.450490  -10.312903   24.296958
 C   23.557364   -9.427683   24.879527
Cl   22.248464  -10.052917   25.843531
 H   22.943430   -7.395428   25.190285
 H   26.436824   -8.020862   22.741500
 H   27.025138   -0.609493   21.155880
 H   23.101215   -5.331182   24.100929
 H   24.161139   -5.543416   25.520703
 H   24.427754    1.547206   27.142647
 H   23.166067    0.789177   28.139611
 H   26.970492   -0.313998   28.857592
 H   26.707452    0.888098   27.574949
 H   25.984305   -2.094265   27.447163
 H   27.267612   -1.282162   26.528953
 H   25.617883    0.048226   25.302346
 H   26.002000   -4.841164   20.375986
 H   25.335242   -5.500192   21.844760
 H   23.207339   -0.107220   25.771240
 H   23.493590   -1.373556   26.978264
 H   26.198964  -10.470455   23.060683
 H   24.334480  -11.381978   24.441790
