43 
4hni_ligand_xtb.xyz
 C    3.801226   -0.936562   -0.225132
 C    3.232556    0.158245    0.414000
 C    4.034788    1.000202    1.187203
 C   -2.534104    3.561528   -0.269954
 C   -2.238216    1.375689   -0.154442
 C   -0.834189    1.510562   -0.279033
 C   -0.360908    2.838444   -0.372701
 C   -0.360029    0.175292   -0.244417
 C    1.033535   -0.339297   -0.386716
 C   -5.417803   -2.192799   -0.881170
 C   -5.213362   -2.102089    1.439403
 C   -3.863074   -1.386361    1.372302
 C   -3.791884   -0.563664    0.083463
 N   -3.112441    2.387008   -0.146142
 N   -1.241498    3.838284   -0.374662
 N   -2.499430    0.058364   -0.054018
 N   -1.367121   -0.660382   -0.107550
 N    0.944426    3.136598   -0.495431
 O    1.917463    0.499733    0.338177
 O   -5.428740   -2.926669    0.319481
 C   -4.081579   -1.482624   -1.106372
 C    5.383346    0.744698    1.318993
 C    5.963155   -0.344017    0.686575
 C    5.160307   -1.170564   -0.077798
Cl    5.856498   -2.534529   -0.878732
 H    3.215780   -1.607917   -0.830987
 H    3.575635    1.841799    1.681376
 H   -3.194617    4.418796   -0.277383
 H    1.317000   -0.346256   -1.450957
 H    1.063380   -1.365697   -0.004044
 H   -6.230783   -1.448798   -0.872390
 H   -5.609450   -2.917515   -1.674818
 H   -6.020268   -1.355230    1.514672
 H   -5.259245   -2.761635    2.308100
 H   -3.057073   -2.121425    1.358822
 H   -3.740699   -0.742566    2.243861
 H   -4.514933    0.259558    0.114200
 H    1.618400    2.421067   -0.271955
 H    1.204593    4.106311   -0.438653
 H   -4.118465   -0.907917   -2.032451
 H   -3.280832   -2.220205   -1.178214
 H    5.994532    1.398652    1.921421
 H    7.016641   -0.547738    0.785988
