26 
4hnn_ligand_xtb.xyz
 N   -2.741809   -1.538581   -0.060122
 C   -1.670877   -0.581950    0.355592
 C   -2.119094    0.860913    0.001979
 O   -3.440900    0.921088   -0.096854
 C   -0.318669   -0.931278   -0.277448
 C    0.837303   -0.217186    0.437110
 C    2.178347   -0.446646   -0.269323
 C    3.280350    0.344794    0.429823
 N    4.592997    0.186387   -0.264357
 O   -1.361234    1.765536   -0.138474
 H   -3.660277   -1.111292    0.155382
 H   -2.708413   -1.704781   -1.075984
 H   -2.663502   -2.443511    0.421781
 H   -1.587089   -0.618103    1.448486
 H   -3.762192    1.824974   -0.266819
 H   -0.322878   -0.636952   -1.328679
 H   -0.162149   -2.010650   -0.220765
 H    0.627856    0.851235    0.459543
 H    0.903900   -0.575507    1.464992
 H    2.418082   -1.511669   -0.262399
 H    2.091925   -0.119069   -1.306895
 H    3.394462    0.005500    1.460676
 H    3.024897    1.405880    0.441960
 H    4.879285   -0.802400   -0.283899
 H    4.532665    0.522838   -1.235633
 H    5.328027    0.723999    0.215832
