86 
4hnp_ligand_xtb.xyz
 C   -5.990552   -0.509381   -0.552263
 C   -4.839550   -1.199444    0.163579
 O   -4.927209   -1.658423    1.283495
 C   -6.929628    0.165751    0.444940
 C   -8.158391    0.757093   -0.239672
 C   -9.153274    1.375671    0.743000
 C   -8.622744    2.632479    1.423069
 N   -3.716397   -1.308132   -0.583725
 C   -2.470064   -1.792087   -0.039950
 C   -1.392183   -0.749008   -0.331426
 O   -1.561907    0.149133   -1.141442
 C   -2.070145   -3.166499   -0.626284
 C   -3.072758   -4.230812   -0.191488
 C   -1.971696   -3.104767   -2.148883
 C    2.126326   -0.846190    0.664891
 C    1.650429    2.812641   -0.854897
 C    0.457005    2.421771   -0.009351
 N   -0.260848   -0.900594    0.366615
 O    2.771063    2.336268   -0.677802
 N    1.425017    3.729903   -1.810530
 C    0.123656    4.303451   -2.064211
 C    2.509975    4.168978   -2.660598
 C    0.901211   -0.068655    0.173107
 C    0.784782    1.269936    0.937039
 O    2.017004   -1.848878    1.349881
 N    3.269132   -0.294557    0.258830
 C    4.583671   -0.667192    0.732192
 C    5.180926    0.538968    1.513768
 O    5.446913    1.617452    0.657465
 C    4.287496    0.896562    2.687017
 C    4.073026   -0.189951    3.696727
 C    3.726507    2.090370    2.805888
 C    5.495072   -1.051369   -0.436101
 C    4.902966   -2.121406   -1.358958
 C    5.860209   -2.371254   -2.523005
 C    4.626382   -3.424294   -0.612321
 H   -5.604359    0.218156   -1.268674
 H   -6.537848   -1.275168   -1.109830
 H   -6.377687    0.948737    0.966699
 H   -7.235856   -0.573127    1.187112
 H   -8.665361   -0.034496   -0.797864
 H   -7.843856    1.518052   -0.958993
 H  -10.067485    1.628647    0.200106
 H   -9.413705    0.635441    1.502361
 H   -9.393559    3.076346    2.049022
 H   -8.319153    3.367994    0.680696
 H   -7.767287    2.403644    2.052583
 H   -3.611438   -0.758378   -1.425228
 H   -2.607572   -1.894008    1.043149
 H   -1.085147   -3.422607   -0.220637
 H   -4.065759   -3.988054   -0.561532
 H   -3.122775   -4.291515    0.892548
 H   -2.783998   -5.203515   -0.582726
 H   -1.298911   -2.309776   -2.462609
 H   -1.594160   -4.047674   -2.537278
 H   -2.951180   -2.923387   -2.585055
 H   -0.373825    2.122888   -0.651893
 H    0.145380    3.297358    0.565463
 H   -0.116110   -1.670758    1.009311
 H   -0.595676    3.536913   -2.361112
 H   -0.261638    4.817361   -1.181195
 H    0.212762    5.025850   -2.871946
 H    2.657377    5.245942   -2.561781
 H    3.417130    3.653713   -2.351516
 H    2.296315    3.928562   -3.703746
 H    1.007727    0.133493   -0.899057
 H    1.716286    1.484550    1.465782
 H   -0.008266    1.172395    1.679477
 H    3.209041    0.579897   -0.257478
 H    4.458801   -1.514387    1.408611
 H    6.162093    0.236990    1.901990
 H    4.613072    1.939973    0.284225
 H    3.672670    0.222536    4.619058
 H    3.363950   -0.926615    3.319727
 H    5.008049   -0.702407    3.914857
 H    3.101752    2.334826    3.648705
 H    3.888091    2.878052    2.089920
 H    5.704023   -0.150024   -1.016379
 H    6.441402   -1.409418   -0.026298
 H    3.955909   -1.746598   -1.762825
 H    6.808479   -2.758383   -2.156171
 H    5.439409   -3.096917   -3.215411
 H    6.054248   -1.449879   -3.067670
 H    5.528290   -3.777722   -0.116684
 H    3.847084   -3.290177    0.132738
 H    4.296108   -4.192244   -1.308502
