86 
4hnp_ligand_ani.xyz
 C   -6.042559   -0.500772   -0.550450
 C   -4.911195   -1.291941    0.083237
 O   -5.052343   -1.897102    1.136663
 C   -6.933410    0.169517    0.494254
 C   -8.117989    0.895144   -0.141706
 C   -9.041445    1.598259    0.858103
 C   -8.367971    2.741529    1.616367
 N   -3.740925   -1.306350   -0.618336
 C   -2.523539   -1.852543   -0.064587
 C   -1.392800   -0.869270   -0.385664
 O   -1.511671   -0.027664   -1.269963
 C   -2.197074   -3.269712   -0.601813
 C   -3.237969   -4.276695   -0.112599
 C   -2.074966   -3.301686   -2.125890
 C    2.124776   -0.824342    0.644027
 C    1.524732    2.867165   -0.934135
 C    0.338654    2.403351   -0.097446
 N   -0.258580   -0.990287    0.344863
 O    2.632951    2.339067   -0.812746
 N    1.323201    3.889424   -1.808683
 C    0.036335    4.492702   -2.101607
 C    2.424369    4.352324   -2.637171
 C    0.866738   -0.105443    0.147994
 C    0.697322    1.268726    0.860324
 O    2.068382   -1.790750    1.393536
 N    3.278109   -0.285552    0.182489
 C    4.595559   -0.644061    0.684467
 C    5.200224    0.531186    1.493727
 O    5.354498    1.668107    0.669816
 C    4.451976    0.843030    2.784311
 C    4.142245   -0.311899    3.710616
 C    4.165411    2.101448    3.111074
 C    5.534718   -1.027850   -0.464295
 C    5.006943   -2.112296   -1.413278
 C    6.060192   -2.411141   -2.480633
 C    4.610203   -3.392083   -0.674502
 H   -5.638667    0.244532   -1.249874
 H   -6.637533   -1.204872   -1.150215
 H   -6.327464    0.871588    1.081121
 H   -7.282752   -0.593633    1.199214
 H   -8.704902    0.171869   -0.725002
 H   -7.740072    1.637265   -0.861153
 H   -9.913152    1.989471    0.318391
 H   -9.431557    0.861853    1.574574
 H   -9.081897    3.262212    2.263042
 H   -7.947711    3.478819    0.921878
 H   -7.551657    2.381302    2.251679
 H   -3.593014   -0.629067   -1.356746
 H   -2.654102   -1.928876    1.021852
 H   -1.222623   -3.547670   -0.169707
 H   -4.220367   -4.062069   -0.547542
 H   -3.348458   -4.242590    0.976623
 H   -2.954594   -5.294727   -0.399564
 H   -1.353421   -2.566303   -2.497374
 H   -1.751420   -4.293918   -2.458621
 H   -3.042973   -3.090051   -2.593639
 H   -0.470319    2.078362   -0.760686
 H   -0.032398    3.257317    0.482351
 H   -0.115766   -1.747855    0.999875
 H   -0.326205    4.204491   -3.098592
 H   -0.716225    4.205471   -1.366464
 H    0.126090    5.585503   -2.082520
 H    2.526772    5.442132   -2.557962
 H    3.345213    3.878060   -2.299112
 H    2.258760    4.102171   -3.694155
 H    0.964804    0.081634   -0.926744
 H    1.613983    1.531477    1.395435
 H   -0.090060    1.161960    1.613364
 H    3.190417    0.566246   -0.363864
 H    4.446702   -1.505833    1.343007
 H    6.219573    0.231809    1.776174
 H    4.472290    1.988708    0.417646
 H    3.724313    0.054500    4.652638
 H    3.418917   -1.003084    3.262952
 H    5.049089   -0.882415    3.947728
 H    3.678767    2.337769    4.055175
 H    4.425209    2.933773    2.463127
 H    5.770856   -0.121659   -1.039831
 H    6.487523   -1.370196   -0.030284
 H    4.112378   -1.719179   -1.914967
 H    6.969049   -2.823298   -2.023213
 H    5.691120   -3.143356   -3.207599
 H    6.341931   -1.504154   -3.028051
 H    5.456761   -3.795615   -0.102450
 H    3.777080   -3.226535    0.018688
 H    4.297673   -4.163123   -1.387712
