23 
4hod_ligand_xtb.xyz
 N    0.756499    1.730636   -0.105685
 C    0.601584    0.323068    0.358694
 C    1.965006   -0.324645    0.046077
 O    2.795714    0.335457   -0.530818
 C   -0.516083   -0.395922   -0.398386
 C   -1.917654    0.186679   -0.153617
 C   -2.918834   -0.604342   -0.993724
 C   -2.304294    0.129708    1.321684
 O    2.069120   -1.557346    0.439456
 H    0.731521    2.424531    0.645840
 H    1.727028    1.716391   -0.546654
 H    0.048228    1.967466   -0.810139
 H    0.415964    0.277974    1.433492
 H   -0.294267   -0.379266   -1.468270
 H   -0.513635   -1.439095   -0.079165
 H   -1.952656    1.232257   -0.486848
 H   -3.915904   -0.189180   -0.882613
 H   -2.945394   -1.642433   -0.674312
 H   -2.654939   -0.574664   -2.047935
 H   -1.713502    0.809668    1.931978
 H   -2.187251   -0.879304    1.707721
 H   -3.346414    0.412168    1.438259
 H    2.928699   -1.963134    0.224972
