79 
4hpi_ligand_ani.xyz
 C    5.458459    1.451872    0.876204
 C    4.244222    2.248391    0.400864
 O    3.192046    2.015114    1.311755
 C    3.883352    1.862674   -1.046821
 O    4.895451    2.294069   -1.943518
 C    3.726172    0.352925   -1.224701
 O    2.575745    0.016026   -0.455898
 C    4.909048   -0.452350   -0.664167
 N    5.238026   -0.017058    0.737961
 C    6.185691   -0.468319   -1.495667
 O    7.146297   -1.102768   -0.651667
 C    1.755623   -1.039882   -0.862592
 C    1.015694   -1.493137    0.410045
 C   -0.479247   -1.637111    0.146629
 C   -0.953131   -0.241377   -0.280310
 C   -0.213820    0.197922   -1.551047
 C    0.142717    1.701002   -1.521223
 C    2.690714   -2.645128    1.776471
 C    3.029067   -3.931332    2.496745
 N    1.573509   -2.695219    0.995274
 O   -1.083845   -2.069602    1.344170
 O   -2.346050   -0.157457   -0.558644
 O    0.890015   -0.649765   -1.891002
 O    0.637367    2.178450   -0.284738
 O    3.373800   -1.629521    1.878188
 C   -3.189564    0.045069    0.551511
 C   -4.163853    1.188599    0.199865
 C   -5.592683    0.671532    0.162414
 C   -5.601410   -0.578973   -0.693765
 C   -4.835987   -1.681785    0.051094
 C   -4.258955   -2.698984   -0.928574
 C   -2.947741    3.063554    1.224298
 C   -3.094434    4.357081    1.993660
 N   -4.079978    2.314756    1.118161
 O   -6.411777    1.687449   -0.370359
 O   -6.938543   -0.958098   -0.933747
 O   -3.816623   -1.165006    0.916654
 O   -5.360409   -3.175257   -1.696814
 O   -1.880805    2.685335    0.747083
 H    5.655561    1.698884    1.918769
 H    6.325506    1.742280    0.278367
 H    4.514554    3.320563    0.406262
 H    2.346272    2.087754    0.841310
 H    2.910808    2.315179   -1.295147
 H    4.963914    3.254294   -1.868694
 H    3.571518    0.131191   -2.289555
 H    4.571180   -1.490169   -0.585676
 H    6.125822   -0.513830    0.945411
 H    4.479021   -0.339484    1.367503
 H    6.488188    0.550274   -1.761980
 H    6.018724   -1.043687   -2.417842
 H    8.023526   -0.988194   -1.035154
 H    2.353945   -1.861846   -1.278490
 H    1.153929   -0.676364    1.127519
 H   -0.661163   -2.355565   -0.671364
 H   -0.723997    0.447837    0.544245
 H   -0.890522    0.050901   -2.397801
 H   -0.754371    2.268671   -1.806887
 H    0.908166    1.870054   -2.289837
 H    2.279210   -4.147373    3.265674
 H    3.059262   -4.779475    1.805183
 H    4.001608   -3.820328    2.976776
 H    0.919602   -3.447943    1.166676
 H   -2.047492   -2.070853    1.214376
 H   -0.127312    2.569594    0.176600
 H   -2.597108    0.330366    1.423207
 H   -3.890626    1.518794   -0.809754
 H   -5.917842    0.406598    1.182758
 H   -5.091796   -0.343137   -1.643840
 H   -5.538721   -2.193533    0.719340
 H   -3.508542   -2.203307   -1.557703
 H   -3.777096   -3.522089   -0.380358
 H   -3.943429    4.947982    1.633406
 H   -2.179347    4.939150    1.882170
 H   -3.256483    4.150624    3.056790
 H   -4.960896    2.780693    1.299145
 H   -7.240848    1.255528   -0.622132
 H   -6.895509   -1.791421   -1.430062
 H   -5.029085   -3.651179   -2.466279
