89 
4hrc_ligand_dft.xyz
 C   -6.041247    0.928843    0.135873
 C   -4.963389    0.020925    0.711024
 O   -5.139687   -0.625954    1.733558
 C   -7.396453    0.218648    0.092531
 C   -7.403146   -0.983781   -0.853319
 C   -8.778147   -1.638579   -1.017232
 C   -9.329966   -2.245133    0.273348
 N   -3.804340   -0.029745   -0.003166
 C   -2.625349   -0.700890    0.491762
 C   -1.434152    0.227398    0.252071
 O   -1.504653    1.176061   -0.529836
 C   -2.386831   -2.078759   -0.180522
 C   -3.562756   -3.018119    0.087699
 C   -2.122685   -1.939968   -1.681062
 C    2.030765   -0.587559    0.782810
 C    0.691868    3.539077    0.040755
 C    0.417475    2.886215    1.390048
 N   -0.310548   -0.088190    0.924618
 O    1.785450    3.398180   -0.518310
 N   -0.283704    4.303930   -0.498112
 C   -1.618478    4.403809    0.074883
 C   -0.110069    4.842504   -1.836327
 C    0.974660    0.514552    0.641369
 C    1.304546    1.666177    1.607015
 O    1.865597   -1.510943    1.576004
 N    3.115291   -0.403868    0.015983
 O    5.198954   -0.248024   -1.977091
 O    4.167194    2.072888   -0.909605
 C    4.324795   -1.216510    0.082936
 C    5.485700   -0.468469   -0.608495
 C    5.226278   -3.590246   -0.522389
 C    4.753538   -4.932370   -1.088486
 C    5.801493   -3.774554    0.885195
 C    4.063662   -2.587467   -0.559647
 C    4.942649    1.918401    0.269801
 C    6.679774    0.536792    1.410577
 C    5.995196    0.824352    0.072322
 H   -6.104504    1.807961    0.788751
 H   -5.762807    1.283117   -0.864381
 H   -8.165829    0.936993   -0.218334
 H   -7.639632   -0.101651    1.110387
 H   -7.037403   -0.666133   -1.839876
 H   -6.691389   -1.733351   -0.481360
 H   -8.704807   -2.423324   -1.780257
 H   -9.488477   -0.896402   -1.406839
 H   -8.623172   -2.967944    0.697091
 H  -10.276025   -2.765073    0.090272
 H   -9.516077   -1.479856    1.033975
 H   -3.626462    0.657867   -0.723338
 H   -2.766046   -0.860214    1.566650
 H   -1.490669   -2.507759    0.288697
 H   -3.345324   -4.017740   -0.303225
 H   -3.781799   -3.098224    1.156174
 H   -4.466581   -2.651182   -0.410001
 H   -1.963106   -2.924771   -2.131428
 H   -1.239992   -1.327078   -1.891489
 H   -2.982943   -1.479554   -2.180273
 H   -0.632057    2.601071    1.480137
 H    0.613881    3.633626    2.170378
 H   -0.260616   -0.920936    1.501808
 H   -2.184624    3.479947   -0.086577
 H   -2.136783    5.233289   -0.411191
 H   -1.574120    4.624723    1.144048
 H    0.922634    4.689663   -2.143175
 H   -0.776386    4.330085   -2.540202
 H   -0.339633    5.913180   -1.842649
 H    0.951711    0.896919   -0.383174
 H    1.193015    1.299474    2.632818
 H    2.348099    1.956894    1.469417
 H    3.146351    0.408018   -0.592164
 H    4.772982    0.620720   -2.039133
 H    3.403608    2.659366   -0.734455
 H    4.564887   -1.358988    1.143309
 H    6.334914   -1.161471   -0.594517
 H    6.027227   -3.222285   -1.177963
 H    4.337281   -4.812020   -2.094747
 H    5.577876   -5.651949   -1.145258
 H    3.972365   -5.365669   -0.451581
 H    6.274699   -2.860798    1.262588
 H    6.560938   -4.564120    0.894887
 H    5.011846   -4.056855    1.592600
 H    3.202038   -3.025683   -0.041687
 H    3.771164   -2.413801   -1.601237
 H    5.446028    2.862486    0.521193
 H    4.302276    1.648528    1.121215
 H    7.125199    1.446591    1.827331
 H    7.479844   -0.201165    1.291854
 H    5.970048    0.147786    2.149991
 H    6.748263    1.213435   -0.625326
