89 
4hrc_ligand_ani.xyz
 C   -5.641124   -1.142713   -1.484829
 C   -4.768536   -1.200889   -0.238093
 O   -5.222281   -1.246837    0.897431
 C   -6.915422   -0.306175   -1.320208
 C   -7.993061   -0.956916   -0.451429
 C   -9.290871   -0.146771   -0.382412
 C   -9.127418    1.232647    0.256456
 N   -3.424799   -1.226179   -0.476205
 C   -2.460035   -1.108036    0.591527
 C   -1.337787   -0.188175    0.105041
 O   -1.140311    0.009531   -1.082162
 C   -1.860103   -2.472424    1.024595
 C   -2.926763   -3.335289    1.696168
 C   -1.205238   -3.211557   -0.143860
 C    1.741893   -0.350318    0.860316
 C    1.019400    3.966368    0.220662
 C    0.476928    3.263304    1.459749
 N   -0.571393    0.378136    1.094167
 O    2.025971    3.550752   -0.353884
 N    0.356516    5.074063   -0.210109
 C   -0.885023    5.524831    0.390588
 C    0.761378    5.707905   -1.454381
 C    0.767277    0.833921    0.775062
 C    1.196680    1.948295    1.740180
 O    1.569819   -1.255750    1.665629
 N    2.803402   -0.282763    0.013758
 O    4.817746   -0.512410   -2.075272
 O    4.140623    2.009796   -1.200089
 C    3.895151   -1.251249    0.041029
 C    5.122415   -0.690358   -0.702396
 C    4.455514   -3.685750   -0.724172
 C    3.792450   -4.928981   -1.320356
 C    5.124211   -4.026013    0.609782
 C    3.413854   -2.567703   -0.593118
 C    4.927525    1.836490   -0.030051
 C    6.408061    0.300983    1.258315
 C    5.791765    0.571282   -0.111254
 H   -5.046766   -0.747481   -2.319314
 H   -5.901473   -2.176640   -1.754965
 H   -7.331078   -0.116667   -2.319065
 H   -6.642830    0.674703   -0.909954
 H   -8.217498   -1.953652   -0.857392
 H   -7.587725   -1.116603    0.553744
 H  -10.033771   -0.720885    0.185905
 H   -9.703403   -0.032828   -1.395400
 H   -8.682894    1.152350    1.255951
 H  -10.093693    1.737280    0.359494
 H   -8.481313    1.882846   -0.343542
 H   -3.066335   -0.980124   -1.391256
 H   -2.963378   -0.667059    1.459926
 H   -1.073337   -2.243879    1.761496
 H   -2.483904   -4.250530    2.102881
 H   -3.422948   -2.797991    2.511233
 H   -3.701308   -3.623191    0.976779
 H   -0.723446   -4.128064    0.212766
 H   -0.444669   -2.597382   -0.638476
 H   -1.953533   -3.492111   -0.892911
 H   -0.597228    3.081987    1.339055
 H    0.600291    3.937777    2.316527
 H   -0.631529   -0.093989    1.988395
 H   -1.756907    4.935094    0.069190
 H   -1.055568    6.565269    0.101868
 H   -0.829524    5.488833    1.482432
 H    1.741289    5.321788   -1.734019
 H    0.050188    5.499731   -2.265450
 H    0.821914    6.794857   -1.322223
 H    0.742793    1.224289   -0.245817
 H    0.992892    1.614724    2.764569
 H    2.276081    2.113833    1.669102
 H    2.923166    0.513197   -0.602709
 H    4.464092    0.388979   -2.164333
 H    3.460901    2.681817   -1.009149
 H    4.147054   -1.434916    1.092463
 H    5.900219   -1.464634   -0.672781
 H    5.232760   -3.356923   -1.431559
 H    3.322473   -4.705850   -2.284960
 H    4.521156   -5.732435   -1.475010
 H    3.012999   -5.308375   -0.647595
 H    5.695477   -3.183299    1.014270
 H    5.815625   -4.868090    0.494642
 H    4.371342   -4.310977    1.356863
 H    2.574805   -2.923315    0.018326
 H    3.015528   -2.334363   -1.588367
 H    5.586983    2.708875    0.100517
 H    4.279048    1.791268    0.858098
 H    6.929398    1.191635    1.625682
 H    7.132230   -0.520213    1.220603
 H    5.641188    0.039064    1.997420
 H    6.596807    0.798546   -0.825927
