86 
4hrd_ligand_dft.xyz
 C   -5.437325    0.343429   -0.700510
 C   -4.080537    0.236288   -0.037826
 O   -3.679439    1.125774    0.717258
 C   -6.550211    0.300616    0.359441
 C   -6.551231   -0.967331    1.222105
 C   -6.662977   -2.289937    0.453979
 C   -7.888453   -2.378665   -0.454773
 N   -3.392027   -0.904899   -0.265855
 C   -2.066421   -1.156549    0.270620
 C   -1.037049   -0.708589   -0.774747
 O   -1.077903   -1.120989   -1.924567
 C   -1.892958   -2.630388    0.697417
 C   -2.745054   -2.917838    1.936214
 C   -2.192695   -3.635705   -0.419031
 N   -0.114456    0.182988   -0.313636
 C    0.709503    0.932191   -1.248358
 C    0.497682    2.440205   -1.035883
 C   -0.958673    2.848547   -1.264236
 S   -1.338964    4.390578   -0.369588
 O   -1.192220    1.765930    1.831719
 C   -3.146337    4.370943   -0.536117
 C    2.205994    0.619809   -1.146389
 O    2.986275    1.208992   -1.896342
 N    2.558133   -0.253728   -0.189658
 O    5.522001    0.719431   -1.017877
 O    4.790381    0.003004    3.106073
 C    3.901482   -0.793754    0.061389
 C    5.000671    0.282412    0.213257
 C    5.602825   -2.554752   -0.780060
 C    5.714100   -3.208742    0.601402
 C    5.818971   -3.593794   -1.883452
 C    4.254231   -1.852715   -0.991053
 C    4.004242    0.988823    2.453364
 C    5.792835    2.390796    1.330762
 C    4.594111    1.462310    1.119468
 H   -5.579486   -0.448307   -1.444527
 H   -5.472243    1.302244   -1.227212
 H   -6.431985    1.171829    1.011970
 H   -7.514038    0.414703   -0.149080
 H   -7.387656   -0.896413    1.929108
 H   -5.638926   -0.985447    1.833222
 H   -5.753490   -2.454282   -0.138917
 H   -6.690617   -3.108548    1.183102
 H   -7.970459   -3.369620   -0.912125
 H   -8.809623   -2.192310    0.109407
 H   -7.844864   -1.644120   -1.266685
 H   -3.685326   -1.490116   -1.034364
 H   -1.973215   -0.540407    1.166434
 H   -0.834693   -2.734137    0.973557
 H   -3.808923   -2.771693    1.714663
 H   -2.609433   -3.953297    2.264483
 H   -2.478503   -2.259055    2.769682
 H   -3.268039   -3.671702   -0.637824
 H   -1.903696   -4.642063   -0.100159
 H   -1.658552   -3.391865   -1.340107
 H   -0.350547    0.672785    0.559836
 H    0.403805    0.643651   -2.259356
 H    0.801047    2.681615   -0.008492
 H    1.169527    2.984042   -1.703159
 H   -1.160750    2.976595   -2.332306
 H   -1.638076    2.082901   -0.877107
 H   -2.120024    1.581315    1.588105
 H   -3.534118    5.238185    0.003106
 H   -3.563813    3.457839   -0.100477
 H   -3.438352    4.453268   -1.586852
 H    1.784504   -0.692032    0.290464
 H    4.754914    1.030972   -1.536485
 H    5.643507    0.399305    3.319277
 H    3.818828   -1.277098    1.039542
 H    5.832102   -0.229579    0.710961
 H    6.388763   -1.795881   -0.875403
 H    6.667354   -3.739544    0.701358
 H    5.657240   -2.479806    1.417493
 H    4.909661   -3.941495    0.749334
 H    5.761080   -3.134243   -2.876118
 H    6.800133   -4.071844   -1.787858
 H    5.056305   -4.381371   -1.831790
 H    4.250664   -1.373252   -1.975627
 H    3.452904   -2.605684   -0.995522
 H    3.842360    1.856514    3.111542
 H    3.028083    0.522319    2.295806
 H    6.202583    2.705355    0.368964
 H    6.602612    1.882562    1.872598
 H    5.508077    3.280884    1.902890
 H    3.809922    2.034284    0.605001
 H   -1.077759    2.699479    1.591097
