25 
4hso_ligand_ani.xyz
 N    1.385649   -1.061102   -1.132910
 C    1.775912    0.211385   -0.446320
 C    3.239148    0.013148   -0.072091
 O    3.822646    1.096791    0.449404
 C    0.915701    0.472756    0.807273
 C   -0.556925    0.307650    0.521577
 C   -1.248068    1.233969   -0.261473
 C   -1.265906   -0.795602    1.005833
 C   -2.598535    1.072225   -0.551853
 C   -2.614808   -0.975105    0.724146
 C   -3.284801   -0.036751   -0.060457
 O   -4.605571   -0.256906   -0.310115
 O    3.793831   -1.053925   -0.214082
 H    1.277186   -0.931556   -2.153324
 H    2.181424   -1.706953   -0.939328
 H    0.503778   -1.414847   -0.731858
 H    1.690693    1.047770   -1.136252
 H    4.735719    0.847476    0.672014
 H    1.134307    1.482546    1.165636
 H    1.216386   -0.214686    1.608017
 H   -0.719779    2.099078   -0.659397
 H   -0.749010   -1.525987    1.627371
 H   -3.118982    1.809277   -1.162432
 H   -3.161590   -1.836237    1.094989
 H   -4.947224    0.462088   -0.856523
