25 
4hso_ligand_dft.xyz
 N    1.343050   -1.153346   -0.997894
 C    1.760360    0.169535   -0.422912
 C    3.242078    0.019966   -0.101672
 O    3.800756    1.183679    0.168285
 C    0.920411    0.472043    0.840816
 C   -0.554100    0.322492    0.558250
 C   -1.263443    1.322329   -0.113606
 C   -1.230637   -0.857582    0.900804
 C   -2.603478    1.156517   -0.432938
 C   -2.569057   -1.039767    0.579693
 C   -3.264051   -0.029490   -0.091012
 O   -4.557957   -0.262555   -0.373832
 O    3.776960   -1.063657   -0.069801
 H    1.454931   -1.196321   -2.014027
 H    1.959152   -1.877240   -0.591681
 H    0.351441   -1.333088   -0.763788
 H    1.594088    0.936310   -1.181748
 H    4.732390    1.045543    0.415839
 H    1.177174    1.487220    1.156099
 H    1.231378   -0.204113    1.645876
 H   -0.770438    2.255437   -0.376355
 H   -0.716962   -1.632657    1.468187
 H   -3.140093    1.953267   -0.941393
 H   -3.097574   -1.944437    0.859115
 H   -4.963401    0.507512   -0.792623
