32 
4ht0_ligand_xtb.xyz
 F   -3.004264   -1.814932    1.077678
 C   -2.041329   -1.194636    0.391861
 C   -2.297574    0.046005   -0.166248
 S   -3.913776    0.793740    0.163789
 O   -3.998519    0.944836    1.580514
 N   -4.906874   -0.431458   -0.357524
 O   -4.116485    1.916651   -0.685974
 C   -1.289497    0.675255   -0.875572
 F   -1.490575    1.867174   -1.429353
 C   -0.046361    0.066101   -1.035161
 F    0.877558    0.677867   -1.779262
 C   -0.797456   -1.799944    0.257104
 F   -0.577050   -2.990322    0.817341
 C    0.227998   -1.167997   -0.446798
 S    1.814324   -1.937772   -0.581950
 C    2.830477   -0.581326   -0.067570
 N    4.116102   -0.725660   -0.303999
 C    4.909775    0.263216    0.095992
 C    6.368456    0.111208   -0.170099
 C    4.380182    1.389234    0.722595
 C    3.006128    1.430342    0.933692
 N    2.232929    0.420278    0.542680
 C    2.320268    2.584759    1.580005
 H   -5.298598   -0.980659    0.389747
 H   -5.598368   -0.112292   -1.014484
 H    6.570248   -0.892996   -0.529895
 H    6.680677    0.829455   -0.926986
 H    6.941516    0.303382    0.734539
 H    5.016170    2.200442    1.037677
 H    2.973680    3.073838    2.297403
 H    2.043962    3.309001    0.813676
 H    1.409436    2.248936    2.068044
