32 
4ht2_ligand_xtb.xyz
 F    3.011315   -1.811930   -1.073018
 C    2.044651   -1.190750   -0.393462
 C    2.297517    0.051439    0.162808
 S    3.917630    0.794267   -0.157871
 O    4.112518    1.926209    0.681858
 N    4.901056   -0.427665    0.389378
 O    4.019816    0.929642   -1.574863
 C    1.286597    0.680850    0.867967
 F    1.484617    1.873643    1.420947
 C    0.044039    0.070094    1.025041
 F   -0.882709    0.681722    1.765929
 C    0.801061   -1.797227   -0.261961
 F    0.583975   -2.989015   -0.820542
 C   -0.227111   -1.165572    0.438350
 S   -1.810990   -1.939346    0.575565
 C   -2.831346   -0.584373    0.065336
 N   -2.238944    0.412447   -0.557309
 C   -3.014723    1.422031   -0.945083
 C   -2.333316    2.571361   -1.604855
 C   -4.386088    1.384960   -0.717568
 C   -4.910490    0.263626   -0.078052
 N   -4.114392   -0.724570    0.318183
 C   -6.367317    0.114215    0.200154
 H    5.583162   -0.103567    1.053660
 H    5.302851   -0.985275   -0.346193
 H   -2.017541    3.282927   -0.841908
 H   -1.445432    2.225852   -2.127392
 H   -3.003127    3.077846   -2.294433
 H   -5.024312    2.196007   -1.028468
 H   -6.712518    0.931565    0.830778
 H   -6.930923    0.145443   -0.730678
 H   -6.546760   -0.831534    0.701923
