67 
4htx_ligand_xtb.xyz
 C   -6.595450   -2.096663   -0.051986
 O   -5.351290   -2.391548   -0.647124
 C   -4.348098   -1.474021   -0.702158
 C   -3.213894   -1.929809   -1.369407
 C   -4.338422   -0.172026   -0.165515
 O   -5.451904    0.268782    0.503190
 C   -5.443194    1.565893    1.045122
 C   -3.200329    0.607976   -0.334679
 C   -2.087396    0.136563   -1.005688
 C   -2.086760   -1.143340   -1.535209
 C   -0.850114   -1.688186   -2.206177
 C    0.195056   -1.882866   -1.152796
 N   -0.095179   -2.760769   -0.144149
 C    0.731030   -2.996048    0.963352
 O    0.392846   -3.770176    1.830232
 N    1.273803   -1.195960   -1.207281
 N    2.140325   -1.368317   -0.184360
 C    1.939487   -2.222067    0.895646
 C    3.053423   -2.058446    1.700960
 C    3.362511   -2.733752    2.983484
 N    3.877742   -1.148471    1.133010
 C    3.317821   -0.744663    0.006468
 C    3.875449    0.260564   -0.938745
 C    5.403069    0.024046   -1.067283
 C    6.042707    0.910290   -2.131476
 O    6.061246    0.256562    0.148274
 C    3.554793    1.682332   -0.451231
 C    2.064323    1.889475   -0.193763
 C    1.755084    3.359296    0.112576
 C    0.293587    3.563234    0.389270
 C   -0.583271    3.899586   -0.634453
 C   -1.928070    4.098856   -0.377719
 C   -2.417056    3.956979    0.910290
 C   -1.556427    3.597751    1.934094
 C   -0.212266    3.401639    1.673177
 H   -7.091545   -1.259836   -0.547415
 H   -7.190269   -3.000657   -0.182515
 H   -6.493789   -1.878413    1.012640
 H   -3.257413   -2.931977   -1.768992
 H   -6.413237    1.683272    1.526519
 H   -5.331155    2.326350    0.265730
 H   -4.651032    1.686482    1.790709
 H   -3.163619    1.606578    0.067649
 H   -1.221558    0.772398   -1.107823
 H   -0.462807   -0.986215   -2.944216
 H   -1.069572   -2.639653   -2.693492
 H   -0.989391   -3.235275   -0.148953
 H    2.535189   -3.379830    3.262163
 H    4.270491   -3.326359    2.883612
 H    3.532516   -1.993842    3.763457
 H    3.400068    0.097430   -1.911012
 H    5.537477   -1.032551   -1.366851
 H    6.031949    1.946239   -1.807679
 H    7.077955    0.611090   -2.267740
 H    5.515527    0.814092   -3.076459
 H    5.584718   -0.244012    0.833262
 H    3.883974    2.390858   -1.212224
 H    4.122344    1.873473    0.461078
 H    1.494429    1.572698   -1.070855
 H    1.740359    1.277104    0.650960
 H    2.057625    3.972268   -0.739098
 H    2.340922    3.669464    0.980364
 H   -0.206093    4.020678   -1.640176
 H   -2.595123    4.371382   -1.183138
 H   -3.463208    4.133984    1.118031
 H   -1.932421    3.480040    2.940418
 H    0.457101    3.132844    2.478011
