27 
4hu1_ligand_xtb.xyz
 O   -3.482813   -1.264735   -0.726708
 S   -2.927104    0.049382   -0.679110
 O   -3.091098    0.893791   -1.821524
 C   -3.552065    0.882927    0.813927
 C   -3.321895   -0.044692    1.986051
 O   -1.924987   -0.160544    2.173442
 C   -1.113955   -0.070626   -0.410800
 C   -0.428062   -1.271514   -0.366546
 F   -1.069794   -2.429696   -0.456715
 C    0.963064   -1.289646   -0.201157
 F    1.584881   -2.461337   -0.143160
 C    1.671967   -0.108117   -0.094200
 S    3.462579   -0.027019    0.209090
 O    4.054636   -1.296915   -0.031123
 N    3.906562    0.993790   -1.019153
 O    3.613067    0.608264    1.477130
 C    0.982593    1.091877   -0.133956
 F    1.654577    2.238055   -0.018088
 C   -0.398754    1.111103   -0.297840
 F   -1.042314    2.278849   -0.322161
 H   -4.608725    1.057710    0.634396
 H   -3.022144    1.822953    0.920629
 H   -3.762236   -1.021445    1.748651
 H   -3.799718    0.359919    2.889100
 H   -1.754620   -0.770581    2.899446
 H    4.640323    0.616814   -1.594315
 H    4.079631    1.940692   -0.725008
