27 
4hu1_ligand_dft.xyz
 O   -3.415906   -1.144413   -0.986574
 S   -2.883477    0.180945   -0.718152
 O   -3.071010    1.268090   -1.665690
 C   -3.511978    0.723711    0.883646
 C   -3.500777   -0.371693    1.931309
 O   -2.152647   -0.664736    2.233358
 C   -1.097785    0.040100   -0.454028
 C   -0.423624   -1.174799   -0.479813
 F   -1.047346   -2.324558   -0.666160
 C    0.960200   -1.230929   -0.298908
 F    1.522955   -2.427478   -0.329230
 C    1.698501   -0.073294   -0.079357
 S    3.484043   -0.092139    0.220563
 O    3.988740   -1.355072   -0.262797
 N    4.105978    1.064392   -0.772693
 O    3.656090    0.366258    1.579916
 C    1.009837    1.135886   -0.019111
 F    1.666046    2.277337    0.213231
 C   -0.358752    1.195667   -0.208843
 F   -0.954220    2.381863   -0.117135
 H   -4.532453    1.049903    0.659073
 H   -2.924414    1.592761    1.188553
 H   -4.032305   -1.248731    1.541117
 H   -4.041525   -0.002963    2.815334
 H   -2.123088   -1.479667    2.746718
 H    4.111887    0.813194   -1.754051
 H    3.808221    2.010481   -0.567902
