27 
4hu1_ligand_ani.xyz
 O  -38.807272  -34.221511   19.673874
 S  -39.157735  -34.090601   21.088707
 O  -39.484312  -32.795304   21.662676
 C  -40.548521  -35.205453   21.367044
 C  -40.509563  -36.340576   20.338552
 O  -39.246309  -36.942389   20.253475
 C  -37.878374  -34.842866   22.059467
 C  -36.703708  -35.342035   21.507793
 F  -36.506847  -35.372725   20.190602
 C  -35.689923  -35.855068   22.311223
 F  -34.598326  -36.299115   21.704290
 C  -35.836604  -35.900254   23.693585
 S  -34.597547  -36.495713   24.796532
 O  -34.251463  -35.406951   25.690821
 N  -35.458036  -37.640935   25.647912
 O  -33.592298  -37.211165   24.040113
 C  -37.020162  -35.422811   24.242365
 F  -37.204475  -35.452442   25.562495
 C  -38.028807  -34.915668   23.441155
 F  -39.163145  -34.518725   24.024845
 H  -41.450409  -34.593232   21.257642
 H  -40.482747  -35.564720   22.397712
 H  -41.224159  -37.110295   20.649311
 H  -40.839709  -35.944468   19.368168
 H  -38.686998  -36.308458   19.771801
 H  -34.915317  -38.494100   25.725940
 H  -35.767235  -37.285419   26.545903
