59 
4hvb_ligand_ani.xyz
 C    0.022384    2.496319   -0.023875
 C   -0.616560    3.758527   -0.042832
 C   -1.977079    3.812386   -0.103106
 C   -2.726793    2.607396   -0.121754
 C   -2.004390    1.382351   -0.079320
 N   -0.649348    1.361570   -0.088167
 N   -4.089511    2.719991   -0.178293
 C   -4.798926    1.623295   -0.176468
 C   -4.187442    0.356342   -0.105005
 C   -2.807711    0.198250   -0.037538
 C    1.498953    2.392149    0.043271
 C    2.125321    1.262632   -0.465408
 N    3.446710    1.074312   -0.472184
 C    4.226296    2.023625    0.063044
 C    3.687774    3.188841    0.606964
 C    2.316563    3.377651    0.596151
 C    5.708686    1.776607    0.057616
 N   -4.769406   -0.885360   -0.073213
 C   -3.787305   -1.850266    0.031630
 N   -2.568935   -1.172544    0.057562
 C   -1.343211   -1.949035    0.210106
 C   -0.465981   -1.893417   -1.036650
 C    0.768471   -2.774028   -0.857676
 N    1.488506   -2.407058    0.362209
 C    0.688602   -2.442796    1.585910
 C   -0.549711   -1.563986    1.454131
 O   -3.957323   -3.053699    0.089596
 C   -6.175211   -1.210396   -0.134384
 C    2.842692   -2.315646    0.492683
 O    3.384070   -2.181107    1.582326
 C    3.699582   -2.389423   -0.787717
 O    3.229223   -1.489331   -1.765047
 C    5.163685   -2.133508   -0.465951
 H   -0.029457    4.672294   -0.039815
 H   -2.520231    4.752263   -0.129672
 H   -5.885561    1.716023   -0.225978
 H    1.504098    0.488670   -0.908992
 H    4.346036    3.944761    1.027611
 H    1.888526    4.279269    1.030326
 H    5.981143    0.995800    0.778201
 H    6.041982    1.448678   -0.932593
 H    6.259893    2.680845    0.330148
 H   -1.702955   -2.975428    0.330905
 H   -1.037058   -2.237276   -1.905010
 H   -0.174686   -0.854687   -1.220488
 H    0.458323   -3.830062   -0.799230
 H    1.432667   -2.659582   -1.712484
 H    1.330391   -2.104107    2.398808
 H    0.399258   -3.483268    1.804564
 H   -0.253414   -0.512252    1.379277
 H   -1.182719   -1.673551    2.340352
 H   -6.711318   -0.795829    0.725108
 H   -6.250618   -2.297854   -0.114830
 H   -6.621715   -0.832959   -1.059437
 H    3.586710   -3.396663   -1.210726
 H    3.458611   -0.590585   -1.452060
 H    5.761741   -2.227030   -1.377286
 H    5.288862   -1.116313   -0.076287
 H    5.525504   -2.837650    0.286252
