31 
4hxr_ligand_dft.xyz
 C    2.508871    2.256405    0.624464
 C    1.948289    3.232191   -0.242200
 C    1.687226    2.732495   -1.487516
 S    2.119217    1.077423   -1.637905
 C    2.656113    1.046327    0.003235
 S    3.250056   -0.422942    0.774031
 O    3.820978   -1.257669   -0.262948
 O    3.973381   -0.031501    1.967455
 N    1.880352   -1.212060    1.355132
 C    0.817898   -1.523564    0.462632
 C   -0.408258   -0.873053    0.587486
 C    1.013296   -2.470492   -0.542657
 C   -0.025485   -2.748014   -1.423949
 C   -1.257324   -2.118052   -1.293520
 C   -1.458775   -1.172971   -0.283623
 C   -2.748816   -0.477157   -0.162764
 C   -3.561353   -0.079571   -1.160558
 S   -4.976737    0.760079   -0.569802
 C   -4.441948    0.546973    1.136131
 O   -5.034468    0.902425    2.124545
 N   -3.230501   -0.111679    1.092193
 H    2.810260    2.431941    1.650203
 H    1.757236    4.259190    0.043535
 H    1.270129    3.257902   -2.336269
 H    1.591399   -0.773147    2.223715
 H   -0.525735   -0.095365    1.338598
 H    1.970641   -2.971174   -0.623630
 H    0.120978   -3.486444   -2.205619
 H   -2.076224   -2.373037   -1.958779
 H   -3.372878   -0.187767   -2.218502
 H   -2.832872   -0.444031    1.958890
