37 
4hxs_ligand_dft.xyz
 C    4.070332   -0.062679    1.811684
 C    5.079232    0.838089    2.138275
 C    6.141538    1.041092    1.261765
 C    6.191066    0.342363    0.057993
 C    5.183906   -0.559159   -0.268613
 C    4.117906   -0.771545    0.609091
 C    3.011292   -1.724435    0.250713
 S    1.835602   -1.028135   -0.928310
 O    2.559733   -0.675186   -2.141213
 O    0.672503   -1.896677   -0.990590
 N    1.382905    0.377843   -0.089395
 C    0.117518    0.969255   -0.372982
 C   -1.051001    0.302592   -0.015385
 C    0.051724    2.240617   -0.943388
 C   -1.186159    2.837436   -1.153521
 C   -2.357207    2.163179   -0.830907
 C   -2.293905    0.883569   -0.268031
 C   -3.516477    0.134523    0.058052
 C   -3.704074   -1.195596   -0.039776
 S   -5.326438   -1.668774    0.408124
 C   -5.773015    0.038761    0.762748
 O   -6.835793    0.432733    1.177056
 N   -4.661749    0.804772    0.481936
 H    3.237010   -0.216326    2.491946
 H    5.035422    1.379784    3.078138
 H    6.930344    1.742419    1.516346
 H    7.016118    0.499452   -0.629816
 H    5.213756   -1.092365   -1.214058
 H    2.417219   -2.022458    1.117131
 H    3.380711   -2.624136   -0.251404
 H    2.148544    1.044124   -0.154969
 H   -0.989069   -0.666036    0.464773
 H    0.964715    2.757609   -1.225403
 H   -1.236336    3.826467   -1.597570
 H   -3.318943    2.618499   -1.048872
 H   -2.985442   -1.913949   -0.407479
 H   -4.676367    1.783812    0.728105
