85 
4hy4_ligand_ani.xyz
 N   -3.619198    2.363202   -0.006219
 C   -4.734483    3.239055   -0.368947
 C   -2.374272    3.051017    0.473976
 C   -2.225300    3.089182    2.001191
 C   -1.232306    2.293425   -0.234464
 O   -1.529200    1.479086   -1.105927
 N    0.051022    2.593219    0.104922
 C    1.120174    1.687663   -0.277319
 C    1.236661    0.570893    0.784158
 O    0.864804    0.778595    1.930460
 C    2.473172    2.405222   -0.464603
 C    2.922630    3.192884    0.773385
 C    4.299604    3.821796    0.548013
 C    4.285447    4.738368   -0.678137
 C    3.808173    3.988467   -1.924674
 C    2.449272    3.321374   -1.694305
 N    1.833186   -0.612666    0.414160
 C    2.056780   -1.613377    1.475591
 C    3.265391   -2.450910    1.097155
 C    3.612747   -3.648619    1.974882
 C    4.418135   -4.580677    1.039269
 C    4.188004   -4.029588   -0.387420
 N    3.063848   -3.073324   -0.251388
 C    2.912805   -2.032961   -1.288488
 C    1.686369   -1.188478   -0.937961
 C    0.411189   -2.067840   -0.985524
 O    0.487083   -3.293797   -0.906805
 N   -0.769017   -1.406600   -1.018902
 C   -2.048656   -2.081121   -0.907281
 C   -2.722755   -2.167026   -2.282509
 C   -4.123164   -2.755857   -2.160875
 C   -5.000908   -1.833936   -1.318708
 C   -4.343350   -1.411496   -0.017334
 C   -5.146334   -0.992880    1.050866
 C   -4.593711   -0.549254    2.244055
 C   -3.207186   -0.493817    2.373512
 C   -2.396773   -0.905925    1.321010
 C   -2.947963   -1.414331    0.135660
 H   -3.927949    1.691603    0.730856
 H   -3.276241    1.795824   -0.816129
 H   -5.207022    3.694870    0.512120
 H   -4.391382    4.059664   -1.010922
 H   -5.497969    2.682078   -0.917034
 H   -2.392479    4.075291    0.086612
 H   -3.167266    3.405839    2.462038
 H   -1.949830    2.108835    2.412197
 H   -1.457618    3.807511    2.301494
 H    0.172530    3.003645    1.022297
 H    0.824744    1.277496   -1.243999
 H    3.219810    1.615441   -0.642501
 H    2.920784    2.547473    1.660873
 H    2.202145    4.000315    0.973766
 H    5.040744    3.023298    0.399440
 H    4.613298    4.377896    1.439401
 H    5.279110    5.170960   -0.848339
 H    3.606433    5.581860   -0.484653
 H    3.755875    4.666987   -2.784655
 H    4.546211    3.214809   -2.183429
 H    2.160388    2.749820   -2.586651
 H    1.674230    4.086762   -1.548362
 H    2.215714   -1.073511    2.409804
 H    1.166143   -2.249077    1.599330
 H    4.135413   -1.784548    1.010202
 H    2.691323   -4.139743    2.310593
 H    4.171094   -3.351024    2.865158
 H    5.484847   -4.567332    1.278308
 H    4.077908   -5.616455    1.126239
 H    5.071619   -3.481258   -0.736839
 H    3.955548   -4.801130   -1.124521
 H    2.154348   -3.594343   -0.262481
 H    2.796400   -2.489599   -2.274960
 H    3.809956   -1.400709   -1.300270
 H    1.594269   -0.369446   -1.650025
 H   -0.809713   -0.392899   -1.096024
 H   -1.824601   -3.101575   -0.566713
 H   -2.778585   -1.154085   -2.710046
 H   -2.088359   -2.768909   -2.943339
 H   -4.065023   -3.747775   -1.691631
 H   -4.567437   -2.900350   -3.152556
 H   -5.967471   -2.304832   -1.103437
 H   -5.228634   -0.928026   -1.901133
 H   -6.228151   -1.020184    0.939995
 H   -5.236871   -0.247048    3.067544
 H   -2.757707   -0.152101    3.304257
 H   -1.317301   -0.847726    1.443230
