85 
4hy4_ligand_dft.xyz
 N   -3.798354    1.751814    0.080898
 C   -5.158131    2.327549   -0.095551
 C   -2.683704    2.734348    0.277220
 C   -2.559109    3.151675    1.735686
 C   -1.454241    2.042872   -0.338615
 O   -1.645450    1.211885   -1.232203
 N   -0.249727    2.405973    0.104770
 C    0.947427    1.699941   -0.321363
 C    1.238512    0.622100    0.732620
 O    0.917038    0.811004    1.892020
 C    2.163211    2.636555   -0.507434
 C    2.597080    3.362647    0.774324
 C    3.830820    4.234025    0.512104
 C    3.583252    5.231513   -0.621489
 C    3.133802    4.517057   -1.898010
 C    1.905711    3.637527   -1.643062
 N    1.965784   -0.492824    0.357704
 C    2.323229   -1.421682    1.438108
 C    3.579834   -2.182229    1.055533
 C    4.020951   -3.347382    1.931562
 C    4.897663   -4.215346    0.992623
 C    4.574968   -3.747322   -0.443393
 N    3.382850   -2.855169   -0.274664
 C    3.082933   -1.875062   -1.348164
 C    1.812281   -1.108714   -0.965064
 C    0.592561   -2.061474   -0.920645
 O    0.765619   -3.255501   -0.649692
 N   -0.606839   -1.494276   -1.074943
 C   -1.862091   -2.224497   -0.907514
 C   -2.586414   -2.372058   -2.245727
 C   -3.940676   -3.042087   -2.029428
 C   -4.837516   -2.161837   -1.161066
 C   -4.134477   -1.615711    0.065869
 C   -4.901506   -1.118900    1.128548
 C   -4.308610   -0.586350    2.271049
 C   -2.914410   -0.535536    2.359149
 C   -2.143004   -1.034662    1.314085
 C   -2.733019   -1.584751    0.170893
 H   -3.810261    1.086705    0.873190
 H   -3.520892    1.185692   -0.739073
 H   -5.410116    2.935382    0.773559
 H   -5.172612    2.936580   -0.999845
 H   -5.866097    1.503343   -0.184678
 H   -2.919035    3.598049   -0.354687
 H   -3.520545    3.490433    2.130972
 H   -2.191261    2.328844    2.355524
 H   -1.876905    4.000689    1.830116
 H   -0.174886    2.936174    0.962015
 H    0.703206    1.281193   -1.296948
 H    2.991431    1.979411   -0.814733
 H    2.798984    2.650631    1.581583
 H    1.781989    4.015181    1.122372
 H    4.678437    3.585800    0.250185
 H    4.109299    4.758393    1.431255
 H    4.489846    5.812488   -0.815219
 H    2.810221    5.948209   -0.312555
 H    2.906801    5.243519   -2.684179
 H    3.954232    3.891453   -2.275178
 H    1.622530    3.104697   -2.560116
 H    1.053476    4.275077   -1.370157
 H    2.505752   -0.838814    2.340606
 H    1.501218   -2.116754    1.655904
 H    4.404299   -1.474868    0.905322
 H    3.145215   -3.906101    2.279106
 H    4.564454   -3.001835    2.812134
 H    5.959976   -4.072232    1.196544
 H    4.680765   -5.276509    1.121726
 H    5.375628   -3.142278   -0.875907
 H    4.319567   -4.547917   -1.138468
 H    2.512264   -3.426087   -0.223446
 H    2.941030   -2.417162   -2.285248
 H    3.932874   -1.194514   -1.442807
 H    1.673745   -0.334459   -1.719668
 H   -0.696341   -0.511415   -1.323551
 H   -1.576010   -3.221379   -0.555891
 H   -2.723301   -1.381048   -2.700981
 H   -1.960522   -2.959229   -2.924038
 H   -3.794495   -4.015878   -1.546496
 H   -4.427461   -3.235186   -2.988862
 H   -5.731539   -2.712830   -0.852022
 H   -5.198316   -1.315289   -1.763741
 H   -5.985558   -1.178624    1.064996
 H   -4.925509   -0.239537    3.094635
 H   -2.432140   -0.143931    3.249771
 H   -1.061058   -1.005059    1.402538
