90 
4hy5_ligand_xtb.xyz
 N   -3.087773    3.558965   -0.272693
 C   -4.138732    4.569849   -0.084769
 C   -3.544990    2.200973   -0.669058
 C   -3.589482    2.038825   -2.180233
 C   -2.568273    1.238422    0.037337
 O   -1.838456    1.694582    0.914567
 C   -0.471681   -1.078076   -0.692611
 O   -0.642703   -0.937523   -1.883681
 C   -1.679777   -1.002203    0.252742
 N   -2.604706   -0.036996   -0.312779
 C   -2.337249   -2.392015    0.407584
 C   -3.481665   -2.311692    1.425740
 C   -4.122798   -3.679987    1.640455
 C   -4.592634   -4.247052    0.305362
 F   -5.163105   -5.461334    0.487539
 F   -5.584568   -3.446176   -0.197236
 C   -3.463205   -4.339919   -0.715205
 C   -2.852589   -2.955829   -0.920963
 C    7.667685   -0.104142   -0.778573
 C    7.035101   -1.437619   -1.131520
 O    5.907406   -1.629641   -0.278798
 C    5.234901   -2.849919   -0.422037
 C    4.104949   -2.755793   -1.487439
 C    2.819484   -2.570884   -0.675345
 C    1.857964   -1.493064   -1.144941
 N    0.761546   -1.363483   -0.181005
 C    1.193176   -1.126313    1.190673
 C    2.201842   -2.197176    1.640811
 N    3.305611   -2.206582    0.679603
 C    4.473430   -3.072793    0.894444
 C    1.863597    0.276130    1.205913
 O    3.069870    0.376160    1.019965
 N    1.032105    1.300132    1.334003
 C    1.436464    2.691951    1.185992
 C    1.107991    3.471727    2.461802
 C    1.225753    4.962433    2.172043
 O    0.290591    5.373613    1.188757
 C    0.178409    4.591564    0.097394
 C   -0.538341    5.120253   -0.981988
 C   -0.715439    4.380511   -2.140419
 C   -0.168406    3.106148   -2.239584
 C    0.527852    2.580051   -1.167856
 C    0.702990    3.297462    0.008969
 H   -2.373824    3.910873   -0.954701
 H   -2.551822    3.391379    0.611747
 H   -3.688786    5.516731    0.205441
 H   -4.830624    4.258078    0.695273
 H   -4.691785    4.715183   -1.010748
 H   -4.541688    2.042007   -0.239668
 H   -4.138568    1.144038   -2.458776
 H   -4.109952    2.878942   -2.633697
 H   -2.588147    1.977463   -2.598893
 H   -1.422237   -0.621428    1.243238
 H   -3.122459   -0.341303   -1.124627
 H   -1.568165   -3.069050    0.797110
 H   -3.114292   -1.935044    2.382051
 H   -4.245016   -1.621822    1.060856
 H   -4.982396   -3.595697    2.306390
 H   -3.417048   -4.385791    2.079264
 H   -2.727039   -5.054623   -0.346552
 H   -3.869994   -4.718192   -1.653661
 H   -2.049070   -3.015630   -1.655025
 H   -3.634871   -2.311283   -1.326625
 H    6.953688    0.701673   -0.923315
 H    8.530959    0.068264   -1.413034
 H    7.986248   -0.105315    0.259549
 H    6.715308   -1.448282   -2.181912
 H    7.748392   -2.257211   -0.977852
 H    5.937536   -3.662996   -0.636792
 H    4.058965   -3.646175   -2.109054
 H    4.295287   -1.897113   -2.130427
 H    2.285494   -3.523642   -0.582140
 H    1.416466   -1.755020   -2.108610
 H    2.391427   -0.542281   -1.261009
 H    0.342788   -1.151353    1.870813
 H    2.578642   -1.945073    2.634561
 H    1.733403   -3.185039    1.676391
 H    3.644689   -1.198991    0.660414
 H    5.060845   -2.744087    1.750067
 H    4.159131   -4.109855    1.019643
 H    0.030462    1.174431    1.434788
 H    2.517464    2.692435    1.003917
 H    1.786380    3.197155    3.267473
 H    0.084849    3.242799    2.770552
 H    2.239106    5.205656    1.831005
 H    0.997370    5.559078    3.056100
 H   -0.906259    6.130641   -0.898139
 H   -1.229170    4.817820   -2.983447
 H   -0.257743    2.539785   -3.152853
 H    0.955996    1.592752   -1.252516
