53 
4hyf_ligand_ani.xyz
Cl  -45.422577   71.409408   19.931900
 C  -44.934931   70.196743   17.572707
 C  -44.183431   69.437753   16.683145
 C  -42.939486   68.947255   17.064156
 C  -42.452220   69.219852   18.335997
 C  -43.187261   69.990969   19.235292
 C  -44.443368   70.471629   18.845661
 N  -42.632029   70.270701   20.517853
 C  -42.383769   71.491952   21.112126
 N  -42.169353   71.334711   22.390337
 N  -42.261910   70.008628   22.678666
 C  -42.542143   69.376181   21.563137
 C  -42.751658   67.942850   21.433045
 C  -42.634682   67.135147   22.494490
 C  -42.852847   65.705604   22.430627
 N  -42.753496   64.842240   23.390993
 N  -43.056383   63.611406   22.844768
 C  -43.318529   63.814130   21.593625
 C  -43.695968   62.847087   20.564463
 C  -43.811120   61.497719   20.907134
 C  -44.167801   60.567836   19.944614
 C  -44.410784   60.988953   18.631715
 C  -44.295296   62.341735   18.287797
 C  -43.938337   63.268231   19.253811
 C  -44.782055   60.023951   17.628031
 N  -45.080572   59.248348   16.820827
 O  -43.209925   65.122783   21.257044
 C  -42.306867   72.780805   20.397414
 C  -41.969512   72.856808   19.039721
 C  -41.918370   74.099876   18.434144
 C  -42.212877   75.218066   19.208612
 C  -42.495696   75.055429   20.562262
 N  -42.537169   73.865015   21.145301
 S  -42.203496   76.833040   18.478478
 O  -41.457908   76.741955   17.228002
 O  -41.838795   77.794850   19.513271
 C  -43.912423   77.130218   18.060696
 H  -45.910011   70.581970   17.287118
 H  -44.574153   69.229213   15.691719
 H  -42.348032   68.350086   16.377392
 H  -41.484248   68.843465   18.655391
 H  -43.011335   67.557466   20.449735
 H  -42.366852   67.530523   23.471525
 H  -43.616803   61.198723   21.932971
 H  -44.260393   59.516672   20.199334
 H  -44.486258   62.656223   17.265957
 H  -43.845989   64.318764   18.998006
 H  -41.741646   71.957313   18.480210
 H  -41.651659   74.218379   17.388363
 H  -42.681192   75.914712   21.202471
 H  -43.950324   78.126543   17.614348
 H  -44.250535   76.380774   17.342494
 H  -44.516526   77.104311   18.970106
