42 
4hys_ligand_xtb.xyz
 N   -0.058666    3.594800    0.134420
 C    0.327347    2.324122   -0.028557
 N   -0.485108    1.263514   -0.082137
 C   -1.359419    3.809066    0.223443
 C   -2.298687    2.796076    0.163881
 C   -1.784547    1.505391    0.014271
 N   -2.636320    0.418131   -0.031042
 N    1.649120    2.117034   -0.172969
 C    2.250939    0.807714   -0.259860
 C    2.397313    0.154729    1.120327
 C    3.021856   -1.228392    0.987898
 C    4.386982   -1.144299    0.307376
 C    4.247992   -0.476199   -1.065115
 C    3.616169    0.906356   -0.936415
 O    4.890671   -2.459816    0.200721
 C   -4.541909   -0.564554   -0.096779
 N   -3.972926    0.605731   -0.051149
 C   -3.570594   -1.604276   -0.102444
 C   -2.332734   -0.921726   -0.058175
 C   -1.125335   -1.609561   -0.029881
 C   -1.186700   -2.985544   -0.054962
 C   -2.406118   -3.671636   -0.108076
 C   -3.604993   -2.998274   -0.131174
 H   -1.652900    4.842914    0.352549
 H   -3.357388    2.963979    0.236330
 H    2.237507    2.915807    0.002403
 H    1.579871    0.195812   -0.872403
 H    1.414945    0.080344    1.588359
 H    3.025963    0.787550    1.751507
 H    2.382156   -1.877727    0.388126
 H    3.141738   -1.692379    1.967190
 H    5.064908   -0.538285    0.933387
 H    3.625086   -1.111965   -1.697929
 H    5.231518   -0.391537   -1.535967
 H    4.266819    1.549551   -0.337994
 H    3.507219    1.358931   -1.923364
 H    5.727097   -2.438326   -0.276390
 H   -5.610585   -0.648329   -0.123785
 H   -0.192566   -1.075694    0.013919
 H   -0.269843   -3.556031   -0.031096
 H   -2.397305   -4.751426   -0.127798
 H   -4.547679   -3.523086   -0.167226
