46 
4hzw_ligand_ani.xyz
 C    0.488572    2.175881   -0.135801
 C   -0.844243    2.253515   -0.184207
 C   -1.691105    1.016266   -0.198557
 C   -0.852854   -0.163374    0.376172
 C    0.507972   -0.176520   -0.324894
 O    1.193712    1.031451   -0.025643
 C    1.413367    3.350989   -0.137783
 O    2.615991    3.274624   -0.073448
 O    0.755296    4.524462   -0.222251
 C    1.410669   -1.313648    0.138702
 C    2.778230   -1.316996   -0.567210
 C    3.774399   -0.273876   -0.043164
 O    5.039613   -0.664729   -0.589144
 O    1.541561   -1.215840    1.537229
 C    1.796798   -2.443417    2.189290
 O    3.325630   -2.605461   -0.368547
 N   -2.943720    1.246499    0.507747
 C   -4.087526    0.481890    0.289257
 N   -4.981386    0.573003    1.362738
 N   -4.391771   -0.258247   -0.708581
 C   -1.964851   -1.974667   -0.905661
 C   -2.879187   -3.171675   -0.776991
 O   -1.665154   -1.491011   -1.992330
 N   -1.542630   -1.441701    0.273678
 H   -1.331388    3.218239   -0.231321
 H   -1.950388    0.761578   -1.233991
 H   -0.678059    0.012730    1.439594
 H    0.345156   -0.253940   -1.408906
 H    1.433174    5.220830   -0.218549
 H    0.939191   -2.271533   -0.119289
 H    2.624312   -1.153067   -1.648874
 H    3.513065    0.740043   -0.356629
 H    3.792351   -0.329231    1.053688
 H    5.739316   -0.253756   -0.069298
 H    1.738982   -2.243432    3.262450
 H    1.035484   -3.192505    1.927883
 H    2.787160   -2.841064    1.938590
 H    4.278942   -2.501100   -0.520005
 H   -2.823384    1.521207    1.474104
 H   -5.130950    1.517492    1.695725
 H   -5.855863    0.130050    1.112026
 H   -3.674929   -0.249854   -1.428001
 H   -3.912894   -2.811097   -0.790429
 H   -2.729297   -3.827856   -1.636410
 H   -2.710026   -3.730304    0.149031
 H   -1.968054   -1.794478    1.117682
