57 
4i10_ligand_ani.xyz
Cl   -6.304184   -2.126697   -1.511830
 C   -4.690032   -1.597529   -1.128463
 C   -4.173068   -1.841708    0.134920
 C   -2.876862   -1.429229    0.445320
 C   -2.123603   -0.731688   -0.507180
 C   -2.662290   -0.513872   -1.785728
 C   -3.937843   -0.945147   -2.103210
 C   -2.247775   -1.698762    1.789368
 C   -0.717190   -1.874620    1.653643
 N   -0.120832   -0.771483    0.892725
 C   -0.759518   -0.285958   -0.117257
 N   -0.202375    0.697595   -0.908957
 C    0.961875    1.517123   -0.574547
 C    0.849109    2.240059    0.788513
 C   -0.405446   -3.225913    0.983993
 C   -0.075293   -1.848055    3.044446
 C    2.304560    0.820480   -0.679677
 N    2.457594   -0.326708    0.030639
 C    4.511939    0.838103   -1.432133
 N    3.239682    1.414575   -1.354256
 O    5.395831    1.367344   -2.073479
 C   -0.355243    3.149579    0.840058
 C   -1.510305    2.781940    1.530498
 C   -2.635368    3.602637    1.530169
 C   -2.615544    4.807032    0.833788
 C   -1.469795    5.184697    0.138765
 C   -0.351084    4.357995    0.138724
 C    4.715112   -0.433638   -0.690870
 C    3.664043   -0.985017    0.041371
 C    3.884526   -2.173136    0.747688
 C    5.141113   -2.746102    0.669575
 N    6.164777   -2.240704   -0.033897
 C    5.938912   -1.110041   -0.691361
 H   -4.781473   -2.359336    0.871675
 H   -2.063593   -0.034632   -2.556809
 H   -4.358143   -0.769861   -3.089130
 H   -2.672944   -2.600544    2.243382
 H   -2.457570   -0.867280    2.477800
 H   -0.901624    1.230441   -1.406799
 H    1.008168    2.277371   -1.357319
 H    0.793234    1.487389    1.577074
 H    1.774078    2.813402    0.928376
 H   -0.892312   -3.320520    0.007406
 H   -0.756395   -4.046186    1.620150
 H    0.675390   -3.332185    0.844458
 H    1.007062   -1.984719    2.953144
 H   -0.477807   -2.643930    3.682033
 H   -0.258635   -0.881209    3.522386
 H    1.640827   -0.698868    0.539219
 H   -1.522426    1.843147    2.081723
 H   -3.528018    3.305498    2.075645
 H   -3.491048    5.451749    0.831913
 H   -1.448480    6.123701   -0.408954
 H    0.540294    4.650423   -0.415294
 H    3.098502   -2.632918    1.341208
 H    5.348801   -3.671469    1.202471
 H    6.767090   -0.692697   -1.263059
