52 
4i1r_ligand_dft.xyz
 C   -1.842279   -1.819095    2.169332
 C    6.464634   -0.880235    0.062534
 C   -1.874446    2.989345   -2.014675
 C   -1.938733    3.783119   -0.874423
 C   -4.632574   -1.906925   -0.356010
 C   -4.555718   -0.948240    0.833568
 C   -3.446458   -2.873988   -0.337387
 C   -1.204724    1.767942   -1.991038
 C   -1.323809    3.358668    0.299845
 C    3.835370    0.226049    1.120466
 C    2.734054    0.843154    1.706167
 C   -1.719132   -1.461783   -1.619607
 C   -3.223064   -0.214909    0.854443
 C   -0.263306   -0.983042   -1.675895
 C    2.443663   -0.476381   -0.725404
 C   -2.093389   -2.157182   -0.304164
 C    3.699283   -0.434512   -0.101753
 C   -0.618421    1.318686   -0.808505
 C    1.336415    0.094783   -0.113934
 C   -0.681074    2.125903    0.336586
 C    1.485485    0.765310    1.106102
 N   -2.052749   -1.165298    0.849991
 N    0.020356    0.044387   -0.673868
 S    5.017250   -1.238094   -0.961930
 S    0.038375    1.495291    1.836895
 H   -2.681615   -2.470619    2.408948
 H   -1.741603   -1.039200    2.924851
 H   -0.920368   -2.400581    2.126371
 H    6.378041   -1.332873    1.053181
 H    7.311788   -1.334766   -0.455228
 H    6.640485    0.194902    0.145086
 H   -2.332626    3.326190   -2.938674
 H   -2.450342    4.739103   -0.901250
 H   -4.644167   -1.335753   -1.292294
 H   -5.567532   -2.472453   -0.324192
 H   -5.346858   -0.194868    0.779825
 H   -4.710385   -1.491943    1.772998
 H   -3.528534   -3.537977    0.531383
 H   -3.458463   -3.525063   -1.216696
 H   -1.144335    1.177729   -2.899046
 H   -1.341619    3.981094    1.189026
 H    4.794741    0.284717    1.619971
 H    2.850462    1.379920    2.642358
 H   -1.852740   -2.202513   -2.414997
 H   -2.410235   -0.645340   -1.848208
 H   -3.101688    0.419260    1.734988
 H   -3.112505    0.421525   -0.026492
 H    0.384968   -1.833346   -1.448267
 H   -0.010784   -0.658821   -2.694103
 H    2.354537   -0.947610   -1.699047
 H   -1.306446   -2.882541   -0.070622
 H   -1.206099   -0.586940    0.670340
