136 
4i2w_ligand_dft.xyz
 N   -0.777190    2.825231   -0.528650
 C   -1.368532    4.166539   -0.263883
 C   -2.683345    4.124207    0.521073
 O   -3.257309    5.177080    0.742293
 C   -1.572415    4.886611   -1.592785
 N   -3.133756    2.917414    0.944652
 C   -4.398329    2.805990    1.609564
 C   -5.412094    2.015806    0.789891
 O   -5.221631    1.675775   -0.383277
 N   -6.555187    1.716425    1.429642
 C   -7.541418    0.858180    0.807062
 C   -6.902210   -0.491719    0.462245
 O   -6.162036   -1.042392    1.265829
 N   -7.167783   -1.019547   -0.757996
 C   -6.558994   -2.295116   -1.119194
 C   -5.042322   -2.202638   -1.285764
 O   -4.358773   -3.220884   -1.289427
 C   -7.254772   -2.653920   -2.440855
 C   -7.529617   -1.285473   -3.071674
 C   -7.901294   -0.402352   -1.874030
 N   -4.519125   -0.961803   -1.477430
 C   -3.076737   -0.787443   -1.508537
 C   -2.555511   -0.718134   -0.065600
 O   -2.186246    0.331655    0.480710
 C   -2.618523    0.359593   -2.422463
 O   -2.862385    1.669688   -1.919223
 C   -3.213213    0.220754   -3.818579
 N   -2.551181   -1.895432    0.569210
 C   -2.290003   -2.024716    2.002454
 C   -0.761542   -2.149250    2.190059
 O   -0.174262   -3.190612    2.441808
 C   -3.142655   -3.144692    2.618471
 C   -2.878886   -3.273603    4.128239
 C   -2.985645   -4.502465    1.922024
 C   -2.998780   -1.967201    4.914204
 N   -0.132702   -0.962810    1.983780
 C    1.282535   -0.844572    1.732819
 C    1.554819    0.645552    1.485229
 O    0.646755    1.477783    1.478602
 C    1.743932   -1.725483    0.545928
 C    1.064758   -1.420719   -0.801929
 C    1.551250   -0.144514   -1.438087
 O    2.829625   -0.225951   -1.802816
 O    0.889146    0.867390   -1.590197
 N    2.835034    0.977525    1.225501
 C    3.147818    2.234250    0.543760
 C    4.439905    1.981947   -0.232790
 O    4.447980    1.902179   -1.456837
 C    3.195383    3.446588    1.479817
 C    3.594804    4.733064    0.759356
 C    2.643334    5.156588   -0.334502
 O    1.606309    4.599032   -0.635801
 O    3.072456    6.255478   -0.955354
 N    5.557593    1.774540    0.514730
 C    6.578153    0.881489   -0.007525
 C    5.996132   -0.544933    0.010376
 O    5.030689   -0.837207    0.721700
 C    7.897072    0.977594    0.787747
 C    8.529633    2.359053    0.610859
 C    7.720216    0.625243    2.268857
 N    6.589650   -1.451382   -0.777164
 C    6.127707   -2.825490   -0.815846
 C    7.216905   -3.635519   -1.495403
 O    8.243329   -3.163338   -1.923931
 C    4.774126   -2.958627   -1.546582
 C    3.805525   -3.985165   -1.006852
 O    4.201748   -4.564092    0.134899
 O    2.744966   -4.229514   -1.532202
 O    6.889328   -4.924405   -1.580607
 H    0.063623    2.919988   -1.105379
 H   -0.450736    2.318314    0.311769
 H   -1.461785    2.229479   -1.046798
 H   -0.647404    4.710918    0.348544
 H   -0.606348    5.054203   -2.076393
 H   -2.212274    4.294420   -2.254592
 H   -2.051323    5.848409   -1.405526
 H   -2.685080    2.038231    0.695026
 H   -4.778649    3.818993    1.776820
 H   -4.278335    2.320693    2.585982
 H   -6.614549    1.879415    2.423286
 H   -8.344702    0.683557    1.526551
 H   -7.970685    1.361231   -0.060536
 H   -6.727253   -3.038789   -0.338045
 H   -6.639769   -3.308464   -3.061334
 H   -8.193086   -3.173362   -2.222941
 H   -8.320520   -1.310314   -3.823689
 H   -6.621180   -0.902142   -3.547745
 H   -8.979977   -0.420160   -1.680654
 H   -7.586995    0.634689   -2.021657
 H   -5.078215   -0.156194   -1.215278
 H   -2.679976   -1.705787   -1.953652
 H   -1.526536    0.282882   -2.480654
 H   -3.710156    1.725640   -1.433565
 H   -4.298959    0.353217   -3.787262
 H   -2.999247   -0.763712   -4.246951
 H   -2.791981    0.987416   -4.473119
 H   -2.907653   -2.701716    0.062097
 H   -2.598686   -1.074186    2.449140
 H   -4.181021   -2.809517    2.484157
 H   -1.886384   -3.710818    4.280642
 H   -3.603474   -3.995416    4.523226
 H   -3.568649   -5.255820    2.461639
 H   -1.940313   -4.819448    1.913582
 H   -3.368279   -4.495550    0.894893
 H   -3.953581   -1.467193    4.709529
 H   -2.946450   -2.159064    5.990053
 H   -2.190683   -1.266110    4.674623
 H   -0.693321   -0.161626    1.706175
 H    1.849299   -1.165354    2.616329
 H    2.831651   -1.667778    0.446987
 H    1.503008   -2.755007    0.817939
 H    1.291710   -2.250376   -1.479833
 H   -0.017782   -1.354126   -0.676832
 H    3.180002    0.665383   -2.025840
 H    3.542145    0.240354    1.183476
 H    2.379241    2.412527   -0.210156
 H    3.900130    3.267803    2.299853
 H    2.204061    3.549597    1.928610
 H    3.656896    5.563424    1.471737
 H    4.594743    4.653447    0.315290
 H    2.426040    6.480843   -1.644205
 H    5.410360    1.706372    1.513756
 H    6.760704    1.171525   -1.045607
 H    8.570876    0.232481    0.345060
 H    7.878166    3.141598    1.014302
 H    8.712017    2.582281   -0.445350
 H    9.486716    2.410785    1.138135
 H    7.157901    1.400673    2.804357
 H    8.697524    0.557333    2.754598
 H    7.206515   -0.330799    2.411307
 H    7.414000   -1.234541   -1.324865
 H    6.013143   -3.192322    0.208676
 H    4.905320   -3.165119   -2.612836
 H    4.247274   -2.001488   -1.488958
 H    3.495980   -5.176509    0.401102
 H    7.614928   -5.383580   -2.035201
