126 
4i2z_ligand_ani.xyz
 N    2.676483    1.928913   -0.286795
 C    1.945448    1.546165    0.932234
 C    0.694844    2.429815    1.007968
 O    0.652284    3.493918    0.412703
 C    2.809509    1.639109    2.187823
 N   -0.311911    1.947473    1.794363
 C   -1.659548    2.468745    1.728040
 C   -2.417015    1.907698    0.498896
 O   -1.883547    1.176265   -0.330825
 C   -1.734449    4.002378    1.808102
 O   -3.019878    4.334260    2.297360
 N   -3.732882    2.229262    0.420260
 C   -4.524557    1.860317   -0.755337
 C   -4.618821    0.326031   -0.925501
 O   -4.596631   -0.195985   -2.028060
 C   -4.037342    2.506422   -2.060185
 C   -3.860600    4.024049   -1.975114
 C   -5.176736    4.826244   -1.859440
 N   -5.146864    5.878243   -0.846323
 C   -5.308738    5.559156    0.495438
 N   -5.872608    4.527897    1.003504
 N   -4.721276    6.489177    1.363978
 N   -4.751377   -0.369376    0.234078
 C   -4.836397   -1.813379    0.331566
 C   -3.480391   -2.546520    0.273300
 O   -3.454216   -3.739607    0.604277
 C   -5.827686   -2.432931   -0.679913
 C   -6.378132   -3.781216   -0.226357
 S   -7.445178   -4.585568   -1.446523
 C   -8.889377   -3.504267   -1.381354
 N   -2.380987   -1.888567   -0.147196
 C   -1.110905   -2.557338   -0.327303
 C   -0.060515   -1.957601    0.620571
 O   -0.228180   -0.910926    1.230570
 C   -0.680852   -2.566113   -1.804590
 C   -0.430517   -1.199024   -2.444832
 C    0.891815   -0.529206   -2.156925
 O    1.014793    0.683011   -2.149178
 O    1.914327   -1.369516   -1.990451
 N    1.083857   -2.693686    0.738490
 C    2.006398   -2.464760    1.839702
 C    3.459528   -2.256432    1.413333
 O    4.266617   -1.824147    2.224828
 C    1.941256   -3.572514    2.908957
 C    0.551430   -3.719331    3.534365
 C   -0.465191   -4.287523    2.564130
 O   -1.686428   -3.794408    2.759241
 O   -0.197865   -5.091500    1.690998
 N    3.797028   -2.625349    0.145452
 C    5.118311   -2.302344   -0.362662
 C    5.185100   -0.797968   -0.643166
 O    4.227786   -0.203938   -1.156476
 C    5.460791   -3.116532   -1.626164
 C    5.340794   -4.617040   -1.355858
 C    6.866207   -2.781969   -2.134074
 N    6.324329   -0.150185   -0.328076
 C    6.499979    1.256714   -0.604421
 C    7.879357    1.469854   -1.194686
 O    8.708817    0.606105   -1.357291
 C    6.278267    2.151011    0.637888
 C    5.876541    3.548418    0.233903
 O    4.899172    3.802603   -0.441734
 O    6.693812    4.491899    0.704437
 O    8.072892    2.757837   -1.509075
 H    2.041716    1.803874   -1.098821
 H    3.475470    1.298505   -0.435002
 H    3.010831    2.908907   -0.246552
 H    1.625344    0.503347    0.823767
 H    3.316588    2.609190    2.257328
 H    3.560860    0.839466    2.182854
 H    2.195638    1.511612    3.084444
 H   -0.273409    0.943967    1.948039
 H   -2.181588    2.106350    2.622270
 H   -0.951881    4.355899    2.490404
 H   -1.552439    4.453085    0.823556
 H   -3.251436    5.230732    2.005222
 H   -4.096723    2.968608    1.014120
 H   -5.544661    2.201397   -0.527218
 H   -3.078056    2.048849   -2.316681
 H   -4.742475    2.236801   -2.853447
 H   -3.212423    4.253689   -1.117047
 H   -3.308529    4.362435   -2.859420
 H   -6.022602    4.165739   -1.647034
 H   -5.417945    5.295370   -2.817999
 H   -4.392157    6.535285   -1.007514
 H   -6.345869    3.977806    0.294042
 H   -5.131243    6.408189    2.287729
 H   -4.736619    7.445686    1.035388
 H   -4.649015    0.150274    1.093005
 H   -5.210403   -2.023787    1.340430
 H   -6.652429   -1.721965   -0.796118
 H   -5.356472   -2.524035   -1.663085
 H   -6.935987   -3.668892    0.712467
 H   -5.557687   -4.477205   -0.035718
 H   -9.283622   -3.430135   -0.363376
 H   -9.654374   -3.958669   -2.016197
 H   -8.676219   -2.502647   -1.764864
 H   -2.370065   -0.872902   -0.226891
 H   -1.256031   -3.607054   -0.045274
 H    0.206478   -3.195758   -1.917759
 H   -1.492969   -3.052411   -2.352564
 H   -1.217384   -0.477094   -2.203291
 H   -0.452115   -1.318646   -3.536436
 H    2.735392   -0.838936   -1.838149
 H    1.051890   -3.647347    0.397685
 H    1.702594   -1.517327    2.299276
 H    2.675775   -3.326967    3.681883
 H    2.236668   -4.529861    2.463206
 H    0.597503   -4.408552    4.387492
 H    0.174188   -2.761874    3.909401
 H   -2.270704   -4.077136    2.015447
 H    3.036878   -2.697862   -0.522048
 H    5.838667   -2.539017    0.427875
 H    4.731421   -2.834768   -2.402372
 H    4.327899   -4.902445   -1.057221
 H    6.028661   -4.917378   -0.554976
 H    5.605655   -5.190432   -2.250890
 H    7.099813   -3.378297   -3.022543
 H    7.618426   -3.022644   -1.371809
 H    6.980968   -1.726725   -2.402128
 H    7.158403   -0.689929   -0.132870
 H    5.761365    1.556949   -1.354764
 H    7.156051    2.181552    1.287705
 H    5.439804    1.729213    1.203633
 H    6.370215    5.340252    0.357545
 H    8.973796    2.832469   -1.866483
