19 
4i47_ligand_xtb.xyz
 C    2.975532    0.858032   -0.006161
 N    0.902410   -2.107592    0.004809
 C    2.047980   -1.473049    0.001093
 N    1.930330   -0.127976   -0.001434
 C    0.582482    0.123066    0.000889
 C   -0.160038    1.337650    0.001381
 O    0.233377    2.490740    0.002053
 N   -1.532159    1.050965    0.007450
 C   -2.076572   -0.209737    0.003192
 N   -3.433878   -0.288653   -0.068801
 N   -1.383720   -1.303379    0.010026
 C   -0.040330   -1.135046    0.003289
 H    3.603587    0.751880    0.880358
 H    3.598555    0.748901   -0.895842
 H    2.513805    1.844398   -0.006654
 H    2.999928   -1.967683    0.000597
 H   -2.142836    1.858431   -0.017502
 H   -3.806273   -1.212655    0.073502
 H   -3.988993    0.481756    0.262667
