19 
4i47_ligand_ani.xyz
 C   21.539074    8.058391    9.793615
 N   22.739429    4.988856    8.243042
 C   22.354350    6.241516    8.242202
 N   22.001758    6.720956    9.469343
 C   22.180879    5.668917   10.330159
 C   21.979339    5.545220   11.746785
 O   21.589242    6.370457   12.556406
 N   22.312578    4.240902   12.150694
 C   22.762741    3.236012   11.313527
 N   23.029484    2.045516   11.905292
 N   22.939167    3.364474   10.029349
 C   22.638140    4.604157    9.552717
 H   21.337588    8.106011   10.864852
 H   22.307443    8.790173    9.532855
 H   20.623762    8.277778    9.238796
 H   22.306634    6.874358    7.364433
 H   22.196475    4.076046   13.143939
 H   23.357166    1.296424   11.317286
 H   22.910751    1.879837   12.888708
