55 
4i5h_ligand_ani.xyz
 F  -12.847846   76.467996  133.330322
 C  -12.432649   75.515286  132.473807
 F  -11.559957   76.086322  131.625829
 F  -11.743673   74.615266  133.203084
 C  -13.589784   74.883508  131.754687
 C  -14.711972   74.508575  132.483914
 C  -13.531622   74.659281  130.382282
 C  -14.606614   74.049117  129.741478
 C  -15.722288   73.653467  130.469553
 C  -15.773876   73.871754  131.848315
 C  -16.942294   73.489177  132.709851
 O  -17.164104   74.074703  133.757435
 N  -17.687173   72.436547  132.240877
 C  -18.799585   71.818083  132.849992
 C  -19.430044   72.339269  133.973119
 C  -19.296163   70.644957  132.277862
 C  -20.400829   70.018971  132.836027
 C  -21.040305   70.514810  133.971689
 C  -22.254992   69.795150  134.500578
 C  -20.524140   71.688343  134.551712
 C  -21.125535   72.288017  135.779402
 C  -21.357536   71.563707  136.931471
 C  -21.453460   73.670146  135.774191
 C  -22.047400   74.274374  136.850707
 C  -22.321057   73.528234  138.025690
 N  -22.911090   74.138601  139.092615
 C  -21.961008   72.166267  138.056530
 C  -22.261252   71.483332  139.269211
 N  -22.826294   72.057300  140.296852
 C  -23.122548   73.392952  140.149359
 N  -23.670896   73.963739  141.266080
 C  -24.402186   75.194380  141.200318
 C  -23.623477   76.473242  141.074432
 C  -24.280621   76.119563  142.374654
 H  -14.787392   74.708192  133.548611
 H  -12.656818   74.972332  129.820934
 H  -14.572571   73.873462  128.670119
 H  -16.565478   73.208891  129.944476
 H  -17.314097   71.945724  131.443310
 H  -19.043363   73.252576  134.409246
 H  -18.826747   70.225325  131.390914
 H  -20.789185   69.114471  132.371435
 H  -21.999807   69.115576  135.321971
 H  -23.008206   70.492831  134.879866
 H  -22.714087   69.185695  133.716639
 H  -21.080073   70.513913  136.986736
 H  -21.236607   74.253214  134.879922
 H  -22.309082   75.328111  136.833834
 H  -22.013141   70.422986  139.365404
 H  -23.985003   73.279752  141.939748
 H  -25.369925   75.155768  140.696075
 H  -22.544756   76.363396  141.016112
 H  -24.042364   77.273412  140.469465
 H  -25.163048   76.672484  142.684524
 H  -23.635984   75.801450  143.188733
