78 
4i5m_ligand_ani.xyz
 N   -1.465174   -1.665876   -0.329262
 N   -5.100473    0.248274   -0.172794
 C   -2.594326   -2.354337   -0.506697
 C   -6.246131   -0.531345    0.290079
 C   -6.276935   -1.907254   -0.372089
 C    0.855006    0.201686    0.102264
 C   -5.093190    1.709306   -0.062274
 C   -7.649559   -1.138128    2.345974
 C   -6.185318    3.854118   -0.153696
 C   -4.565687    2.404951   -1.328803
 C    3.067078    1.187430    0.379346
 C    1.447885   -1.046083   -0.071001
 C    5.135980   -0.150602    0.320153
 C    7.083558   -1.705773    0.762974
 C    9.008388   -0.016440    0.742353
 C    7.985662   -0.677056   -1.408484
 O    5.826424    0.850614    0.111355
 N    5.657614   -1.351074    0.673141
 C    7.720561   -1.957202   -0.615284
 N    8.408221    0.459375   -0.528058
 C    9.280997    1.403201   -1.235296
 C    7.933257   -0.704895    1.584797
 C    3.646464   -0.075771    0.234276
 C    1.690698    1.324871    0.328604
 O    1.030991    2.508983    0.480189
 C    1.806437    3.666104    0.708051
 C    2.830557   -1.178512   -0.003094
 N   -0.520794    0.458819    0.065613
 C   -1.612303   -0.353271   -0.128487
 N   -2.769908    0.316183   -0.094961
 C   -3.893143   -0.385730   -0.237761
 C   -5.087727    3.856138   -1.248628
 C   -6.463320    2.370495    0.113267
 C   -6.291412   -0.671451    1.828813
 O   -7.331797   -2.482840   -0.577366
 N   -5.051651   -2.477421   -0.662649
 C   -5.031663   -3.846721   -1.159824
 C   -3.856819   -1.782883   -0.468271
 H   -2.469600   -3.420866   -0.682445
 H   -7.158250   -0.037252   -0.048596
 H   -4.448038    1.992559    0.784446
 H   -8.435149   -0.418460    2.085603
 H   -7.929708   -2.106402    1.920536
 H   -7.632246   -1.233311    3.436035
 H   -5.810692    4.336026    0.757052
 H   -7.084395    4.401042   -0.455985
 H   -3.477095    2.328725   -1.397402
 H   -4.991186    1.888721   -2.197023
 H    3.727030    2.036994    0.527827
 H    0.824995   -1.912184   -0.249490
 H    7.085602   -2.662344    1.289975
 H    9.839023   -0.697568    0.518788
 H    9.422295    0.844535    1.276349
 H    8.776679   -0.859074   -2.143696
 H    7.092697   -0.352881   -1.947793
 H    5.005225   -2.073784    0.935987
 H    7.085791   -2.626574   -1.203725
 H    8.667501   -2.489233   -0.454571
 H    7.530104    0.938165   -0.271232
 H   10.190343    0.888064   -1.569278
 H    9.566942    2.215471   -0.562438
 H    8.772732    1.820056   -2.107675
 H    7.274042    0.054305    2.012721
 H    8.419299   -1.225021    2.417942
 H    2.485252    3.860852   -0.131420
 H    1.099981    4.491545    0.801345
 H    2.388155    3.578721    1.634024
 H    3.260147   -2.162799   -0.176692
 H   -0.774711    1.427188    0.201610
 H   -4.287730    4.558045   -0.990201
 H   -5.485692    4.172032   -2.218467
 H   -6.913856    2.183619    1.095649
 H   -7.146404    1.992506   -0.659721
 H   -6.036363    0.300563    2.268791
 H   -5.501181   -1.364970    2.143292
 H   -6.060844   -4.135119   -1.362773
 H   -4.445329   -3.906317   -2.082093
 H   -4.605132   -4.526667   -0.413485
