78 
4i5m_ligand_xtb.xyz
 N   -1.384839   -1.550068   -0.163916
 N   -5.044512    0.252240   -0.107087
 C   -2.483679   -2.289166   -0.341271
 C   -6.177493   -0.581931    0.233037
 C   -6.139470   -1.919330   -0.497506
 C    0.844006    0.334931    0.151787
 C   -5.085949    1.701758    0.033629
 C   -7.574266   -1.457704    2.167832
 C   -6.180869    3.798498   -0.097739
 C   -4.505678    2.404264   -1.209038
 C    3.079613    1.239401    0.340465
 C    1.393637   -0.941242    0.017756
 C    5.074371   -0.167575    0.273037
 C    6.981139   -1.824619    0.617908
 C    8.822784   -0.069014    0.751110
 C    8.008280   -0.704394   -1.443454
 O    5.789728    0.857654    0.156643
 N    5.595719   -1.396023    0.457902
 C    7.697453   -2.022664   -0.728074
 N    8.174913    0.398687   -0.480517
 C    8.822276    1.560588   -1.083966
 C    7.811927   -0.904141    1.538340
 C    3.624618   -0.053821    0.227171
 C    1.721188    1.442927    0.315615
 O    1.106534    2.653127    0.437508
 C    1.905046    3.801223    0.613907
 C    2.755194   -1.135769    0.060551
 N   -0.491053    0.594612    0.128774
 C   -1.564746   -0.250536   -0.020584
 N   -2.736946    0.385672    0.005041
 C   -3.837658   -0.344287   -0.131707
 C   -5.214155    3.767808   -1.287525
 C   -6.472704    2.324929    0.168040
 C   -6.236301   -0.862312    1.752362
 O   -7.150654   -2.474928   -0.867091
 N   -4.904142   -2.476123   -0.630327
 C   -4.793938   -3.816703   -1.165760
 C   -3.751571   -1.751265   -0.347062
 H   -2.300088   -3.343086   -0.487184
 H   -7.100412   -0.084453   -0.070080
 H   -4.480936    1.973181    0.908986
 H   -8.378673   -0.749759    1.983396
 H   -7.785133   -2.362843    1.604732
 H   -7.565408   -1.700982    3.227184
 H   -5.696725    4.241617    0.773621
 H   -7.083800    4.367027   -0.311160
 H   -3.425647    2.500003   -1.131158
 H   -4.724268    1.801073   -2.090519
 H    3.766491    2.061128    0.461084
 H    0.715194   -1.766195   -0.120843
 H    6.909094   -2.808016    1.090544
 H    9.716865   -0.647921    0.502971
 H    9.130438    0.793382    1.343791
 H    8.922673   -0.816461   -2.033813
 H    7.196296   -0.432741   -2.121966
 H    4.916220   -2.134587    0.545884
 H    7.087482   -2.649142   -1.378549
 H    8.620320   -2.566475   -0.524931
 H    7.095819    0.674164   -0.153890
 H    9.856329    1.335738   -1.350429
 H    8.808052    2.393044   -0.383723
 H    8.281131    1.854036   -1.981230
 H    7.136874   -0.246819    2.087123
 H    8.346324   -1.505668    2.272058
 H    2.566123    3.962961   -0.242360
 H    1.207663    4.632915    0.693963
 H    2.499263    3.736769    1.530019
 H    3.122552   -2.142538   -0.075965
 H   -0.753831    1.567210    0.234318
 H   -4.507063    4.594468   -1.245524
 H   -5.767282    3.853321   -2.222148
 H   -6.931113    2.156307    1.140825
 H   -7.134285    1.949589   -0.613285
 H   -6.070912    0.079111    2.281133
 H   -5.421621   -1.539997    2.022075
 H   -5.794940   -4.131554   -1.456300
 H   -4.139840   -3.825707   -2.038038
 H   -4.406395   -4.501027   -0.409346
