54 
4i6f_ligand_xtb.xyz
 O   -4.527760   -1.059976   -0.696096
 C   -3.384456   -1.023513   -0.291576
 N   -2.605431   -2.133228   -0.172319
 C   -3.183934   -3.431820   -0.445430
 C   -1.231060   -2.029633    0.043670
 C   -2.730402    0.257004    0.214939
 C   -2.875906    0.259962    1.754642
 C   -4.311361    0.546576    2.173709
 N   -1.344841    0.348831   -0.189654
 C   -0.813404    1.557980   -0.788388
 C   -1.488511    1.822649   -2.156021
 C   -2.397363    2.985974   -1.898531
 C   -2.187239    3.525646   -0.710572
 C   -1.093863    2.827406    0.039538
 C   -0.594910   -0.763324   -0.092671
 N    0.728125   -0.674204   -0.152212
 C    1.425084   -1.786430    0.035421
 N    0.932220   -2.989679    0.268191
 C   -0.394010   -3.108353    0.242678
 N    2.803021   -1.684144   -0.048204
 C    3.646690   -2.737343   -0.319115
 C    4.882141   -2.196945   -0.487926
 N    4.830581   -0.845458   -0.323677
 C    3.587044   -0.549992   -0.057058
 C    3.120944    0.791022    0.276543
 C    3.489624    1.866407   -0.525512
 C    3.092201    3.149543   -0.196269
 C    2.336460    3.372491    0.942333
 C    1.980252    2.306332    1.753593
 C    2.368900    1.022198    1.425850
 H   -3.179582   -4.048885    0.454442
 H   -2.631101   -3.938324   -1.237486
 H   -4.211727   -3.266098   -0.765064
 H   -3.275676    1.108241   -0.199659
 H   -2.209613    1.015598    2.174547
 H   -2.556236   -0.708273    2.148490
 H   -4.993675   -0.163389    1.713524
 H   -4.603390    1.547351    1.863838
 H   -4.411966    0.475856    3.253894
 H    0.257541    1.377879   -0.887695
 H   -0.744826    2.079700   -2.913213
 H   -2.032325    0.945218   -2.512519
 H   -3.113999    3.310507   -2.632228
 H   -2.698784    4.376243   -0.295347
 H   -0.199840    3.453541    0.075347
 H   -1.370036    2.599014    1.067385
 H   -0.763866   -4.114867    0.373443
 H    3.274922   -3.738175   -0.375286
 H    5.809385   -2.684421   -0.712889
 H    4.089832    1.682160   -1.402930
 H    3.377072    3.979497   -0.826364
 H    2.036715    4.376877    1.206082
 H    1.404458    2.481018    2.651176
 H    2.105543    0.195684    2.069332
