15 
4i7k_ligand_ani.xyz
 C   48.833005   88.002474   27.436190
 C   48.358767   86.598728   27.728650
 C   49.178348   85.697795   28.415530
 C   48.746896   84.404413   28.688053
 C   47.484152   83.986005   28.277647
 C   46.659784   84.872212   27.593801
 C   47.096495   86.167244   27.323040
 H   48.077212   88.573677   26.889677
 H   49.058203   88.545481   28.361142
 H   49.747286   87.994062   26.831960
 H   50.167530   86.017818   28.739686
 H   49.400168   83.719163   29.223875
 H   47.145885   82.975009   28.490218
 H   45.670881   84.556911   27.267951
 H   46.444388   86.855009   26.786578
