13 
4i7l_ligand_dft.xyz
 C    0.939270   -0.024106    0.000083
 C    0.220960   -1.220489    0.000000
 C   -1.167435   -1.187136   -0.000014
 C   -1.851763    0.027632    0.000174
 C   -1.128122    1.215348   -0.000036
 C    0.264018    1.196434   -0.000202
 O    2.297661   -0.111257   -0.000371
 H    0.765948   -2.158669   -0.000429
 H   -1.721032   -2.121643    0.000153
 H   -2.936755    0.046678    0.000468
 H   -1.646125    2.169992   -0.000370
 H    0.823941    2.129617   -0.000716
 H    2.671159    0.777991    0.003825
