24 
4i8x_ligand_dft.xyz
 C    1.885902    0.029788   -0.008195
 C    2.544933   -1.150737    0.351252
 C    3.932761   -1.204285    0.373962
 C    4.683584   -0.083331    0.028069
 C    4.037122    1.091102   -0.345960
 C    2.648035    1.147633   -0.363643
 C    0.401045    0.064772   -0.009561
 N   -0.226705   -1.116412   -0.129243
 C   -1.553120   -1.134744   -0.141839
 C   -2.349879    0.006663   -0.018267
 C   -1.696811    1.231618    0.112484
 C   -0.311770    1.263272    0.121162
 C   -3.835552   -0.157183   -0.063233
 O   -4.377059   -1.096501   -0.583840
 O   -4.570416    0.816719    0.519081
 H    1.951634   -2.020950    0.609543
 H    4.430668   -2.125220    0.661958
 H    5.768482   -0.126857    0.043341
 H    4.614812    1.964451   -0.633123
 H    2.161664    2.063460   -0.686393
 H   -2.030518   -2.104804   -0.253741
 H   -2.249754    2.165958    0.181650
 H    0.207838    2.206475    0.243676
 H   -4.005588    1.403234    1.038477
