77 
4i8z_ligand_ani.xyz
 O    0.291468    1.129574    2.830306
 C    0.383980    1.720714    1.771053
 O    1.555349    2.066936    1.180182
 C    2.748124    1.740804    1.929670
 C    3.925910    2.621611    1.487817
 C    3.593744    3.761861    0.519257
 C    3.807434    3.101555   -0.838237
 O    4.929692    2.241929   -0.638221
 C    4.829182    1.683509    0.633980
 O    4.188950    0.418394    0.577839
 C    3.209997    0.321006    1.611282
 N   -0.659324    2.120509    0.997207
 C   -2.021691    1.736045    1.309351
 C   -2.971133    2.934095    1.165214
 C   -2.985878    3.532904   -0.221466
 C   -3.794742    2.998057   -1.229224
 C   -3.788485    3.545651   -2.508625
 C   -2.971442    4.634699   -2.801660
 C   -2.159377    5.172772   -1.808217
 C   -2.166020    4.622101   -0.528991
 C   -2.450361    0.524517    0.472349
 O   -3.841199    0.317377    0.654609
 C   -1.686056   -0.736466    0.899807
 N   -2.158069   -1.946267    0.213256
 C   -2.304533   -3.132792    1.066655
 C   -3.625833   -3.110732    1.839807
 C   -3.576816   -4.095867    3.006523
 C   -4.797692   -3.419814    0.903883
 S   -1.656842   -2.184379   -1.370837
 O   -1.861273   -0.936087   -2.089929
 O   -2.280122   -3.415423   -1.826995
 C    0.097609   -2.458926   -1.285690
 C    0.969543   -1.372640   -1.258025
 C    2.337463   -1.590184   -1.141912
 C    0.582970   -3.761427   -1.254304
 C    1.948925   -3.972042   -1.150476
 C    2.834147   -2.898180   -1.073482
 C    4.292736   -3.225309   -0.940676
 O    4.716945   -4.348734   -1.166576
 N    5.112040   -2.203907   -0.563805
 H    2.511607    1.859369    2.988581
 H    4.458840    2.982598    2.374206
 H    2.584411    4.152206    0.654181
 H    4.305881    4.584109    0.650660
 H    4.064255    3.799643   -1.639725
 H    2.935357    2.509877   -1.141580
 H    5.847142    1.533618    1.017239
 H    3.660270   -0.139273    2.501487
 H    2.389032   -0.310194    1.264124
 H   -0.452680    2.587385    0.125824
 H   -2.017611    1.429603    2.360626
 H   -2.641250    3.693547    1.883310
 H   -3.978763    2.616062    1.452160
 H   -4.414177    2.131104   -1.003975
 H   -4.422980    3.119213   -3.280698
 H   -2.967567    5.061965   -3.800943
 H   -1.516697    6.021388   -2.027366
 H   -1.524295    5.040195    0.245745
 H   -2.239033    0.722411   -0.586280
 H   -4.049459   -0.473437    0.135726
 H   -0.607773   -0.601479    0.761303
 H   -1.857901   -0.895915    1.968496
 H   -1.455273   -3.169999    1.763128
 H   -2.249895   -4.025457    0.436530
 H   -3.762387   -2.094285    2.237294
 H   -3.409886   -5.117645    2.641994
 H   -4.518497   -4.090986    3.566283
 H   -2.768171   -3.851803    3.704961
 H   -5.755709   -3.272996    1.413837
 H   -4.785828   -2.787537    0.008011
 H   -4.755315   -4.463437    0.565332
 H    0.579044   -0.361304   -1.341764
 H    2.997921   -0.727693   -1.089086
 H   -0.111502   -4.593620   -1.326113
 H    2.362816   -4.974838   -1.130447
 H    4.768948   -1.335538   -0.171586
 H    6.075366   -2.455974   -0.398389
