82 
4i9h_ligand_ani.xyz
 C    0.024859   -0.837496   -1.647477
 C    0.345607    0.527955   -1.541750
 C    1.667349    0.947064   -1.502494
 C    2.702425    0.007506   -1.547283
 C    2.366871   -1.354301   -1.546366
 C    1.048205   -1.774080   -1.594301
 O    4.019382    0.327086   -1.600664
 C    4.417244    1.687565   -1.697069
 C    5.933974    1.709608   -1.647436
 C    6.574893    0.917147   -0.506245
 C    4.969143    1.371090    1.517644
 C    4.389823   -0.036112    1.557347
 O    3.104306    0.131588    2.150204
 C    2.154636   -0.813225    1.897678
 C    0.836172   -0.370528    1.871831
 C   -0.198766   -1.292003    1.755707
 C    0.079969   -2.647163    1.586177
 C    1.402949   -3.047669    1.606979
 C    2.463805   -2.163219    1.762948
 C   -1.599750   -0.799775    1.863645
 F    1.681770   -4.355688    1.470287
 C   -2.698452   -1.607510    1.561319
 C   -3.966790   -1.116066    1.824795
 C   -4.106059    0.185043    2.301758
 C   -2.952828    0.941611    2.491634
 N   -1.731405    0.466262    2.282208
 C   -5.468044    0.708470    2.554032
 C    6.358418    1.478704    0.902230
Cl    3.626568   -2.550958   -1.483673
 O   -0.699586    1.423924   -1.563512
 C   -0.697074    2.407491   -0.530520
 N   -1.308850   -1.194204   -1.853657
 C   -1.849872   -2.437431   -1.707674
 C   -3.197327   -2.635473   -2.409849
 O   -1.313455   -3.363208   -1.111891
 S   -4.696860   -2.445007   -1.397493
 C   -4.875052   -0.687112   -1.412435
 C   -6.041530   -0.096306   -0.897449
 C   -6.081061    1.280535   -0.782008
 C   -4.957247    2.027741   -1.160544
 C   -3.879511    1.351541   -1.707472
 N   -3.849752    0.027949   -1.861997
 C   -4.823643    3.484291   -0.959055
 O   -3.797929    4.111021   -1.129644
 O   -6.481147    0.050510    2.461364
 O   -5.961259    4.076093   -0.546616
 O   -5.489700    2.016237    2.879188
 O    6.336362    3.061465   -1.582423
 O    7.274722    0.775067    1.731296
 O    7.966735    0.986509   -0.781992
 O    5.112496    1.848746    2.850031
 H    1.884101    2.009982   -1.485207
 H    0.805928   -2.831606   -1.581350
 H    3.996259    2.287105   -0.883498
 H    4.075223    2.121636   -2.646571
 H    6.302718    1.241278   -2.573083
 H    6.235081   -0.129290   -0.552712
 H    4.263059    2.020066    0.986021
 H    5.014419   -0.677871    2.191733
 H    4.301994   -0.476993    0.562929
 H    0.611643    0.684484    1.984351
 H   -0.685597   -3.398099    1.422117
 H    3.483207   -2.533731    1.764373
 H   -2.568407   -2.591231    1.114644
 H   -4.861215   -1.710732    1.654602
 H   -3.025999    1.970934    2.830988
 H    6.629186    2.545461    0.868794
 H    0.207147    3.027935   -0.570131
 H   -0.770189    1.924452    0.453918
 H   -1.565223    3.049365   -0.699057
 H   -1.964688   -0.434781   -2.047294
 H   -3.228512   -3.674100   -2.750091
 H   -3.296777   -1.978375   -3.276204
 H   -6.869953   -0.719528   -0.572068
 H   -6.957305    1.791966   -0.393048
 H   -2.995152    1.907270   -2.010079
 H   -5.745009    5.017958   -0.441741
 H   -6.426850    2.241917    3.001794
 H    7.304347    3.034861   -1.558002
 H    7.091318    1.078020    2.633567
 H    8.411644    0.751296    0.047089
 H    4.308363    1.570213    3.314572
