82 
4i9h_ligand_xtb.xyz
 C   -0.284866   -0.888270   -1.519171
 C   -0.092457    0.490313   -1.317356
 C    1.196857    1.002367   -1.245736
 C    2.306349    0.176143   -1.386949
 C    2.095345   -1.190961   -1.572455
 C    0.821364   -1.717589   -1.636494
 O    3.603246    0.585403   -1.367165
 C    3.891906    1.952961   -1.209809
 C    5.380991    2.191868   -1.494254
 C    6.351858    1.145072   -0.912983
 C    5.583478    1.207311    1.594326
 C    4.833041   -0.130807    1.553266
 O    3.502723    0.135976    1.961746
 C    2.563682   -0.826260    1.763950
 C    1.239464   -0.407073    1.830667
 C    0.187661   -1.294068    1.631922
 C    0.466657   -2.636125    1.369643
 C    1.786499   -3.032635    1.329489
 C    2.848527   -2.164701    1.519770
 C   -1.179326   -0.770338    1.725008
 F    2.068004   -4.327732    1.097438
 C   -2.302249   -1.594566    1.864527
 C   -3.537515   -1.014868    2.064229
 C   -3.638773    0.377288    2.091762
 C   -2.471794    1.112752    1.883510
 N   -1.292921    0.561256    1.719519
 C   -4.932124    1.019961    2.380349
 C    6.722450    1.307296    0.571977
Cl    3.463056   -2.225728   -1.723116
 O   -1.221133    1.247483   -1.224837
 C   -1.082480    2.625484   -0.947765
 N   -1.591514   -1.367133   -1.658301
 C   -1.998594   -2.654478   -1.577927
 C   -3.424709   -2.862023   -2.083285
 O   -1.328380   -3.588023   -1.194333
 S   -4.718131   -2.641088   -0.818949
 C   -5.014498   -0.923976   -0.892982
 C   -6.146547   -0.401479   -0.257869
 C   -6.323164    0.961937   -0.259273
 C   -5.368132    1.768121   -0.892802
 C   -4.323595    1.136967   -1.561959
 N   -4.148720   -0.168575   -1.562202
 C   -5.388030    3.238459   -0.835461
 O   -4.523307    3.947851   -1.289637
 O   -5.929949    0.433649    2.721363
 O   -6.454953    3.736055   -0.190454
 O   -4.906351    2.355548    2.236109
 O    5.676217    3.491985   -1.046643
 O    7.696294    0.316687    0.834234
 O    7.540876    1.297177   -1.662247
 O    6.200382    1.397793    2.855557
 H    1.343995    2.054276   -1.076041
 H    0.684514   -2.776413   -1.777275
 H    3.646603    2.288575   -0.195738
 H    3.320052    2.560766   -1.921734
 H    5.532055    2.124383   -2.583536
 H    5.935725    0.144899   -1.087531
 H    4.867636    2.016655    1.410404
 H    5.320093   -0.839017    2.236433
 H    4.835181   -0.548968    0.543376
 H    1.025601    0.628455    2.034892
 H   -0.299795   -3.361104    1.155759
 H    3.853765   -2.547582    1.464319
 H   -2.205062   -2.667202    1.846166
 H   -4.424649   -1.612581    2.214072
 H   -2.499549    2.193960    1.875337
 H    7.173893    2.304276    0.705296
 H   -0.544033    3.140067   -1.749577
 H   -0.571019    2.781113    0.005105
 H   -2.093826    3.025230   -0.886872
 H   -2.318652   -0.658527   -1.779207
 H   -3.525684   -3.902063   -2.393728
 H   -3.660871   -2.187577   -2.903910
 H   -6.840856   -1.062721    0.233382
 H   -7.176352    1.409000    0.226491
 H   -3.596070    1.713469   -2.113982
 H   -6.406025    4.704750   -0.182092
 H   -5.780192    2.722886    2.444745
 H    6.598447    3.665206   -1.272716
 H    7.874223    0.349868    1.782448
 H    8.205263    0.730219   -1.248788
 H    5.514807    1.386070    3.531882
