55 
4i9i_ligand_ani.xyz
 N   83.069900   25.696498   23.835586
 C   82.779876   25.191324   25.099815
 O   81.666869   24.778107   25.365662
 C   83.937360   25.231732   26.005149
 C   83.819457   24.761803   27.316361
 C   84.905749   24.803474   28.167863
 C   86.128786   25.321828   27.706593
 C   86.256733   25.788183   26.415862
 C   85.155553   25.749956   25.537927
 N   85.325888   26.228640   24.242626
 C   84.310759   26.179690   23.454836
 C   84.365301   26.721045   22.046460
 C   85.758867   26.669546   21.404941
 C   86.188774   25.252578   21.057964
 O   86.821322   24.556297   21.831260
 N   85.776032   24.829983   19.817343
 C   85.995004   23.583532   19.204184
 C   85.391781   23.363315   17.958789
 C   85.575128   22.164133   17.291016
 C   86.773057   22.578435   19.783180
 C   86.938958   21.380558   19.106080
 C   86.366864   21.159997   17.853223
 C   86.613239   19.831396   17.209682
 O   86.921804   18.857707   17.881461
 N   86.491671   19.821388   15.845058
 C   86.668053   18.737455   14.962938
 C   86.930829   17.437113   15.366099
 C   87.076314   16.430272   14.412052
 C   86.960172   16.718487   13.061182
 C   86.696543   18.022990   12.640101
 C   86.551569   19.027100   13.586354
 O   86.293426   20.338320   13.296548
 C   86.162968   20.689459   11.934760
 H   82.293239   25.708417   23.183188
 H   82.856086   24.370009   27.632720
 H   84.821260   24.439888   29.187933
 H   86.984316   25.354749   28.377521
 H   87.192246   26.191450   26.038934
 H   84.030678   27.764436   22.085576
 H   83.634193   26.186681   21.429040
 H   86.489992   27.064729   22.112675
 H   85.767571   27.293808   20.504506
 H   85.273995   25.496565   19.251359
 H   84.777275   24.138964   17.505975
 H   85.065515   22.010858   16.341147
 H   87.230198   22.739837   20.750051
 H   87.524655   20.580401   19.550294
 H   86.366590   20.704658   15.371324
 H   87.022484   17.228986   16.424283
 H   87.283047   15.415270   14.740817
 H   87.074059   15.930831   12.320392
 H   86.607543   18.240543   11.580807
 H   85.960457   21.761114   11.914884
 H   87.086746   20.483390   11.378868
 H   85.330246   20.153070   11.461755
