40 
4i9o_ligand_dft.xyz
 O   -4.518363   -0.193356    1.523903
 C   -4.255001   -0.485763    0.363060
 C   -4.873953    0.325615   -0.773892
 C   -5.115675    1.764787   -0.329554
 S   -3.574473    2.665147    0.083598
 N   -3.425923   -1.531411    0.056302
 C   -2.584510   -2.047297    1.135640
 C   -1.268816   -1.266162    1.161831
 C   -0.552397   -1.291186   -0.201299
 O   -0.147522   -2.644717   -0.377681
 C   -1.522080   -0.907404   -1.341007
 C   -2.811314   -1.725963   -1.251020
 C    0.656218   -0.356784   -0.161366
 C    0.503424    1.031025   -0.172889
 C    1.608688    1.868007   -0.112379
 C    2.888770    1.330060   -0.035939
Cl    4.235879    2.435011    0.027202
 C    3.066117   -0.054746   -0.007577
 C    1.942810   -0.877787   -0.065824
 C    4.435973   -0.687428    0.087128
 F    5.078912   -0.321292    1.204559
 F    5.210728   -0.353456   -0.955637
 F    4.355162   -2.029141    0.101160
 H   -5.832207   -0.139581   -1.042116
 H   -4.253576    0.332085   -1.671782
 H   -5.774025    1.794386    0.539076
 H   -5.582427    2.332767   -1.137988
 H   -3.391578    2.069469    1.273528
 H   -2.399139   -3.109770    0.954585
 H   -3.121948   -1.934057    2.075594
 H   -0.587706   -1.677721    1.913752
 H   -1.481513   -0.227219    1.437390
 H    0.226617   -2.732398   -1.264565
 H   -1.023761   -1.065976   -2.306801
 H   -1.779374    0.156059   -1.284442
 H   -3.507460   -1.471883   -2.050274
 H   -2.586415   -2.792227   -1.352604
 H   -0.484961    1.480622   -0.222253
 H    1.483777    2.944987   -0.124669
 H    2.073118   -1.951460   -0.020553
