56 
4ibb_ligand_ani.xyz
 C   -0.208122    1.931393    2.745118
 C   -0.421819    2.177231    1.269473
 C   -0.537128    3.488971    0.808929
 C   -0.717779    3.804210   -0.536860
 C   -0.835069    5.243526   -0.964492
 C   -0.789423    2.761946   -1.475268
 C   -0.987774    3.041911   -2.942845
 C   -0.677818    1.451997   -1.019112
 C   -0.491901    1.140774    0.320516
 C   -0.412599   -0.344286    0.699855
 C   -1.718545   -1.077630    0.483412
 C   -2.917544   -0.654127    1.218429
 O   -2.799100   -0.049087    2.276005
 C   -4.296686   -0.883915    0.724746
 C   -5.370226   -0.455680    1.463081
 C   -6.612522   -0.653383    0.802780
 C   -6.451727   -1.225656   -0.424791
 S   -4.812022   -1.551090   -0.794268
 C   -1.507796   -2.120057   -0.345369
 O   -2.313167   -3.070166   -0.823704
 C   -0.090585   -2.183042   -0.735758
 O    0.365127   -3.062466   -1.455276
 N    0.544732   -1.107996   -0.141426
 C    1.928132   -0.817897   -0.227562
 C    2.504382    0.148064    0.609775
 C    3.859941    0.434452    0.529244
 C    2.752883   -1.484302   -1.142864
 C    4.104487   -1.178883   -1.208696
 C    4.680623   -0.213953   -0.388455
 C    6.154886    0.069201   -0.441853
 C    6.950158   -0.767028    0.545686
 O    8.257893   -0.437550    0.507888
 O    6.514330   -1.619802    1.277444
 H   -0.201564    2.880666    3.288751
 H   -0.997271    1.296886    3.159070
 H    0.754048    1.441221    2.940004
 H   -0.480089    4.299982    1.535339
 H   -0.758689    5.913217   -0.103562
 H   -0.046040    5.520653   -1.673589
 H   -1.794141    5.442375   -1.457346
 H   -0.179764    3.661041   -3.350806
 H   -1.926469    3.577507   -3.129570
 H   -1.016524    2.111811   -3.518070
 H   -0.738058    0.632750   -1.732753
 H   -0.118566   -0.438850    1.752629
 H   -5.228478   -0.010430    2.441209
 H   -7.577082   -0.378779    1.216546
 H   -7.226128   -1.480817   -1.137396
 H   -1.712012   -3.666051   -1.307540
 H    1.900188    0.685717    1.331351
 H    4.289886    1.177066    1.197449
 H    2.338498   -2.244690   -1.789226
 H    4.727767   -1.716441   -1.921234
 H    6.369082    1.122159   -0.223041
 H    6.562743   -0.132487   -1.439997
 H    8.694668   -1.011555    1.158476
