50 
4ibc_ligand_xtb.xyz
Cl   -0.155575    3.003538   -1.898442
 C   -0.179499    2.555374   -0.230643
 C   -0.373877    3.548088    0.717587
 C   -0.412829    3.219733    2.059773
 C   -0.264655    1.901106    2.455583
 C   -0.064995    0.917506    1.505993
 C   -0.017072    1.228208    0.152811
 C    0.262028    0.130741   -0.849906
 N   -0.542547   -1.057157   -0.603557
 C   -1.944440   -1.023671   -0.641271
 C   -2.693424   -2.101869   -0.172499
 C   -4.072994   -2.063567   -0.218491
 C   -4.739901   -0.959725   -0.732384
 C   -6.246478   -0.910113   -0.754216
 C   -6.682792   -0.274688    0.547116
 O   -6.872023   -1.191956    1.502689
 O   -6.815081    0.902253    0.739318
 C   -3.991323    0.117836   -1.185831
 C   -2.610795    0.091017   -1.148074
 C    0.238172   -2.128060   -0.312405
 O   -0.058244   -3.280745   -0.048285
 C    1.651128   -1.668303   -0.378666
 O    2.612374   -2.556518   -0.157258
 C    1.683805   -0.357158   -0.697164
 C    2.827242    0.525491   -0.900682
 O    2.732603    1.619260   -1.415936
 C    4.136378   -0.039412   -0.450503
 C    4.372395   -0.353153    0.883867
Cl    3.151945   -0.040489    2.069314
 C    5.588922   -0.874787    1.287997
 C    6.583126   -1.089928    0.349289
 C    6.369438   -0.767134   -0.980220
 C    5.154995   -0.236314   -1.374840
 H   -0.493514    4.571322    0.397994
 H   -0.560321    3.995407    2.795286
 H   -0.295906    1.639220    3.501803
 H    0.058647   -0.111251    1.811900
 H    0.100730    0.507433   -1.866404
 H   -2.195146   -2.971268    0.221446
 H   -4.638012   -2.905612    0.152392
 H   -6.595888   -0.293339   -1.581343
 H   -6.662903   -1.914228   -0.818074
 H   -7.105683   -0.768052    2.343549
 H   -4.492760    0.991044   -1.574481
 H   -2.068057    0.943243   -1.519626
 H    2.168078   -3.409290    0.022540
 H    5.751579   -1.107020    2.328667
 H    7.529866   -1.502922    0.662497
 H    7.149763   -0.924330   -1.708922
 H    4.976716    0.026247   -2.406694
