56 
4ibg_ligand_xtb.xyz
 C    5.891005   -1.101557    2.256671
 C    5.566364   -1.249751    0.801600
 C    4.286165   -0.985582    0.338040
 C    6.542334   -1.634845   -0.110824
 C    6.252461   -1.734957   -1.461082
 C    4.978939   -1.457873   -1.918423
 C    3.982225   -1.099897   -1.014173
 C    2.625223   -0.800911   -1.522444
 O    2.429293   -0.240033   -2.585619
 C    1.503054   -1.243129   -0.687102
 C    1.409530   -2.239591    0.214989
 O    2.299664   -3.099225    0.701278
 C   -0.001552   -2.368364    0.670504
 O   -0.347478   -3.209652    1.481714
 N   -0.722901   -1.427452    0.008415
 C   -2.096016   -1.171603    0.136560
 C   -2.710276   -0.206083   -0.660468
 C   -4.060333    0.050142   -0.526803
 C   -4.831590   -0.642752    0.397427
 C   -6.310086   -0.369230    0.506384
 C   -6.970150   -1.042803   -0.676166
 O   -7.085396   -0.568920   -1.772715
 O   -7.386290   -2.276181   -0.370388
 C   -4.221176   -1.614505    1.177069
 C   -2.870068   -1.876249    1.056739
 C    0.129449   -0.632241   -0.859967
 C    0.174161    0.830116   -0.468077
 C    0.354034    1.794031   -1.463281
 C    0.433122    3.103223   -1.057794
 O    0.595757    4.223541   -1.816714
 C    0.606389    5.312237   -0.916982
 O    0.435879    4.828485    0.399732
 C    0.334616    3.473361    0.286568
 C    0.163085    2.520179    1.264510
Cl    0.044623    2.956312    2.923944
 C    0.089978    1.185625    0.867796
 H    6.739130   -1.723992    2.530966
 H    5.037117   -1.374774    2.871952
 H    6.146381   -0.064560    2.476962
 H    3.523456   -0.664807    1.032597
 H    7.540869   -1.852831    0.240478
 H    7.024454   -2.028012   -2.157131
 H    4.733947   -1.527317   -2.967305
 H    1.810037   -3.698247    1.299365
 H   -2.144193    0.354840   -1.384874
 H   -4.525479    0.793502   -1.156182
 H   -6.502080    0.702202    0.450860
 H   -6.712432   -0.785326    1.428291
 H   -7.764497   -2.714613   -1.149029
 H   -4.804716   -2.174541    1.892307
 H   -2.414884   -2.631445    1.674561
 H   -0.185893   -0.724105   -1.905507
 H    0.453576    1.522924   -2.500309
 H    1.567500    5.844808   -0.992487
 H   -0.214370    6.003746   -1.164227
 H   -0.042964    0.431339    1.626839
