53 
4ibi_ligand_dft.xyz
 F    6.889892   -0.810495    1.135514
 C    5.683690   -0.221654    1.202953
 F    5.864573    0.970638    1.799105
 F    4.917401   -0.960570    2.020791
 C    5.068529   -0.066400   -0.161606
 C    3.704001   -0.256548   -0.339781
 C    5.872693    0.314020   -1.234162
 C    5.304189    0.518180   -2.487144
 C    3.938509    0.342720   -2.666962
 C    3.135159   -0.059922   -1.597611
 C    1.668534   -0.204086   -1.833070
 O    1.121465    0.389225   -2.750429
 C    0.851997   -1.069992   -0.959230
 C    1.126853   -2.206080   -0.298054
 O    2.250061   -2.883140   -0.100562
 C   -0.123056   -2.792525    0.259380
 O   -0.124223   -3.837120    0.893453
 N   -1.143774   -1.960152   -0.097329
 C   -2.516300   -2.139227    0.198929
 C   -3.466498   -1.360597   -0.462295
 C   -4.819436   -1.516167   -0.168850
 C   -5.854984   -0.691405   -0.848465
 O   -5.336676    0.175717   -1.740063
 O   -7.043524   -0.770831   -0.639824
 C   -5.238626   -2.451132    0.775469
 C   -4.288128   -3.225888    1.425885
 C   -2.933246   -3.076147    1.151761
 C   -0.641072   -0.817449   -0.871061
 C   -0.954709    0.516401   -0.214456
 C   -0.834575    0.647324    1.180278
 C   -1.105375    1.882993    1.712249
 O   -1.048935    2.273068    3.017087
 C   -1.586593    3.590398    3.050571
 O   -1.660154    4.066474    1.709404
 C   -1.473480    2.972327    0.927619
 C   -1.580276    2.849648   -0.438469
Cl   -2.033601    4.207235   -1.419174
 C   -1.316226    1.596111   -1.008892
 H    3.088165   -0.548978    0.502057
 H    6.939388    0.449021   -1.087899
 H    5.929536    0.816720   -3.322186
 H    3.473929    0.511493   -3.632750
 H    1.992129   -3.675273    0.411446
 H   -3.176166   -0.622224   -1.197397
 H   -6.088936    0.660584   -2.114049
 H   -6.297509   -2.555953    0.983711
 H   -4.598220   -3.958631    2.163829
 H   -2.201041   -3.687386    1.661630
 H   -1.065739   -0.838857   -1.880213
 H   -0.556020   -0.188416    1.812450
 H   -2.594943    3.563419    3.482679
 H   -0.924955    4.238163    3.628179
 H   -1.382343    1.481681   -2.085343
