53 
4ibj_ligand_ani.xyz
 F    3.325572    3.272494   -1.068068
 C    2.276083    3.672640   -0.318317
 F    2.652149    4.783522    0.337814
 F    1.302677    4.023789   -1.181657
 C    1.821262    2.583132    0.604680
 C    1.410783    1.381048    0.040736
 C    1.832390    2.749427    1.983700
 C    1.422977    1.698610    2.800528
 C    1.017705    0.492420    2.237272
 C    1.020284    0.325710    0.852774
 C    0.591480   -0.986784    0.200507
 N    1.442968   -1.347417   -0.952721
 C    2.861030   -1.351762   -0.893388
 C    3.498375   -1.746269    0.282816
 C    4.885323   -1.703933    0.379766
 C    5.485037   -2.145884    1.666098
 O    6.831417   -2.066450    1.686487
 O    4.851743   -2.542901    2.618340
 C    5.656092   -1.257918   -0.693002
 C    5.017390   -0.867297   -1.863766
 C    3.630507   -0.916846   -1.976013
 C    0.689474   -1.515943   -2.100062
 O    1.058281   -1.813664   -3.227043
 C   -0.703447   -1.262014   -1.719625
 O   -1.643011   -1.374960   -2.665717
 C   -0.798234   -0.965532   -0.402703
 C   -1.970999   -0.795841    0.476436
 O   -1.914427   -1.133622    1.651244
 C   -3.243720   -0.226962   -0.066809
 C   -4.427357   -0.587664    0.576543
 C   -5.641947   -0.094154    0.118282
 C   -6.904058   -0.528678    0.807076
 F   -7.992019    0.088580    0.317084
 F   -6.855632   -0.272438    2.128738
 F   -7.104291   -1.854933    0.680105
 C   -5.687761    0.786394   -0.959513
 C   -4.503021    1.177131   -1.574759
 C   -3.283399    0.678812   -1.127512
 H    1.422081    1.251082   -1.036819
 H    2.156564    3.693525    2.412675
 H    1.423894    1.820620    3.879667
 H    0.680141   -0.317532    2.882250
 H    0.640903   -1.778988    0.960907
 H    2.933361   -2.093470    1.140189
 H    7.094762   -2.378309    2.567725
 H    6.737751   -1.224293   -0.603547
 H    5.606470   -0.524461   -2.710815
 H    3.147079   -0.638978   -2.906248
 H   -1.164678   -1.649399   -3.466372
 H   -4.382589   -1.248239    1.437276
 H   -6.645171    1.166953   -1.302960
 H   -4.528733    1.873259   -2.407014
 H   -2.364201    1.012759   -1.600962
