35 
4ibm_ligand_ani.xyz
 O    2.730383  -13.395550    9.018750
 C    2.142630  -12.669571    8.277762
 N    0.614647  -12.859220    7.953330
 N    0.249382  -11.982303    7.166296
 C    1.340447  -11.118568    6.838364
 N    1.223664  -10.100611    6.018677
 C    2.514878  -11.500490    7.491310
 C    3.641770  -10.749357    7.275771
 C    3.484491   -9.645953    6.416511
 N    2.301503   -9.380047    5.799900
 C    4.600595   -8.750854    6.137874
 C    4.845002   -8.135392    4.891709
 C    4.200238   -8.071163    3.629472
 C    4.801790   -7.364428    2.618987
 C    6.049174   -6.715439    2.825893
 C    6.662189   -6.792044    4.040767
 C    5.700256   -8.368937    6.962192
 N    6.576155   -7.638054    6.273667
 N    6.051717   -7.498157    5.044518
 C    5.949738   -8.621821    8.403200
 C    7.261572   -8.787486    8.859168
 C    4.904431   -8.666816    9.332161
 C    5.160692   -8.906156   10.676754
 C    6.466599   -9.096510   11.116335
 C    7.514663   -9.034652   10.202600
 H    4.589992  -10.962751    7.749158
 H    3.251306   -8.576368    3.496783
 H    4.325289   -7.296139    1.644033
 H    6.520598   -6.159184    2.024273
 H    7.608495   -6.341588    4.310884
 H    8.083363   -8.718201    8.150583
 H    3.877977   -8.540750    8.997980
 H    4.334020   -8.947658   11.379587
 H    6.668129   -9.287220   12.166919
 H    8.539223   -9.172565   10.538832
