58 
4ifh_ligand_ani.xyz
 C    0.237572    3.000888   -0.183764
 C   -1.155879    3.051790    0.094525
 C   -1.712064    4.001354    0.997101
 C   -3.058511    4.025871    1.242433
 C   -3.923980    3.111149    0.595714
 C   -3.413954    2.193800   -0.285679
 C   -2.017630    2.131398   -0.545454
 C   -1.455030    1.178352   -1.432507
 C   -0.108596    1.153753   -1.683836
 C    0.769011    2.073902   -1.047422
 C    2.260671    2.020426   -1.308141
 C    3.061434    1.186081   -0.291653
 C    4.571730    1.351375   -0.519317
 C    5.396745    0.563526    0.470718
 N    5.858237   -0.635973    0.029245
 O    6.467985   -1.432511    0.991478
 O    5.681830    0.962849    1.596210
 N    2.683964   -0.218476   -0.365658
 C    1.877750   -0.937823    0.455358
 N    3.054687   -0.947750   -1.414101
 N    2.500556   -2.118427   -1.310934
 C    1.757781   -2.154345   -0.169268
 C    0.918065   -3.342662    0.203487
 N   -0.509429   -3.145031   -0.029097
 C   -1.237527   -2.418804    0.880531
 O   -0.768903   -2.058895    1.950972
 C   -2.646888   -2.093002    0.493607
 C   -3.301515   -1.096416    1.217194
 C   -4.611178   -0.751205    0.917333
 C   -5.304083   -1.383735   -0.119861
 C   -6.720836   -0.992931   -0.450345
 C   -4.645239   -2.387811   -0.827761
 C   -3.337307   -2.747771   -0.524064
 H    0.880280    3.730632    0.307492
 H   -1.045869    4.706948    1.490192
 H   -3.474110    4.751512    1.937075
 H   -4.990713    3.145457    0.805391
 H   -4.056050    1.479664   -0.794075
 H   -2.124974    0.474780   -1.923922
 H    0.297904    0.431486   -2.390001
 H    2.665335    3.039115   -1.287300
 H    2.454553    1.615859   -2.307007
 H    2.820496    1.504980    0.725218
 H    4.828215    1.063427   -1.542092
 H    4.838114    2.400869   -0.375622
 H    5.294762   -1.194700   -0.603057
 H    6.455172   -0.833655    1.767907
 H    1.469495   -0.522769    1.368052
 H    1.254278   -4.204973   -0.376780
 H    1.031852   -3.565757    1.267810
 H   -0.794472   -3.093572   -0.996635
 H   -2.760375   -0.596536    2.015726
 H   -5.092573    0.051833    1.474690
 H   -7.410335   -1.257879    0.360139
 H   -6.799306    0.090877   -0.602190
 H   -7.071215   -1.485555   -1.362017
 H   -5.163668   -2.899002   -1.637843
 H   -2.873445   -3.567945   -1.070193
