34 
4igr_ligand_dft.xyz
 O    4.360872    0.764002    0.756145
 C    1.911420    1.359996   -0.125681
 C   -0.634564    1.310712    0.403195
 O   -3.276667   -2.143921   -0.389446
 O   -3.385301   -0.755186    1.385194
 C   -1.964559    1.573901   -0.275407
 C    2.450428   -0.049898   -0.302576
 C   -1.234227   -1.276115    0.413640
 C   -0.620764   -0.062290    1.120866
 C    0.484337    1.561440   -0.640682
 N   -0.850204   -1.358885   -1.027715
 C   -2.758953   -1.329498    0.538191
 O   -2.380466    0.911197   -1.215387
 O   -2.621348    2.605770    0.219731
 O    1.787729   -0.990023   -0.768773
 N    3.733956   -0.248776    0.051095
 C    4.379419   -1.545607    0.137369
 H    5.046655    1.111832    0.163512
 H    2.004530    1.642924    0.929216
 H    2.586111    2.038820   -0.657031
 H   -0.512205    2.061150    1.189112
 H   -4.241641   -2.172394   -0.272392
 H   -0.849505   -2.183295    0.891128
 H    0.411114   -0.300113    1.386786
 H   -1.173127    0.033122    2.059124
 H    0.332221    0.971472   -1.548626
 H    0.386801    2.606345   -0.952590
 H   -1.340729   -0.583793   -1.514653
 H    0.193609   -1.230290   -1.098501
 H   -1.141264   -2.245682   -1.443421
 H   -3.456766    2.708193   -0.269293
 H    3.758972   -2.267443   -0.390914
 H    5.363833   -1.495155   -0.334634
 H    4.491348   -1.832631    1.186301
