34 
4igr_ligand_ani.xyz
 O    4.164269    0.732139    1.007739
 C    1.916510    1.417115   -0.365707
 C   -0.571538    1.327048    0.311337
 O   -3.245254   -1.968413   -0.381880
 O   -3.288556   -0.661754    1.445704
 C   -1.967013    1.473071   -0.257850
 C    2.468810    0.006370   -0.463489
 C   -1.152660   -1.247943    0.423300
 C   -0.477636   -0.025035    1.062052
 C    0.459353    1.555442   -0.812272
 N   -0.833455   -1.449121   -1.014509
 C   -2.667628   -1.222193    0.578654
 O   -2.348231    0.888673   -1.255873
 O   -2.772852    2.248220    0.467807
 O    1.891666   -0.920579   -1.022790
 N    3.720890   -0.201230    0.063743
 C    4.212613   -1.537837    0.336869
 H    4.846463    1.239565    0.543569
 H    2.061550    1.777806    0.657476
 H    2.555805    2.046652   -0.998412
 H   -0.436835    2.116951    1.058620
 H   -4.202976   -1.901895   -0.232034
 H   -0.830914   -2.133852    0.985096
 H    0.577326   -0.264235    1.231102
 H   -0.941168    0.099009    2.044227
 H    0.268440    0.886564   -1.654516
 H    0.316135    2.576645   -1.188339
 H   -1.354710   -0.722035   -1.549891
 H    0.191266   -1.349564   -1.150727
 H   -1.152285   -2.384687   -1.317337
 H   -3.658943    2.161345    0.076690
 H    3.808634   -2.202169   -0.427373
 H    5.305117   -1.532442    0.283187
 H    3.901830   -1.883710    1.330989
