34 
4igr_ligand_xtb.xyz
 O    4.346431    0.854614    0.705978
 C    1.870459    1.333097   -0.105386
 C   -0.666330    1.295946    0.387365
 O   -3.260161   -2.042507   -0.373925
 O   -3.389441   -0.591024    1.329450
 C   -1.993499    1.450501   -0.335089
 C    2.432238   -0.058941   -0.281058
 C   -1.215586   -1.261479    0.501180
 C   -0.609558   -0.028843    1.176543
 C    0.454791    1.521765   -0.650855
 N   -0.766812   -1.396272   -0.898919
 C   -2.754036   -1.233299    0.549164
 O   -2.336867    0.721505   -1.247060
 O   -2.702715    2.455321    0.099830
 O    1.806234   -1.017087   -0.755446
 N    3.698920   -0.212203    0.097417
 C    4.420405   -1.459645    0.073399
 H    5.208947    0.980946    0.276680
 H    1.925928    1.603353    0.950912
 H    2.549578    2.011768   -0.626463
 H   -0.603938    2.104487    1.120018
 H   -4.230987   -2.052325   -0.352164
 H   -0.905926   -2.148942    1.065948
 H    0.427104   -0.236875    1.436105
 H   -1.163148    0.111417    2.107153
 H    0.321580    0.892677   -1.531480
 H    0.359417    2.555161   -0.988387
 H   -1.278941   -0.648141   -1.427165
 H    0.302899   -1.234080   -0.931746
 H   -1.013412   -2.308528   -1.286331
 H   -3.557206    2.551819   -0.355736
 H    3.765143   -2.220641   -0.342405
 H    5.310180   -1.366539   -0.552345
 H    4.716882   -1.737423    1.085733
