34 
4igt_ligand_ani.xyz
 O    4.164234    0.737077    1.008884
 C    1.915090    1.413336   -0.368298
 C   -0.572997    1.328409    0.306669
 O   -3.246661   -1.959528   -0.387133
 O   -3.292672   -0.663739    1.447890
 C   -1.969173    1.471511   -0.261205
 C    2.470395    0.003385   -0.460239
 C   -1.154987   -1.245576    0.427123
 C   -0.481659   -0.020357    1.063905
 C    0.458465    1.549019   -0.817687
 N   -0.832181   -1.450642   -1.009313
 C   -2.670321   -1.219750    0.579029
 O   -2.778452    2.237319    0.470674
 O   -2.348571    0.889221   -1.261146
 O    1.894330   -0.928055   -1.013288
 N    3.724700   -0.197468    0.064223
 C    4.227220   -1.530923    0.332653
 H    4.844535    1.247463    0.545190
 H    2.057689    1.777273    0.654040
 H    2.554814    2.041906   -1.001458
 H   -0.437195    2.121989    1.049854
 H   -4.204707   -1.891361   -0.239832
 H   -0.834342   -2.129795    0.992199
 H    0.572692   -0.259036    1.237408
 H   -0.948390    0.107869    2.044058
 H    0.268027    0.875314   -1.656116
 H    0.315785    2.567777   -1.200458
 H   -1.352152   -0.725501   -1.548506
 H    0.193023   -1.351766   -1.142840
 H   -1.149739   -2.387105   -1.310602
 H   -3.665643    2.144281    0.083441
 H    3.826739   -2.196483   -0.432364
 H    5.319600   -1.516794    0.276256
 H    3.921774   -1.881943    1.326603
