25 
4iid_ligand_ani.xyz
 C    0.045665    1.636251    0.329555
 C    1.423672    0.981501    0.382677
 O    2.012822    1.088552   -0.904893
 C    1.260386   -0.489617    0.805743
 O    0.653553   -0.601368    2.081520
 C    0.367285   -1.253305   -0.176655
 O    1.113881   -1.521329   -1.380219
 C   -0.890798   -0.489843   -0.605514
 N   -0.688017    1.001155   -0.794933
 C   -2.082952   -0.642129    0.333380
 O   -3.018067    0.329714   -0.136056
 H   -0.483229    1.472195    1.266694
 H    0.139106    2.708607    0.159753
 H    2.068964    1.504326    1.102059
 H    2.005671    0.196680   -1.293850
 H    2.251098   -0.979202    0.809692
 H    1.227090   -0.162176    2.722668
 H    0.057022   -2.193684    0.294706
 H    1.672403   -2.295639   -1.230515
 H   -1.168562   -0.897210   -1.576320
 H   -1.656281    1.378843   -0.875255
 H   -0.103180    1.160920   -1.638178
 H   -2.492769   -1.659813    0.265917
 H   -1.785017   -0.448168    1.373453
 H   -3.753248    0.384536    0.485767
