26 
4iie_ligand_xtb.xyz
 O   -2.642717   -0.010848   -0.572438
 C   -1.339879   -0.175539   -0.156512
 N   -0.693142   -1.145439   -1.116249
 C   -1.166202   -0.898115    1.189600
 C    0.071644   -1.794706    1.013425
 C    0.556724   -1.516429   -0.412587
 C   -0.539708    1.139103   -0.227966
 O   -1.212462    2.034418    0.609343
 C    0.930742    0.940944    0.189177
 O    1.599803    2.103533   -0.229079
 C    1.535350   -0.326719   -0.475223
 O    2.695465   -0.751611    0.184361
 H   -2.995395    0.815641   -0.212175
 H   -0.551144   -0.732429   -2.044412
 H   -1.331391   -1.944518   -1.216229
 H   -1.063973   -0.171449    1.992165
 H   -2.061549   -1.486420    1.388979
 H    0.865282   -1.576413    1.724028
 H   -0.190319   -2.845007    1.128331
 H    1.038745   -2.383596   -0.867525
 H   -0.545718    1.511785   -1.267115
 H   -0.746161    2.879909    0.611543
 H    0.985524    0.828968    1.279185
 H    2.434005    2.210597    0.241215
 H    1.745566   -0.085838   -1.529546
 H    3.455784   -0.218327   -0.071685
