42 
4ijp_ligand_ani.xyz
 C  -20.703902  -32.445081   18.508226
 C  -19.345899  -32.667957   18.717948
Cl  -18.225806  -31.418940   18.245439
 N  -18.826370  -33.756923   19.249867
 C  -19.689054  -34.711192   19.610089
 C  -21.064800  -34.607918   19.452422
 C  -21.591231  -33.446465   18.889163
 C  -23.078417  -33.238134   18.711063
 N  -23.602250  -32.178081   19.555460
 C  -23.728504  -30.901252   19.088078
 O  -23.476726  -30.588079   17.932397
 C  -24.205797  -29.912902   20.084285
 S  -24.070459  -28.234502   19.689657
 C  -24.795929  -30.095965   21.310020
 C  -25.126990  -28.866477   21.934466
 C  -24.794578  -27.763910   21.187336
 C  -24.935308  -26.362435   21.593324
 C  -23.861980  -25.485861   21.483005
 C  -23.947241  -24.166107   21.934448
 C  -25.116528  -23.686132   22.503361
 C  -26.211572  -24.542069   22.602029
 S  -27.779260  -24.156187   23.256427
 C  -26.152647  -25.877630   22.137460
 C  -27.423884  -26.529918   22.284278
 C  -28.373461  -25.738036   22.849990
 C  -29.793179  -26.030548   23.184404
 O  -30.443884  -25.288117   23.897152
 N  -30.295356  -27.189955   22.659797
 H  -21.055265  -31.521794   18.057278
 H  -19.250355  -35.605823   20.047802
 H  -21.720205  -35.415831   19.765884
 H  -23.295249  -32.948098   17.681113
 H  -23.621011  -34.161915   18.929066
 H  -23.529785  -32.317912   20.552013
 H  -25.025139  -31.064230   21.746956
 H  -25.572261  -28.780774   22.920270
 H  -22.932022  -25.850431   21.057407
 H  -23.085816  -23.512346   21.842637
 H  -25.178533  -22.661070   22.858615
 H  -27.584281  -27.560032   21.977681
 H  -31.290791  -27.318739   22.773174
 H  -29.877277  -27.600233   21.839512
