42 
4ijp_ligand_dft.xyz
 C   -5.452761    0.003096    0.343892
 C   -6.445712    0.777602   -0.246890
Cl   -6.505288    2.486577    0.130271
 N   -7.365504    0.329458   -1.080798
 C   -7.328535   -0.973206   -1.370053
 C   -6.384570   -1.849100   -0.847701
 C   -5.420902   -1.354323    0.029409
 C   -4.351272   -2.250341    0.619504
 N   -3.011405   -1.905247    0.180054
 C   -2.235115   -1.039169    0.899447
 O   -2.592633   -0.557635    1.966577
 C   -0.913822   -0.723574    0.310645
 S   -0.034122    0.608195    0.970916
 C   -0.209444   -1.340696   -0.691268
 C    1.040964   -0.723385   -0.943796
 C    1.277286    0.356864   -0.127712
 C    2.447511    1.251266   -0.127587
 C    2.290203    2.631053   -0.121601
 C    3.395939    3.492997   -0.154166
 C    4.685487    2.996442   -0.198060
 C    4.859589    1.609322   -0.190600
 S    6.378110    0.757699   -0.214246
 C    3.761464    0.725039   -0.142657
 C    4.194589   -0.642948   -0.088265
 C    5.547327   -0.769945   -0.109495
 C    6.381622   -2.001365   -0.084944
 O    7.556045   -1.981932   -0.408883
 N    5.732380   -3.145804    0.293330
 H   -4.731849    0.435413    1.029136
 H   -8.093787   -1.326596   -2.056586
 H   -6.405081   -2.899799   -1.121612
 H   -4.547525   -3.294444    0.356759
 H   -4.354028   -2.167356    1.708761
 H   -2.787356   -2.052249   -0.792435
 H   -0.557069   -2.219240   -1.224252
 H    1.730535   -1.040720   -1.717638
 H    1.288697    3.050758   -0.116963
 H    3.232246    4.565847   -0.156418
 H    5.539890    3.664600   -0.232555
 H    3.509900   -1.481675   -0.047174
 H    6.322597   -3.954306    0.425864
 H    4.904223   -3.092433    0.865524
