71 
4inh_ligand_ani.xyz
 C   -2.286631   -0.545516    2.375913
 O   -2.863693    0.535139    2.388776
 O   -2.846295   -1.698468    1.964101
 C   -4.152797   -1.604301    1.363444
 C   -4.046943   -1.503201   -0.136767
 C   -3.717126   -0.284564   -0.732876
 C   -3.575812   -0.183892   -2.112822
 C   -3.793108   -1.299241   -2.917353
 C   -4.128134   -2.519527   -2.332870
 C   -4.245769   -2.621022   -0.950435
 N   -1.013851   -0.760010    2.809027
 C   -0.229443    0.370264    3.278956
 C    0.333159    1.152325    2.078509
 O    1.493265    0.982797    1.697548
 C    0.890899   -0.091137    4.198437
 N   -0.551088    1.987482    1.496611
 C   -0.321510    2.749084    0.262786
 C   -0.277771    1.804031   -0.949766
 O   -1.168045    1.802595   -1.789094
 C    0.877747    3.698786    0.361540
 C    1.210303    4.422440   -0.949188
 C    2.374818    5.385218   -0.720965
 C    0.001079    5.153297   -1.532242
 C   -0.304517   -1.188369   -1.140400
 C    4.108397   -1.927537   -0.954715
 C    2.674007   -1.459524   -0.712461
 N    0.805595    0.978292   -1.022836
 O    4.646494   -1.770533   -2.041355
 N    4.754854   -2.516874    0.099530
 C    4.175224   -2.768596    1.402707
 C    6.102568   -3.017465   -0.098812
 C    0.693156   -0.235108   -1.801656
 C    2.057638   -0.902479   -1.996326
 O   -0.605932   -1.165634    0.032695
 O   -0.804528   -2.072511   -2.006272
 H   -4.653122   -2.531148    1.651725
 H   -4.674755   -0.743251    1.789170
 H   -3.562604    0.584709   -0.094273
 H   -3.271236    0.758868   -2.554411
 H   -3.686589   -1.227706   -3.997362
 H   -4.284962   -3.396435   -2.956023
 H   -4.499332   -3.578987   -0.500286
 H   -0.515833   -1.474256    2.291372
 H   -0.930736    1.020352    3.815413
 H    1.595642   -0.719618    3.644905
 H    0.472966   -0.664567    5.030055
 H    1.442284    0.767005    4.593390
 H   -1.521065    1.857830    1.772556
 H   -1.233279    3.333606    0.119584
 H    1.752402    3.142984    0.710162
 H    0.644704    4.437060    1.140248
 H    1.531129    3.663149   -1.676464
 H    2.667882    5.881133   -1.653125
 H    3.252169    4.859469   -0.327291
 H    2.097199    6.164247    0.000704
 H    0.289639    5.724101   -2.421939
 H   -0.790056    4.457377   -1.828255
 H   -0.417121    5.862245   -0.805078
 H    2.078583   -2.307938   -0.349725
 H    2.677757   -0.713341    0.095599
 H    1.360809    0.931647   -0.171796
 H    4.845379   -2.400164    2.189176
 H    4.017472   -3.842525    1.575013
 H    3.218992   -2.254667    1.512149
 H    6.426562   -2.748088   -1.104513
 H    6.788796   -2.577048    0.636089
 H    6.137700   -4.109514    0.013043
 H    0.277054    0.035793   -2.776158
 H    2.736633   -0.167690   -2.436710
 H    1.956538   -1.712326   -2.725495
 H   -1.522909   -2.545403   -1.544770
