81 
4int_ligand_ani.xyz
 C    5.623914   -3.185776   -1.651203
 C    4.463890   -3.513743   -0.958785
 C    3.769195   -2.528614   -0.273893
 C    4.223229   -1.208895   -0.287022
 C    5.433053   -0.868208   -0.911126
 C    6.095533   -1.875466   -1.629243
 C    6.089684    0.494016   -0.845088
 C    3.338672   -0.211921    0.408484
 O    7.234955   -1.510490   -2.290510
 O    2.721264   -0.510279    1.431674
 N    3.178303    0.990841   -0.201180
 C    2.519450    2.097836    0.468199
 C    1.001874    1.895711    0.609753
 O    0.415168    2.322370    1.603709
 C    2.849736    3.440380   -0.227222
 C    2.361802    4.625639    0.606769
 C    2.311772    3.542309   -1.659042
 N    0.382664    1.269256   -0.414406
 C   -1.045150    1.191980   -0.554809
 C   -1.399530   -0.206159   -1.054381
 O   -0.596771   -0.881793   -1.684243
 C   -1.553669    2.236496   -1.550919
 O   -1.217985    3.506907   -1.025243
 O   -5.211774    0.262981    0.340816
 S   -5.632726    0.121998   -1.058676
 O   -4.952600    0.899272   -2.095234
 C   -7.369214    0.506008   -1.133392
 C   -5.578877   -1.637438   -1.496683
 C   -4.192472   -2.179738   -1.855301
 C   -3.071834   -1.990960   -0.826563
 C   -3.407236   -2.487966    0.598110
 C   -2.402653   -1.977456    1.608689
 C   -2.732161   -0.894628    2.429773
 C   -1.787748   -0.351764    3.294197
 C   -0.497253   -0.876396    3.367469
 C    0.512888   -0.280285    4.330346
 N    1.417786    0.696177    3.645185
 C   -0.158628   -1.942362    2.529860
 C   -1.100208   -2.478348    1.657024
 N   -2.663173   -0.601894   -0.768578
 H    6.172689   -3.949075   -2.202598
 H    4.104950   -4.539231   -0.962747
 H    2.858549   -2.752483    0.273202
 H    5.765718    1.068193    0.026986
 H    5.884120    1.080949   -1.750248
 H    7.177063    0.389373   -0.796593
 H    7.586732   -2.276696   -2.760312
 H    3.765876    1.199977   -0.992419
 H    2.881732    2.157956    1.499580
 H    3.949964    3.477583   -0.268438
 H    2.723917    4.571925    1.639808
 H    2.716433    5.567759    0.175302
 H    1.267245    4.656818    0.638010
 H    2.674385    4.464584   -2.126262
 H    2.635963    2.706920   -2.291169
 H    1.215434    3.573375   -1.664965
 H    0.923064    0.712510   -1.065089
 H   -1.497121    1.393833    0.425016
 H   -2.640942    2.126688   -1.688536
 H   -1.059483    2.066357   -2.521399
 H   -1.532451    4.177280   -1.642745
 H   -7.473223    1.559883   -0.869206
 H   -7.906105   -0.113394   -0.411999
 H   -7.731121    0.338011   -2.150000
 H   -6.241029   -1.752820   -2.361622
 H   -6.016981   -2.175226   -0.647761
 H   -4.313104   -3.253295   -2.055741
 H   -3.850448   -1.717386   -2.787299
 H   -2.195041   -2.535005   -1.194910
 H   -4.395242   -2.125135    0.896098
 H   -3.447751   -3.584345    0.595792
 H   -3.731567   -0.466651    2.382731
 H   -2.054156    0.491600    3.926905
 H    1.126279   -1.071830    4.767296
 H   -0.005304    0.237758    5.139543
 H    1.943577    0.201310    2.900308
 H    2.077688    1.120175    4.313806
 H    0.853359    1.441537    3.193377
 H    0.850677   -2.348107    2.560578
 H   -0.816348   -3.291081    0.989484
 H   -3.259877    0.019505   -0.231829
