20 
4io2_ligand_ani.xyz
 N    0.875089    1.746663    0.122188
 C    1.132711    0.431598    0.800262
 C    1.726365   -0.532622   -0.217753
 O    2.354278    0.150497   -1.201942
 C   -0.082192   -0.145999    1.539626
 C   -1.136615   -0.873761    0.703717
 C   -1.948686    0.006252   -0.208104
 O   -1.770048    1.191614   -0.410558
 O   -2.942304   -0.664127   -0.801620
 O    1.707316   -1.735460   -0.165661
 H    1.468056    1.784941   -0.721803
 H    1.105414    2.532893    0.747082
 H   -0.128600    1.786667   -0.153052
 H    1.931251    0.581520    1.531910
 H    2.737973   -0.512013   -1.799493
 H   -0.552611    0.669281    2.100249
 H    0.298998   -0.858296    2.276027
 H   -1.845794   -1.382910    1.366193
 H   -0.670274   -1.655392    0.094160
 H   -3.413474   -0.026323   -1.364828
