15 
4io4_ligand_xtb.xyz
 N   -0.547626    1.554742    0.174235
 C   -0.194789    0.224952    0.734262
 C    1.107700   -0.295205    0.080065
 O    1.785996    0.701368   -0.487071
 C   -1.358253   -0.732261    0.419027
 O   -1.806131   -0.366605   -0.871018
 O    1.437869   -1.434438    0.113538
 H    0.304505    2.023942   -0.167254
 H   -1.052863    2.153871    0.833958
 H   -1.169720    1.314783   -0.632882
 H   -0.015052    0.275717    1.811427
 H    2.620927    0.390531   -0.877586
 H   -0.987018   -1.760734    0.452693
 H   -2.164271   -0.616286    1.154056
 H   -2.372937   -1.052525   -1.237781
