15 
4io4_ligand_ani.xyz
 N   -0.467016    1.578761    0.057348
 C   -0.197892    0.258588    0.708776
 C    1.059666   -0.330939    0.087929
 O    1.866607    0.651086   -0.376285
 C   -1.404444   -0.649087    0.487952
 O   -1.818823   -0.369000   -0.844529
 O    1.351357   -1.497235    0.033116
 H    0.422437    1.942163   -0.311445
 H   -0.889738    2.244048    0.718246
 H   -1.116924    1.366244   -0.724413
 H    0.010183    0.388928    1.770659
 H    2.654496    0.210947   -0.735824
 H   -1.106855   -1.694678    0.613277
 H   -2.204341   -0.414582    1.203468
 H   -2.437264   -1.044579   -1.141765
