21 
4io6_ligand_ani.xyz
 N    0.883597    1.702719   -0.226651
 C    1.288015    0.575969    0.683866
 C    1.917242   -0.508520   -0.179875
 O    2.433589    0.039364   -1.304425
 C    0.163039    0.036571    1.570136
 C   -0.998724   -0.652114    0.852532
 S   -2.030345    0.490931   -0.116490
 C   -3.131715   -0.700836   -0.908626
 O    2.001160   -1.681638    0.077726
 H   -0.094424    1.547698   -0.546016
 H    1.518210    1.686496   -1.043218
 H    0.958671    2.610113    0.256564
 H    2.094973    0.933178    1.328796
 H    2.850384   -0.685362   -1.799123
 H    0.618794   -0.706665    2.232027
 H   -0.214870    0.841935    2.209529
 H   -1.637730   -1.140894    1.594749
 H   -0.606373   -1.422481    0.181972
 H   -3.760330   -1.215703   -0.176343
 H   -3.775169   -0.155302   -1.602519
 H   -2.556920   -1.435179   -1.480625
