61 
4io8_ligand_ani.xyz
 C    2.064866    1.374821    2.156624
 C    2.933201    2.030966    1.293774
 C    3.868189    1.304732    0.560990
Cl    4.925020    2.150410   -0.518947
 C    3.918072   -0.084330    0.696782
 C    3.042850   -0.735317    1.561554
 C    2.120271   -0.008610    2.313855
 C    1.176510   -0.721708    3.259314
 N    0.176839   -1.518288    2.562894
 C   -0.897645   -0.880218    2.025674
 N   -1.357369    0.289228    2.409681
 C   -2.537907    0.439255    1.689397
 C   -3.507946    1.450994    1.635982
 N   -3.344156    2.624106    2.323896
 N   -4.579044    1.309150    0.846643
 C   -4.674579    0.196893    0.118043
 N   -3.815626   -0.823569    0.058047
 C   -2.754012   -0.652333    0.850417
 N   -1.668861   -1.491333    1.028046
 C   -1.402913   -2.763483    0.357614
 O   -0.001147   -2.997621    0.285870
 C   -1.888844   -2.769319   -1.096636
 O   -3.193535   -3.270217   -1.215738
 C   -0.878771   -3.671155   -1.796502
 O   -1.205912   -5.027641   -1.596459
 C    0.411390   -3.378010   -1.031543
 C    1.265733   -2.261686   -1.620083
 O    0.491363   -1.089917   -1.684447
 C    1.169735    0.051708   -2.167429
 C    0.288037    1.259243   -1.971354
 C   -0.143755    1.613693   -0.690674
 C   -0.926911    2.742307   -0.494428
 C   -1.308608    3.522773   -1.588546
 C   -2.110859    4.706131   -1.402985
 N   -2.752254    5.662199   -1.268703
 C   -0.895617    3.166836   -2.875045
 C   -0.099697    2.043716   -3.055257
Cl    5.060716   -1.026118   -0.207250
 H    1.308571    1.938890    2.697685
 H    2.894775    3.109042    1.175457
 H    3.107163   -1.817666    1.651254
 H    0.649281    0.003596    3.884968
 H    1.736225   -1.392710    3.921845
 H    0.520897   -2.289620    2.004118
 H   -2.789219    2.551621    3.166919
 H   -4.183813    3.182543    2.398826
 H   -5.558723    0.116944   -0.505317
 H   -1.868495   -3.576169    0.926801
 H   -1.800832   -1.755918   -1.502540
 H   -3.775384   -2.560808   -0.876466
 H   -0.799714   -3.436554   -2.869680
 H   -2.173437   -5.079035   -1.621666
 H    1.006627   -4.293523   -0.952695
 H    1.623253   -2.562410   -2.619788
 H    2.146232   -2.112361   -0.972479
 H    2.123373    0.176189   -1.626454
 H    1.405959   -0.072303   -3.236705
 H    0.143686    1.010926    0.171799
 H   -1.231968    3.053384    0.498648
 H   -1.194404    3.774436   -3.724554
 H    0.224824    1.773840   -4.059158
