38 
4iqu_ligand_ani.xyz
 O    1.441108   -2.086476    1.096374
 O    1.243401   -0.027927   -1.552935
 O   -2.408167    2.987131   -0.668805
 O    3.304861    0.834856   -1.341262
 O    2.280927   -2.590105   -1.569017
 F   -5.051813   -2.643734    0.178108
 C    2.614056   -0.358064    2.284194
 C    2.679401    0.982132    1.624756
 C    3.615641   -1.607057    0.224794
 C   -2.912978   -1.700131   -0.059997
 C   -4.892161   -0.299763    0.112741
 C   -2.123383   -0.561587   -0.157559
 C   -4.090563    0.827382    0.008939
 C    0.490538    2.751298   -0.426393
 C    0.206830    1.209725    1.175599
 N    1.708812    2.517125    0.022210
 C    2.466276   -1.441306    1.202117
 C    2.437692   -0.169738   -1.428597
 C    3.122160   -1.526011   -1.240339
 C   -1.903407    1.971857   -0.219906
 C   -4.284359   -1.545970    0.079884
 C    1.579652    1.542460    1.040541
 C   -2.703301    0.710078   -0.104236
 C   -0.488910    1.960917    0.208333
 H    2.785048    1.655021   -1.093714
 H    1.550620   -2.555540   -0.928266
 H    3.531789   -0.538960    2.857389
 H    1.756123   -0.448343    2.956562
 H    3.626223    1.476465    1.453826
 H    4.362132   -0.827546    0.406514
 H    4.079509   -2.587372    0.381992
 H   -2.484509   -2.696179   -0.089731
 H   -5.970991   -0.230524    0.211056
 H   -1.046850   -0.659978   -0.293038
 H   -4.528451    1.820737    0.010382
 H    0.300199    3.448068   -1.234769
 H   -0.222863    0.474127    1.845716
 H    3.990504   -1.573412   -1.906425
