24 
4irx_ligand_ani.xyz
 C   31.546912   23.999813   29.064221
 C   31.911763   25.444555   28.734114
 C   31.830012   25.709551   27.234446
 C   30.467135   25.309452   26.656690
 C   30.138290   23.857113   26.965261
 C   30.194101   23.632526   28.471944
 O   31.502902   23.901118   30.476626
 O   30.980227   26.322303   29.347187
 O   32.083679   27.068505   26.930488
 O   30.474721   25.513875   25.265326
 O   28.878823   23.432259   26.472747
 O   29.942122   22.280320   28.791040
 H   32.312452   23.323485   28.650943
 H   32.931370   25.660980   29.087624
 H   32.604836   25.129639   26.718932
 H   29.701210   25.947705   27.138553
 H   30.878605   23.210874   26.475208
 H   29.437501   24.283291   28.947664
 H   31.055064   23.065808   30.676444
 H   30.897898   26.020260   30.264289
 H   31.562356   27.585091   27.564044
 H   30.886797   26.382178   25.142171
 H   28.234143   24.130813   26.648449
 H   29.181082   22.022486   28.249590
