64 
4isi_ligand_xtb.xyz
 C    0.975780    1.248191    2.211929
 C    1.697489    1.698495    1.111856
 C    1.120649    2.574930    0.212130
 C   -0.183804    3.019188    0.394736
Cl   -0.410898   -2.633856    1.572137
 C   -0.887431    2.601476    1.518586
 C   -0.311326    1.729339    2.422334
 C    1.554804    0.264813    3.153237
 N    1.315406    0.403471    4.390273
 N    2.356281   -0.691628    2.576836
 C   -0.892012    3.757539   -0.714688
 N   -1.303138    2.735134   -1.672880
 C   -2.300043    1.895627   -1.337550
 O   -3.207726    2.175171   -0.585688
 C   -2.167368    0.487472   -1.975957
 C   -3.290373   -0.436737   -1.513685
 C   -2.733974   -1.233346   -0.309461
 C   -1.248516   -1.023002   -0.432583
 N   -0.960762   -0.128987   -1.435935
 C   -3.103347   -2.726000   -0.408012
 C   -3.209808   -0.633634    1.032209
 C   -2.366108   -3.481985   -1.509255
 C   -4.680603   -0.880051    1.346840
 C   -0.199360   -1.562992    0.241596
 N    1.089042   -1.324705   -0.076805
 C    1.345247   -0.543353   -1.095560
 C    0.297888    0.163810   -1.840742
 O    0.554846    0.969203   -2.742803
 N    2.597354   -0.308894   -1.511199
 C    3.781301   -0.903340   -0.973565
 C    4.847228    0.051355   -0.395907
 C    5.922758   -0.699749   -1.195567
 C    4.817779   -1.406259   -1.995880
 H    2.712198    1.361913    0.964895
 H    1.680760    2.907401   -0.651087
 H   -1.898992    2.947451    1.669357
 H   -0.851501    1.395605    3.293921
 H    1.741647   -0.305719    4.983221
 H    2.160956   -0.939886    1.614182
 H    2.611831   -1.469563    3.167653
 H   -1.786203    4.261934   -0.345450
 H   -0.242393    4.469085   -1.224714
 H   -0.563788    2.367626   -2.269164
 H   -2.074529    0.581965   -3.061769
 H   -4.148221    0.164575   -1.216953
 H   -3.592614   -1.107496   -2.316128
 H   -2.891233   -3.206746    0.547171
 H   -4.177116   -2.792539   -0.587746
 H   -2.601827   -1.051232    1.836138
 H   -3.032003    0.442028    1.003315
 H   -1.301691   -3.544477   -1.296514
 H   -2.755116   -4.494917   -1.580204
 H   -2.492114   -3.004153   -2.478447
 H   -5.320713   -0.523595    0.544076
 H   -4.881107   -1.935232    1.511862
 H   -4.946258   -0.340000    2.252007
 H    2.676693    0.345707   -2.279550
 H    3.466558   -1.671563   -0.267507
 H    4.706935    1.074104   -0.740493
 H    4.954167    0.048186    0.685930
 H    6.499540   -1.386103   -0.580727
 H    6.606856   -0.081926   -1.771710
 H    4.903282   -2.485097   -2.098054
 H    4.663924   -0.968240   -2.980212
