35 
4isu_ligand_dft.xyz
 C   -3.839350   -0.378852   -0.356300
 C   -2.624933   -0.449947    1.816752
 C   -3.756020   -0.284622    1.138115
 C   -1.440294   -1.096645   -0.352040
 C   -1.332544   -0.809349    1.149502
 O   -0.425401    0.281740    1.244989
 N    1.692084   -1.951026    0.130890
 C    1.803980   -0.675235    0.790416
 C    0.571884    0.160191    0.244035
 C   -0.040046   -0.744860   -0.858900
 C    0.782158   -2.039415   -0.873766
 O    0.570301   -2.979854   -1.602643
 C    0.985968    1.573960   -0.150704
 C    3.156943    0.004335    0.586122
 O    3.790491   -0.428217   -0.510419
 C   -0.118910    2.490816   -0.612401
 O    0.285752    3.748227   -0.613049
 O   -1.237675    2.176911   -0.988725
 O    3.577083    0.852678    1.329589
 N   -2.483004   -0.210934   -0.960690
 H   -4.473956    0.409404   -0.768424
 H   -4.238437   -1.343903   -0.686912
 H   -2.602858   -0.336928    2.895420
 H   -4.686878   -0.062391    1.649829
 H   -1.718373   -2.128690   -0.576524
 H   -0.903029   -1.701223    1.629198
 H    2.385355   -2.678598    0.243239
 H    1.675466   -0.758294    1.873670
 H   -0.036178   -0.304011   -1.858969
 H    1.727516    1.539274   -0.958746
 H    1.485218    2.055778    0.695019
 H    4.643700    0.036494   -0.557475
 H   -0.434736    4.311383   -0.944604
 H   -2.528042   -0.392143   -1.966773
 H   -2.135739    0.773439   -0.862269
