25 
4iuo_ligand_dft.xyz
 C   -1.001917   -0.124312   -0.110825
 O   -0.926459   -0.586883   -1.456330
 C   -0.349010   -1.206254    0.753610
 O    1.446890   -1.897301   -0.785928
 C    1.151651   -1.335513    0.486042
 O    3.223464   -0.100007    0.270365
 C    1.857723    0.018950    0.613594
 O    1.828652    2.332381   -0.075439
 C    1.203843    1.084406   -0.266861
 O   -2.897954   -0.050993    1.415906
 C   -0.277566    1.227204    0.054028
 O   -3.209730    0.485882   -0.741826
 C   -2.460452    0.075538    0.300733
 H   -1.386709    0.043289   -2.026517
 H   -0.515230   -0.951978    1.804421
 H   -0.839907   -2.166038    0.564893
 H    0.778917   -1.564343   -1.406380
 H    1.589127   -2.021611    1.218414
 H    3.232067   -0.717967   -0.479229
 H    1.817485    0.364235    1.654384
 H    2.778692    2.144625   -0.092646
 H    1.311332    0.765372   -1.316212
 H   -0.729645    1.981809   -0.600343
 H   -0.394398    1.579803    1.085701
 H   -4.106255    0.638052   -0.402395
