38 
4ivk_ligand_xtb.xyz
 S    0.487630    0.369395   -2.054256
 C   -1.237581    0.808172   -2.430109
 C   -2.121897    0.718498   -1.225904
 C   -3.507966    0.244164   -1.517946
 C   -1.648712    1.022780    0.004661
 C   -2.474569    0.926502    1.225786
 O   -1.853398    1.442095    2.308726
 O   -3.579481    0.451139    1.319464
 N   -0.333049    1.383724    0.268350
 C    0.659809    1.623578   -0.729295
 C    2.049970    1.470959   -0.086110
 C    2.389238    2.634951    0.819304
 O    1.865896    3.711390    0.787379
 N    2.137948    0.220860    0.627788
 C    2.837143   -0.829930    0.116690
 O    3.706773   -0.701572   -0.709062
 C    2.412143   -2.170024    0.718754
 C    0.967054   -2.394216    0.425357
 C    0.406052   -2.872571   -0.715832
 C   -1.008024   -2.852183   -0.692071
 C   -1.510388   -2.351612    0.461815
 S   -0.262896   -1.901851    1.556757
 H   -1.237180    1.813195   -2.859949
 H   -1.559871    0.103178   -3.195200
 H   -4.202370    0.525949   -0.734722
 H   -3.843207    0.655062   -2.469053
 H   -3.516862   -0.843439   -1.598897
 H   -2.432348    1.348603    3.080775
 H   -0.198957    1.870351    1.142255
 H    0.577848    2.612563   -1.203792
 H    2.819117    1.430528   -0.874544
 H    3.191932    2.391248    1.539021
 H    1.336081    0.008582    1.208974
 H    2.590995   -2.152215    1.795109
 H    3.021262   -2.951664    0.263572
 H    0.983694   -3.219432   -1.553147
 H   -1.619703   -3.196849   -1.506469
 H   -2.532415   -2.207281    0.750439
