50 
4ixh_ligand_xtb.xyz
 O   -1.943720   -3.599106    0.428688
 C   -2.124859   -2.575385   -0.192095
 C   -3.492380   -2.240396   -0.813202
 C   -3.546581   -2.859996   -2.209547
 O   -3.696646   -0.849219   -0.961793
 C   -3.920785   -0.091695    0.158772
 C   -3.822426   -0.554829    1.446434
 C   -4.068374    0.307035    2.526540
 C   -4.399194    1.614834    2.322494
 C   -4.257942    1.269781   -0.090741
 C   -4.358513    1.784922   -1.398424
 C   -4.681646    3.097056   -1.607800
 C   -4.919006    3.949370   -0.519742
 C   -4.830319    3.474911    0.759118
 C   -4.498109    2.127898    1.011741
 N   -1.198587   -1.629044   -0.477167
 C    0.157531   -1.574029   -0.145096
 C    0.779563   -2.615460    0.561444
 C    2.123054   -2.575327    0.875406
 C    2.831874   -1.463764    0.460840
 C    2.218029   -0.406527   -0.245571
 C    0.867118   -0.453152   -0.554035
 O    4.141697   -1.148905    0.606416
 C    4.271433    0.060245   -0.004153
 N    3.177039    0.533622   -0.514013
 C    5.566951    0.704867   -0.049890
 C    5.706549    1.953757   -0.657193
 C    6.965229    2.528456   -0.682925
 N    8.040283    1.957513   -0.164056
 C    7.904344    0.774681    0.410458
 C    6.697871    0.100506    0.498840
 H   -4.275526   -2.684408   -0.184287
 H   -2.777788   -2.422378   -2.842231
 H   -3.384047   -3.931405   -2.137637
 H   -4.518224   -2.671584   -2.658332
 H   -3.550321   -1.577533    1.655284
 H   -3.986765   -0.087816    3.528110
 H   -4.586915    2.274325    3.156615
 H   -4.179236    1.119948   -2.229341
 H   -4.757249    3.485004   -2.612962
 H   -5.174044    4.983251   -0.701197
 H   -5.013880    4.126756    1.601219
 H   -1.545155   -0.827251   -0.992789
 H    0.184324   -3.462363    0.858877
 H    2.597554   -3.377129    1.416674
 H    0.397079    0.353972   -1.093083
 H    4.845253    2.437227   -1.087373
 H    7.127834    3.494875   -1.141572
 H    8.810895    0.347817    0.819101
 H    6.627928   -0.864661    0.975041
