50 
4ixh_ligand_dft.xyz
 O   -1.981693   -3.641378    0.493156
 C   -2.192541   -2.604289   -0.112575
 C   -3.615481   -2.264445   -0.584015
 C   -3.911804   -2.979091   -1.894962
 O   -3.794682   -0.876987   -0.815692
 C   -3.900173   -0.035399    0.259755
 C   -3.716759   -0.412445    1.567378
 C   -3.829378    0.554558    2.595832
 C   -4.109165    1.861931    2.311831
 C   -4.195830    1.320240   -0.081042
 C   -4.386637    1.732738   -1.423903
 C   -4.661141    3.045081   -1.714520
 C   -4.758535    4.001298   -0.678851
 C   -4.581981    3.623801    0.627572
 C   -4.296769    2.275869    0.965183
 N   -1.261517   -1.686263   -0.493102
 C    0.119034   -1.651234   -0.212972
 C    0.780384   -2.735827    0.401633
 C    2.142399   -2.684657    0.672506
 C    2.803753   -1.527483    0.305175
 C    2.171872   -0.447904   -0.307875
 C    0.808104   -0.494148   -0.575377
 O    4.123406   -1.203770    0.448156
 C    4.217101    0.047690   -0.084167
 N    3.115425    0.546280   -0.543325
 C    5.534984    0.683398   -0.078360
 C    5.694634    1.949082   -0.643376
 C    6.958042    2.525110   -0.621158
 N    8.035660    1.940520   -0.089789
 C    7.866238    0.730811    0.447075
 C    6.649125    0.058849    0.481016
 H   -4.301352   -2.612731    0.195572
 H   -3.238832   -2.626223   -2.682340
 H   -3.769325   -4.054550   -1.764318
 H   -4.943516   -2.786681   -2.199421
 H   -3.470558   -1.433571    1.835351
 H   -3.679652    0.238079    3.623383
 H   -4.187563    2.598809    3.105882
 H   -4.317435    0.994090   -2.214368
 H   -4.807640    3.352240   -2.745636
 H   -4.974376    5.037605   -0.920875
 H   -4.657057    4.356080    1.427107
 H   -1.642133   -0.868903   -0.952239
 H    0.204969   -3.611214    0.668084
 H    2.651869   -3.515090    1.147269
 H    0.307002    0.347829   -1.042995
 H    4.846649    2.459527   -1.085962
 H    7.115127    3.509870   -1.054973
 H    8.753414    0.270588    0.875898
 H    6.570331   -0.923632    0.932333
