26 
4iz0_ligand_ani.xyz
 C  -26.323554   53.730756   56.253047
 C  -25.865900   54.974990   55.805786
 C  -24.589987   55.086916   55.264780
 C  -23.757792   53.980112   55.164171
 C  -24.208831   52.738456   55.612147
 C  -25.481437   52.623196   56.151235
 S  -27.926000   53.514583   57.012564
 O  -28.885701   54.352791   56.322418
 O  -27.799583   53.542331   58.459483
 N  -28.233840   51.917903   56.636783
 C  -28.613743   51.475110   55.369168
 N  -28.935625   50.216107   55.214480
 O  -29.213802   50.078945   53.860406
 C  -29.046346   51.257598   53.248105
 C  -28.667174   52.204196   54.145158
 C  -29.299034   51.298383   51.780574
Cl  -26.804633   56.422774   55.879043
Cl  -22.184110   54.182581   54.483822
Cl  -23.218184   51.327705   55.510058
 H  -24.241940   56.053300   54.917338
 H  -25.813381   51.642882   56.478990
 H  -28.490290   51.333281   57.422559
 H  -28.488840   53.256421   53.972466
 H  -28.628569   50.615368   51.250492
 H  -30.329165   51.007725   51.553892
 H  -29.132539   52.309589   51.404034
