26 
4iz0_ligand_xtb.xyz
 C   -0.551973    0.796942   -0.239975
 C   -1.659078    1.368243    0.372745
 C   -2.795782    0.607805    0.615601
 C   -2.815981   -0.726982    0.239270
 C   -1.702918   -1.300494   -0.382407
 C   -0.572623   -0.529189   -0.622305
 S    0.865264    1.889250   -0.514650
 O    1.366947    2.304906    0.752715
 O    0.505328    2.856681   -1.497088
 N    2.000098    0.909387   -1.240407
 C    2.641234   -0.115365   -0.586069
 N    3.058737   -1.188944   -1.217012
 O    3.666711   -1.974194   -0.289261
 C    3.606693   -1.380349    0.913675
 C    2.956303   -0.185766    0.796311
 C    4.220317   -2.069899    2.072867
Cl   -1.588159    3.014739    0.804513
Cl   -4.214839   -1.668492    0.535863
Cl   -1.722531   -2.948788   -0.854125
 H   -3.654558    1.053247    1.090628
 H    0.278576   -0.980508   -1.106905
 H    1.915660    0.802096   -2.238861
 H    2.734543    0.548151    1.538874
 H    3.808793   -3.072452    2.173951
 H    5.295003   -2.163550    1.924131
 H    4.030855   -1.503718    2.979054
