64 
4izy_ligand_dft.xyz
 N    5.000408    3.357395    0.059074
 C    4.633067    2.075006   -0.117111
 N    3.377192    1.606878   -0.176598
 C    2.396236    2.489912   -0.043563
 C    2.651416    3.851575    0.163067
 C    3.990819    4.210779    0.197286
 N    1.092593    1.993799   -0.114255
 C   -1.155378    2.019900   -0.295554
 C   -0.039981    2.786352   -0.298272
 C   -0.732462    0.661158   -0.090246
 C    0.672582    0.660648   -0.001919
 C    1.395949   -0.527882    0.154832
 C    0.669854   -1.703401    0.216562
 C   -0.732710   -1.721919    0.149686
 C   -1.454940   -0.544552    0.003881
 N   -2.869187   -0.489644   -0.068268
 N    5.636429    1.175782   -0.269742
 C    5.434112   -0.259929   -0.308657
 C    5.177950   -0.856752    1.082874
 C    4.955270   -2.367257    0.997459
 C    6.139564   -3.059815    0.333887
 C    6.418335   -2.456210   -1.045726
 C    6.631033   -0.941590   -0.974042
 O    5.829700   -4.438701    0.252439
 C   -3.550753   -1.704904   -0.480841
 C   -4.991979   -1.390334   -0.877751
 C   -5.719776   -0.720297    0.291217
 C   -4.950066    0.505444    0.780691
 C   -3.507260    0.115006    1.097440
 S   -7.404846   -0.316539   -0.241208
 O   -7.342452    0.814615   -1.165764
 O   -8.047842   -1.566018   -0.644435
 C   -8.221305    0.244660    1.254201
 H    1.875510    4.585778    0.327230
 H    4.267821    5.251258    0.356107
 H   -2.165371    2.364328   -0.464458
 H    0.057212    3.846956   -0.468346
 H    2.473630   -0.523339    0.200299
 H    1.201369   -2.643922    0.330074
 H   -1.249306   -2.673065    0.224379
 H    6.563620    1.542121   -0.112699
 H    4.547303   -0.436803   -0.928503
 H    4.312119   -0.365642    1.538393
 H    6.044056   -0.638018    1.723588
 H    4.056685   -2.582916    0.402927
 H    4.792308   -2.796449    1.991044
 H    7.030050   -2.906006    0.969785
 H    5.562002   -2.683833   -1.693761
 H    7.297811   -2.936387   -1.494627
 H    7.539800   -0.724503   -0.392175
 H    6.783871   -0.527751   -1.976384
 H    6.575297   -4.885959   -0.165280
 H   -3.553291   -2.470268    0.319818
 H   -3.020199   -2.127647   -1.338399
 H   -5.513287   -2.306405   -1.168277
 H   -4.988755   -0.710133   -1.736076
 H   -5.846387   -1.445406    1.106021
 H   -5.409697    0.930240    1.680284
 H   -4.959968    1.270354   -0.002779
 H   -2.943051    1.001230    1.395271
 H   -3.491013   -0.583294    1.956529
 H   -7.766605    1.172422    1.603658
 H   -9.262191    0.422636    0.975842
 H   -8.168564   -0.537178    2.014042
