108 
4j09_ligand_xtb.xyz
 N   -0.798272    3.108890    1.380976
 C   -1.328576    3.309189    0.001034
 C   -0.219070    3.981027   -0.818913
 O   -0.117970    5.183961   -0.925785
 C   -2.604365    4.171908    0.119141
 O   -3.345341    3.683212    1.211217
 C   -3.387762    4.155556   -1.183894
 N    0.663872    3.081810   -1.273676
 C    1.986043    3.400859   -1.790191
 C    2.799150    2.114827   -1.596538
 O    3.121112    1.416704   -2.543574
 C    2.623709    4.635502   -1.118178
 C    2.168749    4.884632    0.306003
 O    1.796592    3.985937    1.062012
 N    2.231862    6.151629    0.708592
 N    3.037658    1.799918   -0.319281
 C    3.627396    0.522043    0.055146
 C    2.487344   -0.508796    0.016809
 O    1.975609   -0.938327    1.039289
 C    4.275130    0.615067    1.430579
 C    4.998540   -0.669923    1.856907
 C    5.548461   -0.482864    3.269909
 C    6.128862   -1.038201    0.898174
 N    2.127667   -0.818156   -1.234250
 C    0.974225   -1.595539   -1.640884
 C   -0.309407   -0.794618   -1.393465
 O   -0.312163    0.298962   -0.847627
 C    0.941530   -2.989541   -0.969675
 C    2.337961   -3.552478   -0.887606
 C    2.933599   -3.795026    0.340835
 C    3.068868   -3.801019   -2.045011
 C    4.231767   -4.264705    0.418502
 C    4.364390   -4.266580   -1.979677
 C    4.961182   -4.497522   -0.741608
 O    6.238533   -4.941605   -0.722565
 N   -1.439198   -1.388955   -1.817921
 C   -2.737997   -0.728243   -1.753730
 C   -2.946872   -0.177486   -0.338960
 O   -3.286243    0.970470   -0.120501
 C   -3.850707   -1.712409   -2.119220
 C   -5.219360   -1.042587   -2.079406
 S   -6.556569   -2.222244   -2.460983
 C   -6.754426   -3.008084   -0.836408
 N   -2.764288   -1.093387    0.625411
 C   -2.548637   -0.718678    2.013043
 C   -1.034381   -0.504597    2.090586
 O   -0.528840    0.589037    2.241496
 C   -3.047583   -1.802145    2.964936
 C   -4.518592   -2.177032    2.737937
 C   -4.905338   -3.294635    3.703603
 C   -5.446055   -0.977740    2.918404
 O   -0.364208   -1.594391    1.855986
 H    0.136365    3.553227    1.499352
 H   -1.510556    3.505446    2.017296
 H   -0.692683    2.097143    1.639256
 H   -1.590448    2.337828   -0.423844
 H   -2.318804    5.198350    0.375499
 H   -3.737472    2.840610    0.933935
 H   -3.677978    3.134842   -1.423532
 H   -2.780779    4.559325   -1.988409
 H   -4.283313    4.761730   -1.082708
 H    0.453032    2.097006   -1.147271
 H    1.929632    3.587296   -2.870477
 H    3.708645    4.503198   -1.114283
 H    2.391453    5.522121   -1.707092
 H    1.928538    6.393386    1.639353
 H    2.458273    6.900910    0.078068
 H    2.654716    2.385839    0.419940
 H    4.365862    0.266503   -0.711359
 H    4.987035    1.442988    1.423775
 H    3.495429    0.836616    2.162716
 H    4.271281   -1.486727    1.871109
 H    4.751080   -0.229431    3.964109
 H    6.024521   -1.395927    3.617273
 H    6.287973    0.314480    3.287598
 H    5.746755   -1.373389   -0.063238
 H    6.788624   -0.188276    0.738527
 H    6.720716   -1.847319    1.318329
 H    2.612541   -0.315985   -1.974876
 H    1.070715   -1.731156   -2.723322
 H    0.308388   -3.652275   -1.564722
 H    0.522667   -2.918203    0.033249
 H    2.381670   -3.615232    1.251293
 H    2.620262   -3.634406   -3.013523
 H    4.681896   -4.451019    1.383933
 H    4.934871   -4.460968   -2.873088
 H    6.532545   -5.092115    0.184177
 H   -1.385447   -2.243897   -2.350145
 H   -2.755521    0.128266   -2.441617
 H   -3.836191   -2.554664   -1.423280
 H   -3.678808   -2.100387   -3.125594
 H   -5.287727   -0.264522   -2.838274
 H   -5.424702   -0.604215   -1.103213
 H   -7.622518   -3.653462   -0.914712
 H   -6.928429   -2.244764   -0.083488
 H   -5.880022   -3.604827   -0.592488
 H   -2.401444   -2.002270    0.373631
 H   -3.056003    0.233658    2.185034
 H   -2.918641   -1.444342    3.987661
 H   -2.425767   -2.691432    2.840235
 H   -4.629565   -2.550386    1.713575
 H   -5.928501   -3.614152    3.524600
 H   -4.831102   -2.948952    4.731659
 H   -4.252771   -4.156165    3.583372
 H   -6.483111   -1.299331    2.864998
 H   -5.287002   -0.229937    2.145130
 H   -5.286596   -0.514963    3.889325
 H    0.613098   -1.394662    1.674626
