39 
4j0r_ligand_xtb.xyz
 C    0.088633    0.355961   -0.552282
 C   -3.389919   -2.353108   -0.613342
 C   -0.797717    1.421210   -0.518805
 C   -0.402219    2.629768    0.027566
 C   -3.111715   -0.051133    0.896386
 C    0.880848    2.771607    0.542823
 C    1.762775    1.699436    0.527237
 C   -2.202115    1.230104   -1.055596
 C   -2.770125   -0.036543   -0.450008
 C   -3.589026   -1.208592    1.482899
 C   -3.724085   -2.363338    0.729872
 C    1.366466    0.484342   -0.017876
 O   -2.984820    2.366463   -0.746305
 C   -2.917376   -1.193045   -1.202601
 O    1.306955    3.945262    1.083124
 C    2.263454   -0.665591   -0.017214
 C    1.948848   -1.976726    0.249640
 C    0.686696   -2.646288    0.650753
 O    3.057070   -2.727687    0.136654
 N    4.102127   -1.937929   -0.215662
 C    3.663250   -0.711838   -0.304661
 C    4.558440    0.408312   -0.684724
 H   -0.211157   -0.578305   -0.999939
 H   -3.497922   -3.250372   -1.205064
 H   -1.099676    3.453801    0.051342
 H   -2.995659    0.853077    1.475821
 H    2.739359    1.825043    0.964208
 H   -2.142769    1.110671   -2.152551
 H   -3.850769   -1.212257    2.530704
 H   -4.090313   -3.269523    1.188934
 H   -3.899447    2.176594   -0.979119
 H   -2.657813   -1.186791   -2.252334
 H    0.598529    4.598669    1.035014
 H    0.907601   -3.449677    1.349927
 H    0.012761   -1.928109    1.111000
 H    0.190938   -3.081277   -0.217258
 H    4.917760    0.920973    0.206757
 H    5.417325    0.018400   -1.223575
 H    4.022048    1.125043   -1.302406
