42 
4j0z_ligand_dft.xyz
 C   -0.092617   -2.761301   -0.162596
 C    1.229649   -3.182305   -0.191899
 C    2.259588   -2.257917   -0.212813
 C    2.024009   -0.884411   -0.218967
 C    0.691230   -0.477291   -0.178658
 C    3.137366    0.167312   -0.170862
 C    4.359068   -0.257131   -1.016329
 C    3.518080    0.417205    1.300492
 C    4.417795    1.632834    1.436508
 C    3.183321    2.667627   -0.344403
 N    2.613987    1.436381   -0.646621
 C   -0.363897   -1.390800   -0.153210
 F    3.519854   -2.733334   -0.241755
 O    3.807465    2.778091    0.858214
 F    4.188417   -0.679241    1.803658
 N    2.994921    3.656045   -1.114562
 N   -1.665130   -0.861481   -0.119077
 C   -2.844683   -1.526937   -0.021556
 C   -4.043522   -0.603156    0.007854
 O   -2.991521   -2.737438    0.040940
 N   -3.818631    0.711631   -0.080805
 C   -4.862873    1.530272   -0.055367
 C   -6.179456    1.068034    0.062673
 C   -6.404998   -0.308037    0.156466
 C   -5.312905   -1.160864    0.127190
 C   -7.268260    2.001941    0.087539
 N   -8.145785    2.758183    0.107928
 F    5.168022    0.845049   -1.240321
 H   -0.902308   -3.476872   -0.143541
 H    1.476212   -4.238194   -0.195943
 H    0.484813    0.588892   -0.159231
 H    4.024377   -0.633994   -1.988128
 H    4.951675   -1.017670   -0.510853
 H    2.598140    0.555890    1.877426
 H    4.573513    1.871276    2.489969
 H    5.384642    1.441035    0.964440
 H    2.284509    1.433318   -1.604296
 H    3.422067    4.489401   -0.716768
 H   -1.759598    0.147775   -0.156082
 H   -4.659015    2.594597   -0.131315
 H   -7.415320   -0.691538    0.250821
 H   -5.414796   -2.237158    0.195632
