42 
4j17_ligand_xtb.xyz
 C    6.210153   -0.448576   -0.034951
 C    5.113889   -1.280770   -0.158761
 C    3.840397   -0.726259   -0.060834
 N    3.630517    0.572725    0.148006
 C    4.667788    1.370435    0.267098
 N    1.481568   -0.895116   -0.064981
 C   -2.481189   -2.093428   -0.201005
 C    5.988986    0.913088    0.183244
 C    2.632356   -1.605966   -0.193349
 O    2.723470   -2.799014   -0.393373
 C    7.067452    1.816991    0.316790
 N    7.939303    2.552219    0.424426
 C    0.167416   -1.340024   -0.118405
 C   -0.165750   -2.678663   -0.315386
 C   -1.495258   -3.048882   -0.355034
 C   -2.183203   -0.748771   -0.005053
 C   -0.844774   -0.392703    0.033761
 F   -3.774617   -2.501389   -0.250467
 C   -3.274464    0.308715    0.160708
 C   -4.168730    0.392096   -1.085475
 C   -3.373451    1.109761   -2.166902
 O   -3.065372    2.433443   -1.779365
 C   -2.723857    2.664741   -0.484439
 N   -2.699055    1.611580    0.387076
 C   -4.124334   -0.062077    1.396697
 F   -3.338006   -0.120822    2.499055
 F   -5.044416    0.897691    1.642124
 N   -2.386403    3.804479   -0.062615
 H    7.217702   -0.831470   -0.103759
 H    5.212252   -2.341185   -0.328134
 H    4.451516    2.416943    0.435980
 H    1.628683    0.097637    0.098784
 H    0.611904   -3.414005   -0.433651
 H   -1.780912   -4.077697   -0.503754
 H   -0.585277    0.644520    0.185509
 H   -5.060716    0.976358   -0.847371
 H   -4.471569   -0.595198   -1.425511
 H   -2.444340    0.561652   -2.378315
 H   -3.950346    1.200983   -3.089929
 H   -2.512959    1.885887    1.339799
 H   -4.653163   -1.019024    1.298586
 H   -2.396274    4.520391   -0.778344
