42 
4j1c_ligand_xtb.xyz
 C    5.346532   -1.208801   -0.129507
 C    7.232933    1.963338    0.014377
 C    6.424797   -0.344820   -0.108795
 O    2.990866   -2.797853   -0.129811
 C    2.873387   -1.591983   -0.067247
 N    1.709775   -0.896278    0.009156
 C    0.095394   -2.728832    0.007456
 C   -1.226343   -3.120143    0.044690
 C   -2.234479   -2.176266    0.135826
 C   -2.989897    2.742072    0.480356
 C   -3.034269    0.258859    0.281021
 C   -1.953166   -0.814976    0.207311
 C   -3.571099    0.528691   -1.143082
 C   -4.441139    1.780581   -1.201500
 C   -4.193135   -0.142541    1.224551
 N   -2.454146    1.506785    0.725048
 O   -3.875261    2.890102   -0.550771
 N   -2.597797    3.722317    1.164334
 F   -3.666680   -0.561509    2.415657
 F   -4.291402   -0.525614   -1.604234
 F   -2.525484    0.651251   -2.005074
 C   -0.620408   -0.433493    0.146818
 C    0.405451   -1.371137    0.052087
 F   -3.503946   -2.628927    0.145927
 C    4.062061   -0.675863   -0.059109
 N    3.825186    0.632518    0.024469
 C    4.845182    1.460500    0.044293
 C    6.175307    1.026372   -0.017920
 N    8.086411    2.726990    0.043087
 H    5.466732   -2.278328   -0.196375
 H    7.439737   -0.710502   -0.160017
 H    1.836284    0.111783    0.046171
 H    0.884034   -3.458747   -0.063365
 H   -1.498423   -4.162420   -0.000003
 H   -5.419145    1.537376   -0.763803
 H   -4.582763    2.066431   -2.248907
 H   -4.817790    0.729399    1.449792
 H   -4.802702   -0.955445    0.824415
 H   -1.952098    1.470062    1.601126
 H   -2.993310    4.609182    0.879846
 H   -0.373786    0.616997    0.159461
 H    4.607313    2.513725    0.113425
