42 
4j1c_ligand_ani.xyz
 C    5.392262   -1.192109   -0.116940
 C    7.378819    1.954049   -0.021493
 C    6.488606   -0.345983   -0.111218
 O    3.035218   -2.735399   -0.116730
 C    2.915446   -1.520945   -0.049113
 N    1.741539   -0.831285    0.022790
 C    0.145207   -2.700932    0.010075
 C   -1.180967   -3.114556    0.044093
 C   -2.195792   -2.173296    0.124763
 C   -3.148258    2.724027    0.432712
 C   -3.067292    0.229901    0.262793
 C   -1.950010   -0.806864    0.178004
 C   -3.692897    0.447693   -1.123210
 C   -4.566179    1.683316   -1.174773
 C   -4.139143   -0.161621    1.291308
 N   -2.505719    1.514685    0.665227
 O   -3.847840    2.823176   -0.735115
 N   -3.016215    3.696189    1.232802
 F   -3.490534   -0.434765    2.488501
 F   -4.431256   -0.633578   -1.495427
 F   -2.699376    0.589616   -2.050039
 C   -0.616247   -0.415227    0.107633
 C    0.429715   -1.337880    0.044796
 F   -3.465565   -2.635440    0.155342
 C    4.125725   -0.624899   -0.040763
 N    3.908581    0.693214    0.040222
 C    4.957278    1.503019    0.046960
 C    6.273223    1.031595   -0.028428
 N    8.265988    2.698780   -0.016612
 H    5.488614   -2.270661   -0.178876
 H    7.499078   -0.740651   -0.170026
 H    1.850730    0.174810    0.076649
 H    0.953454   -3.417866   -0.046167
 H   -1.435492   -4.168740    0.014889
 H   -5.470883    1.531908   -0.574906
 H   -4.850247    1.880950   -2.209193
 H   -4.812121    0.686320    1.464839
 H   -4.700324   -1.041039    0.984758
 H   -2.146142    1.495985    1.613023
 H   -3.520755    4.501819    0.868059
 H   -0.390998    0.644540    0.098284
 H    4.760453    2.571076    0.113847
