45 
4j1e_ligand_dft.xyz
 C    3.224970   -1.084198   -0.632733
 C    3.834288   -0.031738    0.275912
 C    1.942964   -1.902969    1.236960
 C    2.749820    0.453458    1.245893
 C    1.926307    2.392677   -0.215221
 C    3.373642    1.321704    2.339252
 C   -3.078533    1.337171   -0.818131
 C   -4.297413    0.500363   -0.495725
 O    2.640353   -2.154240    0.092569
 N    2.246134   -0.735293    1.903727
 C    1.649953    1.228301    0.500534
 C    0.331627    0.783017    0.484586
 C   -0.670135    1.464968   -0.213740
 C   -0.355188    2.626346   -0.922122
 C    0.956828    3.084616   -0.915147
 F    3.192902    2.871681   -0.242159
 N    1.104151   -2.728034    1.712030
 N   -1.965935    0.927588   -0.154668
 O   -3.153167    2.270894   -1.601156
 N   -4.153760   -0.487172    0.393156
 C   -5.216006   -1.225225    0.689463
 C   -6.469994   -1.007784    0.105511
 C   -6.610388    0.024862   -0.825925
 C   -5.499763    0.795653   -1.131456
 C   -7.583657   -1.837813    0.464834
 N   -8.481986   -2.509062    0.756027
 C    4.260649   -1.719373   -1.551627
 F    4.800673   -0.768424   -2.333558
 F    3.708780   -2.641648   -2.343499
 F    5.251312   -2.299592   -0.864655
 F    2.397493    1.624251    3.272528
 H    2.463691   -0.632544   -1.280927
 H    4.223228    0.793193   -0.321686
 H    4.655314   -0.478083    0.845509
 H    4.167489    0.761201    2.842801
 H    3.768165    2.252217    1.926997
 H    1.655827   -0.583825    2.710518
 H    0.073242   -0.126518    1.019224
 H   -1.123961    3.153635   -1.469009
 H    1.235698    3.983448   -1.453863
 H    1.062222   -3.558969    1.126060
 H   -2.113522    0.123853    0.447209
 H   -5.077714   -2.020662    1.416281
 H   -7.570985    0.211156   -1.294075
 H   -5.536669    1.611827   -1.842873
