45 
4j1e_ligand_ani.xyz
 C    3.298130   -1.105358   -0.579527
 C    3.866182   -0.000014    0.301787
 C    1.882974   -1.807039    1.197916
 C    2.748802    0.493239    1.226711
 C    1.909925    2.369875   -0.281514
 C    3.308569    1.390677    2.324089
 C   -3.119982    1.369160   -0.793531
 C   -4.320991    0.514834   -0.484399
 O    2.734429   -2.162651    0.189014
 N    2.244855   -0.688476    1.913405
 C    1.639150    1.217554    0.451684
 C    0.317017    0.777704    0.441592
 C   -0.681822    1.450554   -0.266905
 C   -0.370644    2.595879   -0.994053
 C    0.940993    3.054914   -0.995921
 F    3.169699    2.872187   -0.311761
 N    0.856312   -2.487955    1.502500
 N   -1.979259    0.912844   -0.202715
 O   -3.217383    2.357545   -1.505689
 N   -4.122360   -0.556240    0.293587
 C   -5.161460   -1.326904    0.578975
 C   -6.449876   -1.060648    0.100800
 C   -6.646658    0.060857   -0.708138
 C   -5.559648    0.865260   -1.007605
 C   -7.546312   -1.930226    0.439835
 N   -8.425888   -2.632155    0.714301
 C    4.358510   -1.760572   -1.456164
 F    4.908873   -0.840664   -2.271956
 F    3.830363   -2.721467   -2.220594
 F    5.340976   -2.301022   -0.723437
 F    2.305442    1.606782    3.262570
 H    2.524099   -0.691508   -1.241466
 H    4.255967    0.810311   -0.315422
 H    4.676792   -0.406013    0.914853
 H    4.137040    0.879383    2.827674
 H    3.634288    2.357629    1.935088
 H    1.580282   -0.472830    2.645375
 H    0.048680   -0.115513    0.996698
 H   -1.145555    3.113168   -1.543945
 H    1.222575    3.945306   -1.548304
 H    0.801066   -3.298716    0.888184
 H   -2.104699    0.073603    0.351316
 H   -4.979323   -2.193410    1.211358
 H   -7.635855    0.292961   -1.092652
 H   -5.642656    1.749534   -1.630088
