45 
4j1h_ligand_ani.xyz
 C   -3.984804   -1.202568    0.855012
 C   -4.201757    0.042247    0.009723
 O   -3.950905   -2.358731    0.033642
 C   -3.285072   -2.287623   -1.154985
 N   -2.601087   -1.112391   -1.409490
 C   -3.119900    0.211946   -1.072840
 C   -1.972977    1.102429   -0.585204
 C   -0.652511    0.669832   -0.527242
 C    0.394582    1.518641   -0.158325
 C    0.132376    2.839383    0.192321
 C   -1.181785    3.291738    0.162023
 C   -2.196295    2.429762   -0.219444
 F   -3.455078    2.934237   -0.232259
 N   -3.255746   -3.257945   -1.968186
 C   -3.738668    0.820680   -2.339377
 N    1.691117    0.968854   -0.154546
 C    2.869982    1.581744    0.149628
 C    4.055757    0.659503    0.045771
 O    3.010857    2.750290    0.479008
 N    3.816568   -0.601903   -0.332551
 C    4.843335   -1.433745   -0.429301
 C    6.158124   -1.042681   -0.149911
 C    6.396441    0.275987    0.244120
 C    5.323194    1.145589    0.343303
 C    7.239376   -1.986273   -0.267657
 N    8.107245   -2.747475   -0.362791
 C   -2.756195   -1.188310    1.781797
 F   -1.653460   -1.682044    1.202899
 F   -2.477217    0.062995    2.188614
 F   -2.984128   -1.929856    2.879530
 H   -4.848879   -1.344129    1.506197
 H   -4.282448    0.931601    0.634998
 H   -5.169637   -0.095370   -0.488353
 H   -2.186571   -1.159546   -2.331665
 H   -0.423990   -0.359504   -0.772697
 H    0.943479    3.492594    0.484223
 H   -1.429605    4.312675    0.434051
 H   -3.795503   -4.033333   -1.589683
 H   -4.203933    1.785164   -2.128375
 H   -4.494287    0.135995   -2.743083
 H   -2.961704    0.971534   -3.097824
 H    1.783213   -0.006693   -0.413116
 H    4.628777   -2.454512   -0.738966
 H    7.406478    0.607802    0.467525
 H    5.438036    2.181589    0.642986
