45 
4j1h_ligand_dft.xyz
 C   -3.968222   -1.266529    0.734770
 C   -4.237673   -0.128937   -0.236463
 O   -3.648989   -2.467659    0.059454
 C   -2.862879   -2.431496   -1.057222
 N   -2.560626   -1.202513   -1.590603
 C   -3.104901    0.100553   -1.249749
 C   -2.007084    1.028321   -0.696849
 C   -0.676612    0.630960   -0.649173
 C    0.335338    1.479497   -0.193876
 C    0.022026    2.775178    0.220587
 C   -1.303633    3.189690    0.179096
 C   -2.284022    2.326828   -0.271895
 F   -3.560947    2.779315   -0.291074
 N   -2.434061   -3.493094   -1.605439
 C   -3.676304    0.731811   -2.532318
 N    1.640342    0.956922   -0.167759
 C    2.796915    1.593129    0.145363
 C    4.009414    0.689960    0.066119
 O    2.917698    2.765777    0.465160
 N    3.813677   -0.587667   -0.274922
 C    4.870055   -1.387906   -0.344253
 C    6.170800   -0.943096   -0.077898
 C    6.366678    0.394950    0.275549
 C    5.261501    1.227744    0.349467
 C    7.274210   -1.855265   -0.171010
 N    8.163847   -2.593584   -0.247711
 C   -2.915075   -1.018744    1.823646
 F   -1.664482   -1.189723    1.382900
 F   -3.025177    0.224940    2.317039
 F   -3.097097   -1.875830    2.838455
 H   -4.891171   -1.479187    1.280565
 H   -4.463949    0.788956    0.303873
 H   -5.138967   -0.414315   -0.789440
 H   -2.075158   -1.291569   -2.471621
 H   -0.434773   -0.384736   -0.946222
 H    0.800947    3.438345    0.569350
 H   -1.585802    4.186815    0.498532
 H   -2.725942   -4.305282   -1.067732
 H   -4.137221    1.698405   -2.319956
 H   -4.425071    0.065298   -2.971414
 H   -2.875936    0.889785   -3.263266
 H    1.754420   -0.022360   -0.405826
 H    4.688637   -2.422904   -0.619964
 H    7.364818    0.764639    0.484692
 H    5.339386    2.274502    0.617349
