45 
4j1k_ligand_dft.xyz
 C   -3.110961   -0.917762    0.619707
 C   -3.732662    0.068829   -0.355452
 O   -2.481476   -2.016397   -0.010555
 C   -1.857706   -1.874257   -1.214185
 N   -2.169473   -0.753299   -1.945544
 C   -2.671431    0.485770   -1.387877
 C   -1.569833    1.301154   -0.686430
 C   -0.255071    0.844170   -0.646581
 C    0.761899    1.568224   -0.016637
 C    0.468228    2.790979    0.591212
 C   -0.839279    3.260541    0.561229
 C   -1.826900    2.522755   -0.064108
 F   -3.087345    3.014594   -0.052664
 N   -1.062060   -2.752682   -1.668649
 C   -3.304463    1.291019   -2.527587
 N    2.046033    1.001143   -0.025449
 C    3.196010    1.510908    0.488715
 C    4.381224    0.587546    0.309732
 O    3.324046    2.587761    1.049294
 N    4.170286   -0.579393   -0.306598
 C    5.199086   -1.402961   -0.461218
 C    6.486250   -1.093717   -0.004432
 C    6.698164    0.130107    0.636458
 C    5.621834    0.988650    0.796362
 C    7.558636   -2.027056   -0.196946
 N    8.422969   -2.782588   -0.353199
 C   -4.116568   -1.512266    1.603519
 F   -4.785198   -0.512673    2.205808
 F   -3.479862   -2.208717    2.553615
 F   -4.997469   -2.319609    1.021570
 F   -4.793759   -0.523971   -1.004657
 H   -2.375503   -0.373159    1.224979
 H   -4.104565    0.939400    0.187327
 H   -1.665979   -0.708815   -2.819854
 H   -0.013944   -0.106953   -1.112620
 H    1.249816    3.356337    1.078722
 H   -1.102140    4.203403    1.027880
 H   -1.007778   -3.540957   -1.027629
 H   -3.746279    2.214007   -2.149923
 H   -2.536632    1.554797   -3.262074
 H   -4.075913    0.692489   -3.014555
 H    2.151612    0.086714   -0.452966
 H    5.005821   -2.346580   -0.963427
 H    7.686115    0.392637    0.999510
 H    5.714469    1.951094    1.284851
