45 
4j1k_ligand_ani.xyz
 C   -3.215844   -0.850731    0.666149
 C   -3.711174    0.112399   -0.400664
 O   -2.854010   -2.103072    0.119329
 C   -2.254337   -2.144574   -1.110668
 N   -2.069652   -0.954975   -1.771635
 C   -2.570323    0.351469   -1.399027
 C   -1.459149    1.190940   -0.751644
 C   -0.155376    0.720075   -0.625711
 C    0.864177    1.495734   -0.070940
 C    0.587059    2.779296    0.393307
 C   -0.710913    3.267071    0.288794
 C   -1.699158    2.478644   -0.275012
 F   -2.945845    3.009485   -0.350703
 N   -1.869530   -3.238862   -1.621158
 C   -3.089524    1.042208   -2.656912
 N    2.148583    0.923027   -0.009595
 C    3.305977    1.479840    0.447753
 C    4.491769    0.560426    0.316369
 O    3.429243    2.598669    0.923893
 N    4.273720   -0.643180   -0.227068
 C    5.301179   -1.469644   -0.356627
 C    6.595977   -1.131256    0.054103
 C    6.812368    0.126759    0.621061
 C    5.738379    0.990953    0.754452
 C    7.679198   -2.066171   -0.107049
 N    8.548688   -2.820286   -0.237680
 C   -4.259081   -1.142173    1.738945
 F   -4.652199    0.018001    2.302862
 F   -3.735644   -1.908467    2.702607
 F   -5.338337   -1.759982    1.256808
 F   -4.769921   -0.476694   -1.079675
 H   -2.347443   -0.408498    1.174394
 H   -4.057313    1.051704    0.036256
 H   -1.719492   -1.074663   -2.708873
 H    0.069677   -0.284043   -0.966483
 H    1.376602    3.378911    0.826048
 H   -0.964858    4.261499    0.641777
 H   -2.081965   -4.000290   -0.979497
 H   -3.498547    2.027684   -2.424503
 H   -2.264375    1.168234   -3.366381
 H   -3.868183    0.428937   -3.117773
 H    2.253697   -0.018689   -0.369768
 H    5.103972   -2.442547   -0.802179
 H    7.806645    0.416642    0.949283
 H    5.837341    1.981592    1.184709
