117 
4j2t_ligand_dft.xyz
 C    4.386670    5.609691   -1.668748
 C    5.127422    4.425939   -1.049520
 C    4.255648    3.611643   -0.094094
 C    4.974024    2.407184    0.513293
 C    4.065977    1.580091    1.419283
 C    4.759991    0.348087    2.001514
 C    3.804993   -0.616468    2.735860
 C    2.981313   -1.421290    1.760254
 O    3.223548   -2.558897    1.421221
 O    1.961554   -0.697010    1.275855
 C    1.157533   -1.270848    0.242028
 C   -0.256358   -0.706612    0.308091
 C   -1.174899   -1.253337    1.424595
 O   -0.254570   -1.423217    2.542506
 C   -0.624055   -1.884324    3.745438
 O   -1.753038   -2.151073    4.085801
 C    0.595819   -2.015447    4.625467
 C   -1.787417   -2.610540    1.085886
 C   -2.201569   -0.182778    1.839164
 C   -3.212764    0.305140    0.795419
 O   -4.080552   -0.765674    0.481250
 C   -5.365831   -0.702440    1.064426
 O   -6.064767    0.422800    0.623708
 C   -6.050398   -2.023912    0.736649
 C   -6.258422   -2.266826   -0.758615
 C   -6.883024   -3.632745   -1.035763
 C   -2.647062    0.876629   -0.527638
 O   -1.547878    1.774422   -0.330177
 C   -1.542357    2.885013    0.542159
 O   -1.680793    4.082715   -0.176376
 C   -0.215214    2.874937    1.300260
 C   -0.073965    4.024935    2.295530
 C    1.278677    4.001678    3.004178
 C   -3.698850    1.541740   -1.481306
 C   -4.348059    2.843538   -1.042484
 O   -4.728242    0.599478   -1.771798
 C   -2.830353    1.639769   -2.752740
 O   -3.679254    1.586315   -3.874893
 O   -1.972140    0.529352   -2.735504
 C   -2.091084   -0.187636   -1.492582
 C   -0.760371   -0.891055   -1.138537
 C    0.455083   -0.494604   -2.006656
 C    0.481496   -1.160085   -3.379234
 C    1.685346   -0.820891   -1.127299
 O    2.498303   -1.859022   -1.682906
 C    3.830483   -1.744745   -1.519576
 O    4.372991   -0.750976   -1.090737
 C    4.542943   -3.000372   -1.971842
 C    4.679333   -2.965154   -3.502828
 C    5.882256   -3.134042   -1.237994
 C    6.592813   -4.457893   -1.511412
 H    4.027293    6.297818   -0.894518
 H    3.515391    5.270578   -2.241647
 H    5.031888    6.178034   -2.346531
 H    5.498881    3.766723   -1.845023
 H    6.013708    4.786919   -0.511190
 H    3.892567    4.268759    0.710117
 H    3.361283    3.261006   -0.631231
 H    5.343196    1.760641   -0.293171
 H    5.855714    2.749963    1.073588
 H    3.686739    2.204580    2.241178
 H    3.189704    1.265480    0.844184
 H    5.532911    0.666828    2.711610
 H    5.268278   -0.199103    1.199473
 H    3.139504   -0.049822    3.396884
 H    4.376333   -1.328985    3.335329
 H    1.193029   -2.360607    0.319923
 H   -0.128816    0.360479    0.476528
 H    1.328028   -2.674658    4.149416
 H    1.067290   -1.036145    4.751861
 H    0.305389   -2.415593    5.596695
 H   -2.488200   -2.522899    0.255067
 H   -2.339990   -2.994554    1.944167
 H   -0.999334   -3.324739    0.823345
 H   -1.643021    0.669369    2.237016
 H   -2.793434   -0.581452    2.666833
 H   -3.796246    1.105991    1.268114
 H   -5.274809   -0.586836    2.154486
 H   -5.915243    0.470120   -0.340121
 H   -7.017343   -2.032304    1.253464
 H   -5.444832   -2.832066    1.166033
 H   -5.297076   -2.180008   -1.276074
 H   -6.905207   -1.480303   -1.166363
 H   -6.238650   -4.440476   -0.669710
 H   -7.854377   -3.732128   -0.537659
 H   -7.039577   -3.789480   -2.108111
 H   -2.397427    2.860715    1.225506
 H   -0.912251    4.154045   -0.758864
 H   -0.091658    1.922689    1.825883
 H    0.594597    2.909840    0.555500
 H   -0.880735    3.958961    3.037539
 H   -0.211227    4.979018    1.775934
 H    1.357672    4.809909    3.737771
 H    2.097311    4.115664    2.284700
 H    1.432801    3.051722    3.529301
 H   -4.935010    2.672701   -0.134836
 H   -5.038547    3.163642   -1.829739
 H   -3.622334    3.637555   -0.871028
 H   -4.895317    0.700064   -2.725584
 H   -2.236582    2.560578   -2.778880
 H   -3.180614    1.161150   -4.583904
 H   -2.873717   -0.941153   -1.603941
 H   -0.917320   -1.965765   -1.297789
 H    0.424263    0.590285   -2.143348
 H    1.372739   -0.863754   -3.941757
 H   -0.402703   -0.865784   -3.948408
 H    0.495798   -2.250726   -3.287104
 H    2.315016    0.059943   -0.995842
 H    3.895492   -3.841961   -1.699565
 H    3.703486   -2.829496   -3.979102
 H    5.333917   -2.142008   -3.810531
 H    5.107941   -3.899767   -3.874916
 H    5.691453   -3.037341   -0.163308
 H    6.526343   -2.291971   -1.516297
 H    5.952158   -5.309488   -1.253992
 H    6.882154   -4.560874   -2.562615
 H    7.505412   -4.535057   -0.912101
