49 
4j3i_ligand_ani.xyz
 O   14.422324   21.312783   -7.631411
 C   15.301700   22.281894   -7.104930
 C   13.278357   21.079042   -6.939711
 C   12.428226   20.104082   -7.500909
 C   11.235185   19.785369   -6.870841
 N    9.427088   20.926050   -3.826169
 C   10.729257   18.220942   -8.568179
 O   10.385904   18.868932   -7.362609
 C   10.863063   20.431105   -5.662330
 O    8.943255   24.730314    1.265972
 N   11.444613   22.112013   -3.971811
 C    9.627879   20.099862   -4.937199
 C   10.321240   21.871455   -3.385017
 O    6.589450   24.804413    2.908724
 O    8.812642   19.238681   -5.185857
 C    9.932598   22.616145   -2.158405
 C    8.596367   22.888870   -1.854958
 C    8.244509   23.583896   -0.703435
 C    6.802415   23.852108   -0.347868
 C    9.276463   24.009129    0.141945
 C    8.731093   23.917767    2.415152
 C    7.910711   24.700721    3.411959
 C   10.627080   23.756699   -0.129990
 C   11.706468   24.216921    0.818831
 C   10.933111   23.068275   -1.299619
 C   11.722057   21.413194   -5.133251
 C   12.938715   21.727998   -5.774701
 H   16.149583   22.324594   -7.789792
 H   14.824575   23.268891   -7.054070
 H   15.655020   21.999666   -6.104982
 H   12.746943   19.631359   -8.421873
 H    8.621883   20.680306   -3.260442
 H    9.909808   17.533204   -8.779586
 H   10.824093   18.935557   -9.395307
 H   11.661818   17.651906   -8.466755
 H    6.111358   25.439794    3.453468
 H    7.810411   22.595251   -2.547345
 H    6.424470   23.138156    0.395787
 H    6.693828   24.848590    0.085553
 H    6.160531   23.772540   -1.230642
 H    8.190860   23.004631    2.138549
 H    9.697643   23.629117    2.848266
 H    7.922253   24.179006    4.382415
 H    8.373465   25.689568    3.540501
 H   11.437690   25.178916    1.264717
 H   11.858819   23.503561    1.639968
 H   12.664361   24.320963    0.300334
 H   11.970912   22.877174   -1.563681
 H   13.555903   22.485590   -5.308468
