34 
4j3m_ligand_xtb.xyz
 C    4.586425   -1.297816   -0.775710
 C    2.388827   -0.322484   -0.347194
 C    0.170789    0.545409    0.034982
 C   -3.425842    1.305991   -0.746916
 C   -5.567923    0.022955   -0.258926
 C    0.734339    1.718160    0.551286
 C    2.098766    1.861634    0.629420
 C    5.041795    2.166485    0.812380
 C    4.399244    0.941000    0.243646
 C    5.149415   -0.084373   -0.217367
 O    5.219778   -2.243247   -1.203538
 N    3.203490   -1.320893   -0.795694
 C    1.002008   -0.462783   -0.416240
 C   -1.292886    0.407251   -0.035387
 C   -2.051637    1.402884   -0.646748
 C   -4.084139    0.200489   -0.213003
 O   -6.160348   -0.680240    0.510307
 O   -6.221584    0.691073   -1.224615
 C   -3.344491   -0.785899    0.432788
 C   -1.968064   -0.687258    0.511852
Cl   -1.099963   -1.920995    1.354843
 C    2.960562    0.851056    0.186303
 H   -3.970812    2.116659   -1.211899
 H    0.084971    2.501781    0.911234
 H    2.510520    2.769187    1.040878
 H    6.123577    2.067691    0.800181
 H    4.766344    3.045279    0.230906
 H    4.718057    2.323598    1.840178
 H    6.227660   -0.046127   -0.188416
 H    2.779422   -2.161686   -1.169810
 H    0.584215   -1.363553   -0.840680
 H   -1.541882    2.259536   -1.061870
 H   -5.627666    1.177688   -1.811059
 H   -3.865353   -1.623775    0.869660
