59 
4j44_ligand_ani.xyz
 N   -0.051090   -2.575950   -1.696167
 C    1.453195   -2.555633   -1.741027
 C    1.954105   -1.896377   -0.445712
 O    2.209565   -2.599907    0.531271
 C    1.949186   -1.910410   -3.029812
 N    2.070430   -0.541344   -0.424316
 C    2.367921    0.155598    0.833877
 C    1.058931    0.262338    1.652074
 O    0.411068    1.302436    1.749397
 C    3.072316    1.503183    0.618215
 C    2.348208    2.413923   -0.386538
 C    4.531738    1.267526    0.222262
 C    2.877031    3.847870   -0.396316
 N    0.667719   -0.914972    2.211851
 C   -0.737273   -1.218577    2.499491
 C   -1.515165   -1.177836    1.170017
 O   -1.646643   -2.193763    0.492616
 C   -1.321919   -0.359815    3.614821
 N   -1.964233    0.049381    0.799433
 C   -2.578457    0.283511   -0.501095
 C   -1.490533    0.857009   -1.410463
 O   -0.581251    0.182885   -1.855471
 C   -3.858422    1.129141   -0.420967
 C   -4.513767    1.243435   -1.799399
 C   -4.836933    0.526740    0.586804
 O   -1.582275    2.168750   -1.656216
 H   -0.414138   -1.629323   -1.929504
 H   -0.433252   -3.262137   -2.370470
 H   -0.406945   -2.807941   -0.747402
 H    1.810794   -3.582326   -1.663227
 H    1.460256   -0.949193   -3.211137
 H    1.743031   -2.562620   -3.884788
 H    3.028633   -1.747715   -2.983917
 H    1.537057   -0.021063   -1.111474
 H    3.040727   -0.509132    1.384492
 H    3.047700    2.009030    1.592802
 H    2.434806    1.997236   -1.401568
 H    1.284401    2.424161   -0.127977
 H    5.047538    0.647917    0.964491
 H    4.595282    0.757630   -0.746379
 H    5.082352    2.209930    0.144696
 H    2.278512    4.477021   -1.063108
 H    2.834208    4.289743    0.605563
 H    3.914594    3.899386   -0.743260
 H    1.240323   -1.716570    1.957589
 H   -0.752353   -2.269715    2.802221
 H   -2.386539   -0.583338    3.742368
 H   -0.802108   -0.587487    4.549882
 H   -1.201801    0.704097    3.410209
 H   -1.514940    0.838595    1.255322
 H   -2.813136   -0.710923   -0.898035
 H   -3.574486    2.134864   -0.086034
 H   -5.440792    1.822400   -1.730890
 H   -3.856222    1.737315   -2.518659
 H   -4.768326    0.249834   -2.189643
 H   -4.411137    0.492298    1.593661
 H   -5.109535   -0.496953    0.297508
 H   -5.758928    1.117048    0.623800
 H   -0.840035    2.395163   -2.242903
