48 
4j45_ligand_xtb.xyz
 N   -1.025142    2.433822    1.127823
 C    0.442819    2.607807    1.011124
 C    0.830045    1.723732   -0.201553
 O    0.110343    1.750875   -1.181682
 C    1.099961    2.253334    2.332964
 N    1.928296    0.979132   -0.085474
 C    2.223918   -0.106026   -1.007218
 C    1.086249   -1.138169   -0.861638
 O    0.316648   -1.397016   -1.757509
 C    3.611011   -0.673413   -0.672479
 O    3.651551   -0.844463    0.740250
 C    4.720244    0.258437   -1.151384
 N    0.966925   -1.641422    0.382400
 C   -0.252221   -2.335147    0.762627
 C   -1.365292   -1.287445    0.604528
 O   -1.294065   -0.233169    1.234734
 C   -0.166031   -2.825513    2.199070
 N   -2.339207   -1.590952   -0.251848
 C   -3.389751   -0.658970   -0.660880
 C   -2.678049    0.587342   -1.201978
 O   -1.965218    0.304753   -2.256843
 C   -4.343327   -0.335882    0.481842
 O   -2.736603    1.676853   -0.676947
 H   -1.232415    1.431940    1.380076
 H   -1.453765    3.069693    1.801232
 H   -1.501298    2.522227    0.193364
 H    0.652142    3.649404    0.741791
 H    0.922715    1.209615    2.582752
 H    2.168769    2.444748    2.303848
 H    0.687857    2.870163    3.129188
 H    2.444544    0.932410    0.781655
 H    2.194628    0.263431   -2.036069
 H    3.710371   -1.649802   -1.167399
 H    4.525698   -1.167865    0.984647
 H    4.681651    0.360368   -2.231251
 H    5.694116   -0.144406   -0.881610
 H    4.613044    1.242400   -0.700763
 H    1.682950   -1.469427    1.073404
 H   -0.416668   -3.170420    0.072984
 H    0.693503   -3.479160    2.321133
 H   -1.063249   -3.381502    2.456393
 H   -0.075638   -1.981671    2.879598
 H   -2.228811   -2.421813   -0.812439
 H   -3.927518   -1.123243   -1.490680
 H   -1.334101    1.011432   -2.493825
 H   -5.066837    0.404132    0.153771
 H   -3.796539    0.063862    1.330483
 H   -4.869964   -1.233787    0.791236
