63 
4j46_ligand_ani.xyz
 N    0.226415   -2.550973    1.641438
 C   -1.195952   -2.965299    1.385509
 C   -1.657597   -2.114136    0.192369
 O   -1.305177   -2.418717   -0.948807
 C   -2.038843   -2.856135    2.646381
 N   -2.393991   -1.015996    0.467805
 C   -2.474652    0.150561   -0.411469
 C   -2.348413    1.336275    0.557494
 O   -3.210469    1.485180    1.416800
 C   -3.811249    0.201821   -1.184157
 C   -3.940033    1.497694   -1.988056
 C   -3.953045   -1.019052   -2.092814
 N   -1.270053    2.163845    0.503472
 C   -0.133219    2.099743   -0.395271
 C    0.793987    0.899414   -0.112101
 O    0.598749    0.069530    0.767584
 C    0.565235    3.448846   -0.141800
 C    0.305685    3.692049    1.344717
 C   -1.128396    3.196670    1.535549
 N    1.876102    0.836124   -0.942126
 C    2.754112   -0.331943   -0.991739
 C    1.882761   -1.590548   -1.127197
 O    2.008977   -2.589240   -0.444355
 C    3.722347   -0.449207    0.204754
 C    4.323392    0.900334    0.625325
 C    4.812696   -1.480331   -0.093902
 C    5.155139    1.601403   -0.447470
 O    0.946843   -1.459590   -2.058746
 H    0.605507   -2.977024    2.504972
 H    0.296346   -1.514001    1.701892
 H    0.809464   -2.856022    0.837959
 H   -1.192562   -3.993585    1.020569
 H   -1.940832   -1.869537    3.113586
 H   -3.094310   -3.044588    2.432599
 H   -1.713081   -3.603402    3.376490
 H   -2.680380   -0.827647    1.419844
 H   -1.643146    0.087696   -1.122808
 H   -4.610161    0.179557   -0.430379
 H   -4.896908    1.518720   -2.520812
 H   -3.898856    2.382509   -1.344459
 H   -3.142904    1.580817   -2.739034
 H   -4.896472   -0.974742   -2.647411
 H   -3.933286   -1.953346   -1.525253
 H   -3.133319   -1.055926   -2.821848
 H   -0.465629    2.022733   -1.439723
 H    0.076456    4.217167   -0.748656
 H    1.627583    3.434088   -0.399192
 H    0.435701    4.738193    1.634391
 H    0.991787    3.082904    1.945517
 H   -1.874559    3.984882    1.376177
 H   -1.318597    2.759204    2.519980
 H    1.834624    1.399606   -1.776800
 H    3.326577   -0.246728   -1.923153
 H    3.115418   -0.813558    1.041529
 H    4.953501    0.722650    1.506504
 H    3.519354    1.567031    0.959065
 H    4.381683   -2.460177   -0.303804
 H    5.414707   -1.180807   -0.960705
 H    5.488861   -1.579044    0.762901
 H    6.022447    1.001337   -0.743815
 H    4.565215    1.805505   -1.347335
 H    5.530984    2.561151   -0.077604
 H    0.254362   -2.132879   -1.871845
