56 
4j51_ligand_dft.xyz
 C    1.509654   -4.324249    0.287578
 C    2.858295   -4.513416    0.010197
 C    3.750449   -3.429049   -0.170897
 C    3.263613   -2.127142   -0.067422
 C    1.920196   -1.913207    0.211073
 C    1.078887   -3.010942    0.379586
 C    1.073326   -0.749309    0.385098
 C   -0.183476   -1.231023    0.645984
 O   -0.185261   -2.606330    0.641021
 C   -1.469395   -0.598083    0.904955
 C   -1.561133    0.767100    1.218631
 C   -2.790800    1.356003    1.448125
 C   -3.961359    0.596295    1.375516
 C   -3.888333   -0.765573    1.076129
 C   -2.647877   -1.348006    0.845334
 O   -5.119527    1.279822    1.598951
 C   -6.333920    0.552789    1.573887
 C   -6.728756    0.057162    0.178787
 N   -6.225308    0.798214   -0.838975
 O   -7.442881   -0.920499    0.044243
 C   -6.374162    0.428426   -2.212501
 C   -5.152673    0.510561   -3.085181
 C   -5.706897   -0.830002   -2.687518
 C    1.494964    0.594511    0.265003
 C    1.896328    1.731004    0.148060
 C    2.331566    3.084999    0.012776
 C    1.392632    4.122997   -0.065887
 C    1.820234    5.437626   -0.193245
 C    3.177737    5.740484   -0.245759
 C    4.101690    4.703252   -0.168756
Cl    5.808244    5.071012   -0.234334
 C    3.700226    3.381295   -0.039941
 C    5.224596   -3.551684   -0.474352
 O    5.917011   -2.573410   -0.614442
 O    5.754244   -4.775317   -0.586115
 O    3.367789   -5.779813   -0.097138
 H    0.827004   -5.156758    0.425950
 H    3.958199   -1.306600   -0.209303
 H   -0.661528    1.367221    1.293461
 H   -2.867979    2.408953    1.697955
 H   -4.778752   -1.380072    1.004412
 H   -2.598306   -2.404918    0.607982
 H   -7.094983    1.247671    1.937676
 H   -6.306620   -0.310451    2.246534
 H   -5.652779    1.596061   -0.604718
 H   -7.334394    0.681634   -2.654495
 H   -4.225070    0.825204   -2.614769
 H   -5.281808    0.851377   -4.107234
 H   -6.227224   -1.424971   -3.430234
 H   -5.157826   -1.400695   -1.946149
 H    0.334177    3.887098   -0.030517
 H    1.091485    6.239644   -0.254227
 H    3.518116    6.765029   -0.345942
 H    4.433995    2.585640    0.019487
 H    5.077843   -5.459196   -0.448255
 H    2.678783   -6.439124    0.045183
