56 
4j51_ligand_xtb.xyz
 C    1.518324   -4.290891    0.288242
 C    2.872813   -4.479418    0.051557
 C    3.736928   -3.374921   -0.128911
 C    3.259400   -2.075440   -0.015193
 C    1.909152   -1.879339    0.218310
 C    1.053296   -2.991128    0.355427
 C    1.062618   -0.727354    0.375074
 C   -0.210754   -1.218871    0.591692
 O   -0.211024   -2.588419    0.574633
 C   -1.469667   -0.550930    0.821757
 C   -1.555097    0.842995    0.911987
 C   -2.767293    1.453147    1.132462
 C   -3.932955    0.695210    1.270081
 C   -3.858942   -0.691537    1.181417
 C   -2.640039   -1.300462    0.962459
 O   -5.081327    1.406980    1.469228
 C   -6.285604    0.698775    1.660301
 C   -6.765363   -0.058104    0.412976
 N   -6.327495    0.486494   -0.735999
 O   -7.480037   -1.034322    0.487922
 C   -6.590956   -0.071432   -2.020990
 C   -6.653383    0.831733   -3.212270
 C   -5.492496   -0.106741   -3.040383
 C    1.506823    0.594264    0.301199
 C    1.995642    1.697362    0.212167
 C    2.488605    3.013683    0.121149
 C    1.627929    4.102768    0.281572
 C    2.120838    5.389156    0.188339
 C    3.464437    5.613916   -0.064735
 C    4.314001    4.528606   -0.223029
Cl    5.993269    4.802452   -0.539940
 C    3.844318    3.232275   -0.132849
 C    5.184172   -3.540358   -0.430092
 O    6.045891   -2.834699    0.008974
 O    5.498132   -4.565229   -1.266900
 O    3.313142   -5.768511    0.019514
 H    0.873740   -5.142329    0.424054
 H    3.940551   -1.246865   -0.125380
 H   -0.661304    1.436822    0.810378
 H   -2.843597    2.526626    1.208186
 H   -4.741486   -1.304390    1.273046
 H   -2.588909   -2.375799    0.894392
 H   -7.031721    1.459066    1.911004
 H   -6.216657   -0.005862    2.496790
 H   -5.731040    1.300469   -0.693362
 H   -7.274209   -0.906211   -1.941061
 H   -6.478360    1.885938   -3.058716
 H   -7.381970    0.619464   -3.978368
 H   -5.420426   -0.966116   -3.687575
 H   -4.536190    0.314007   -2.767045
 H    0.580646    3.928465    0.478564
 H    1.455713    6.230373    0.313423
 H    3.851709    6.617437   -0.138708
 H    4.513680    2.395162   -0.255614
 H    4.723252   -4.944449   -1.705097
 H    4.274782   -5.817122    0.106790
