40 
4j58_ligand_ani.xyz
 C    5.024671    1.393410   -0.773283
 C    5.967839    1.791465    0.361005
 C    6.147978    0.487917    1.146172
 C    4.764519   -0.167369    1.082991
 N    4.215160    0.333494   -0.174162
 C    3.047558   -0.037600   -0.751133
 O    2.647307    0.485165   -1.783735
 C    2.253955   -1.146355   -0.061700
 N    0.979260   -1.274931   -0.716916
 C   -0.128491   -1.575317    0.039353
 O   -0.055049   -1.914878    1.212567
 N   -1.324675   -1.469664   -0.632772
 C   -2.571136   -1.820307    0.017626
 C   -3.567114   -0.681751    0.049514
 C   -3.164194    0.642364    0.223439
 C   -4.090933    1.673766    0.282826
 C   -5.461465    1.411811    0.167266
 N   -6.388769    2.452894    0.167919
 C   -5.871358    0.085681   -0.010796
 C   -4.932822   -0.935446   -0.067382
 H    5.563001    1.006710   -1.647916
 H    4.376439    2.202066   -1.119620
 H    5.492339    2.552634    0.990758
 H    6.912496    2.203216   -0.004345
 H    6.481501    0.649050    2.174334
 H    6.885228   -0.153094    0.649923
 H    4.140093    0.136749    1.935719
 H    4.822528   -1.261244    1.086083
 H    2.109298   -0.928954    1.003913
 H    2.812521   -2.093899   -0.103848
 H    0.888617   -0.704768   -1.549184
 H   -1.327192   -1.325184   -1.629986
 H   -2.288948   -2.134180    1.028367
 H   -3.015020   -2.693547   -0.480031
 H   -2.104927    0.871747    0.311398
 H   -3.753858    2.700346    0.412757
 H   -6.084862    3.293466    0.639080
 H   -7.325015    2.190399    0.442624
 H   -6.931505   -0.139090   -0.110222
 H   -5.271665   -1.960886   -0.204339
