40 
4j58_ligand_dft.xyz
 C    5.505659   -0.255138   -0.985684
 C    6.504375    0.846677   -0.623638
 C    6.062433    1.274548    0.780968
 C    4.533879    1.214632    0.699097
 N    4.296934    0.137751   -0.261126
 C    3.112929   -0.458112   -0.519516
 O    2.996551   -1.358304   -1.345854
 C    1.913983    0.051879    0.274003
 N    0.735666   -0.617877   -0.206474
 C   -0.315381   -0.814891    0.656588
 O   -0.366963   -0.289307    1.763108
 N   -1.291124   -1.657380    0.165946
 C   -2.568880   -1.761160    0.859003
 C   -3.598177   -0.752485    0.399904
 C   -3.448942    0.604845    0.703710
 C   -4.371216    1.542079    0.264668
 C   -5.482752    1.150678   -0.495492
 N   -6.384146    2.101247   -0.980117
 C   -5.636716   -0.205221   -0.800791
 C   -4.703064   -1.135711   -0.357206
 H    5.842754   -1.242399   -0.646465
 H    5.296639   -0.326831   -2.055723
 H    6.405520    1.686718   -1.320319
 H    7.539467    0.498837   -0.659295
 H    6.423058    2.265450    1.067141
 H    6.421795    0.554184    1.524070
 H    4.118756    2.163153    0.331192
 H    4.071261    0.996194    1.666517
 H    1.829340    1.141290    0.161969
 H    2.056180   -0.139697    1.345927
 H    0.946717   -1.320550   -0.907736
 H   -1.338087   -1.738164   -0.840525
 H   -2.348357   -1.633216    1.920929
 H   -2.950689   -2.778204    0.717292
 H   -2.593416    0.920919    1.294773
 H   -4.234291    2.592682    0.510398
 H   -6.429507    2.951733   -0.436104
 H   -7.308640    1.742696   -1.175225
 H   -6.489026   -0.530181   -1.392884
 H   -4.846273   -2.185632   -0.605259
