56 
4j59_ligand_xtb.xyz
 C    6.605797   -1.630863    0.132771
 C    7.664821   -0.766191   -0.058759
 C    7.437791    0.567108   -0.398571
 N    8.490569    1.454928   -0.513458
 C    6.120252    1.001220   -0.547354
 C    5.068899    0.127784   -0.361871
 C    5.294597   -1.200237   -0.018540
 C    4.141145   -2.148601    0.177808
 N    3.041360   -1.539365    0.889446
 C    1.815840   -1.382764    0.322247
 O    1.521963   -1.834801   -0.768446
 N    0.902427   -0.746747    1.135512
 C   -0.330178   -0.289308    0.542481
 C   -0.386632    1.233905    0.583229
 O    0.461079    1.882979    1.174641
 N   -1.420191    1.811511   -0.048837
 C   -1.566114    3.259604   -0.068921
 C   -2.967459    3.480899   -0.624675
 C   -3.154033    2.279350   -1.547525
 C   -2.487687    1.136109   -0.761215
 C   -3.483404    0.463836    0.163766
 C   -4.396018   -0.496325   -0.353272
 C   -4.425722   -0.888193   -1.710311
 C   -5.321029   -1.818921   -2.159265
 C   -6.238991   -2.410081   -1.279949
 C   -6.242054   -2.053379    0.038068
 C   -5.332361   -1.095692    0.533573
 C   -5.342505   -0.722868    1.893565
 C   -4.462241    0.208574    2.361790
 C   -3.535265    0.799809    1.492633
 H    6.802211   -2.660591    0.396645
 H    8.680387   -1.117309    0.058700
 H    8.303843    2.298464   -1.031297
 H    9.395107    1.049441   -0.692136
 H    5.929070    2.031658   -0.811665
 H    4.054921    0.478316   -0.489549
 H    4.480326   -3.043560    0.713602
 H    3.730758   -2.460018   -0.789324
 H    3.250432   -1.078481    1.759819
 H    1.267631   -0.092774    1.818211
 H   -1.191132   -0.701662    1.082658
 H   -0.352839   -0.659721   -0.487578
 H   -1.420782    3.665107    0.934707
 H   -0.799892    3.693258   -0.721178
 H   -3.704695    3.448748    0.178131
 H   -3.059066    4.430327   -1.147300
 H   -4.200428    2.071697   -1.761552
 H   -2.624754    2.442203   -2.487327
 H   -2.056035    0.388211   -1.433916
 H   -3.734523   -0.447611   -2.411347
 H   -5.324636   -2.105329   -3.200635
 H   -6.937755   -3.144411   -1.652227
 H   -6.944521   -2.499464    0.727596
 H   -6.060262   -1.187443    2.553865
 H   -4.468144    0.498505    3.402039
 H   -2.843413    1.526069    1.892611
