64 
4j5c_ligand_xtb.xyz
 C   -0.463522    0.049042    3.320612
 S   -1.014589   -1.573691    2.705360
 C   -2.464259   -1.124061    1.769042
 C   -3.504460   -0.457030    2.401268
 C   -4.654657   -0.137978    1.706114
 C   -4.776027   -0.496745    0.373357
 C   -3.741892   -1.164890   -0.255988
 C   -2.576461   -1.490396    0.427019
 C   -1.452253   -2.221172   -0.263788
 C   -1.711668   -3.736601   -0.353143
 C   -2.284201   -3.935371   -1.754494
 C   -1.517897   -2.909168   -2.578783
 N   -1.286723   -1.812922   -1.649597
 C   -0.827151   -0.634952   -2.099524
 O   -0.579348   -0.443686   -3.279023
 C   -0.652833    0.495031   -1.082233
 C   -1.809259    1.496467   -1.263826
 C   -1.861923    2.475605   -0.103187
 S   -2.976218    3.879625   -0.413038
 C   -4.584418    3.040563   -0.339971
 N    0.623929    1.116995   -1.330213
 C    1.451342    1.500577   -0.320469
 O    1.142681    1.382437    0.854384
 N    2.616631    2.075719   -0.733106
 C    3.690641    2.335578    0.210095
 C    4.693271    1.211983    0.237238
 C    5.951849    1.348256   -0.331598
 C    6.849707    0.299012   -0.325914
 C    6.503122   -0.925953    0.243512
 N    7.369708   -1.999290    0.187876
 C    5.233729   -1.065264    0.807677
 C    4.346076   -0.010499    0.802552
 H   -1.299408    0.588437    3.752642
 H   -0.009148    0.607739    2.506327
 H    0.278052   -0.161399    4.084511
 H   -3.416758   -0.198828    3.446112
 H   -5.460647    0.376766    2.208120
 H   -5.676193   -0.256982   -0.172921
 H   -3.832577   -1.432363   -1.298352
 H   -0.528783   -2.040116    0.299506
 H   -2.385812   -4.071899    0.432511
 H   -0.769111   -4.274468   -0.253086
 H   -2.138211   -4.948633   -2.122155
 H   -3.351792   -3.715414   -1.762386
 H   -0.557649   -3.308978   -2.923946
 H   -2.062519   -2.542011   -3.450773
 H   -0.638879    0.137181   -0.051988
 H   -1.658081    2.034689   -2.201911
 H   -2.749354    0.946009   -1.330796
 H   -0.884825    2.924651    0.067479
 H   -2.188673    1.982109    0.813241
 H   -4.653642    2.480019    0.587763
 H   -4.700579    2.382149   -1.195652
 H   -5.341119    3.817341   -0.366852
 H    0.877561    1.218346   -2.300868
 H    2.889348    1.959178   -1.696542
 H    3.212452    2.444135    1.186842
 H    4.172473    3.278189   -0.064866
 H    6.239660    2.291005   -0.775989
 H    7.829587    0.420211   -0.765823
 H    7.200534   -2.742226    0.846510
 H    8.342454   -1.780391    0.046110
 H    4.953959   -2.009499    1.253101
 H    3.367968   -0.125601    1.245950
