64 
4j5c_ligand_ani.xyz
 C   -1.582393    1.476690    2.813067
 S   -2.422315   -0.123526    2.969137
 C   -3.538743   -0.079707    1.577433
 C   -4.579900    0.851477    1.603521
 C   -5.518181    0.909200    0.582188
 C   -5.418370    0.030019   -0.491265
 C   -4.391019   -0.904500   -0.519328
 C   -3.438400   -0.982065    0.500976
 C   -2.355585   -2.052337    0.458774
 C   -2.874339   -3.458531    0.822226
 C   -3.124366   -4.141643   -0.525456
 C   -2.018029   -3.585637   -1.419613
 N   -1.780664   -2.248494   -0.871336
 C   -0.931205   -1.409465   -1.527382
 O   -0.422004   -1.730056   -2.593586
 C   -0.613165   -0.038871   -0.920421
 C   -1.444748    1.050439   -1.616601
 C   -1.108078    2.438563   -1.076980
 S   -2.109504    3.779002   -1.768873
 C   -3.723861    3.405014   -1.050553
 N    0.807509    0.192919   -1.088224
 C    1.603796    0.373656    0.022056
 O    1.160962    0.519651    1.155241
 N    2.957505    0.376404   -0.250301
 C    3.861546    0.768593    0.819321
 C    5.290479    0.387413    0.516572
 C    6.338215    1.271883    0.768056
 C    7.659741    0.924313    0.520751
 C    7.975411   -0.338874    0.008349
 N    9.292032   -0.678393   -0.299099
 C    6.927702   -1.232721   -0.247197
 C    5.612141   -0.869357    0.002060
 H   -2.291014    2.255458    2.515591
 H   -0.760237    1.415651    2.092115
 H   -1.175267    1.731796    3.794833
 H   -4.654874    1.533306    2.445913
 H   -6.313472    1.649067    0.615151
 H   -6.130084    0.075553   -1.310355
 H   -4.318636   -1.565609   -1.376653
 H   -1.566079   -1.752607    1.158261
 H   -3.765100   -3.416367    1.456041
 H   -2.096059   -3.991642    1.379763
 H   -3.099800   -5.232399   -0.457835
 H   -4.107421   -3.855292   -0.915932
 H   -1.096112   -4.178673   -1.362937
 H   -2.292826   -3.506748   -2.475072
 H   -0.822373   -0.004471    0.152753
 H   -1.254608    1.013749   -2.694629
 H   -2.508195    0.826036   -1.466047
 H   -0.068830    2.687968   -1.312817
 H   -1.199960    2.462193    0.018286
 H   -3.652854    3.230677    0.028285
 H   -4.197761    2.538159   -1.519583
 H   -4.359231    4.278519   -1.219183
 H    1.209852   -0.280293   -1.888720
 H    3.224921    0.648505   -1.186322
 H    3.496518    0.267316    1.721484
 H    3.788011    1.847166    1.023254
 H    6.117306    2.259990    1.168256
 H    8.458336    1.636235    0.720748
 H    9.483179   -1.670335   -0.316575
 H    9.996496   -0.172440    0.219178
 H    7.153282   -2.216005   -0.655090
 H    4.813754   -1.577207   -0.210235
