54 
4j5e_ligand_dft.xyz
 C   -5.280840   -2.526357   -2.118329
 O   -4.717824   -1.362596   -1.554648
 C   -4.685143   -1.251430   -0.198943
 C   -5.257275   -2.170613    0.677390
 C   -5.174570   -1.954963    2.052904
 C   -4.525664   -0.835822    2.552569
 C   -3.950421    0.074302    1.665961
 C   -4.019069   -0.114664    0.291822
 C   -3.413718    0.861438   -0.703820
 C   -4.465534    1.811418   -1.310494
 C   -4.509573    2.965498   -0.305038
 C   -3.041229    3.141910    0.091986
 N   -2.477495    1.803095   -0.090281
 C   -1.185203    1.559137    0.227221
 O   -0.461546    2.426196    0.708433
 C   -0.665867    0.149301   -0.036817
 N    0.682477    0.062713    0.461014
 C    1.582540   -0.741624   -0.202964
 O    1.253728   -1.532514   -1.077024
 N    2.886244   -0.571106    0.207235
 C    3.920364   -1.482352   -0.248923
 C    5.288070   -0.852205   -0.133846
 C    5.545093    0.402735   -0.692367
 C    6.799416    0.986852   -0.605509
 C    7.849792    0.326549    0.047355
 N    9.099328    0.935027    0.183358
 C    7.597808   -0.928445    0.610361
 C    6.333558   -1.500382    0.519631
 H   -5.156651   -2.426197   -3.196997
 H   -4.760507   -3.428919   -1.775083
 H   -6.349408   -2.610929   -1.883399
 H   -5.763836   -3.053366    0.304425
 H   -5.620752   -2.677127    2.730054
 H   -4.455291   -0.670497    3.622665
 H   -3.421675    0.942975    2.048156
 H   -2.916945    0.292738   -1.494936
 H   -5.427067    1.316360   -1.457261
 H   -4.109644    2.168825   -2.283324
 H   -5.105964    2.677715    0.567551
 H   -4.938884    3.879564   -0.721862
 H   -2.903478    3.477540    1.123703
 H   -2.517964    3.853292   -0.557738
 H   -0.689695   -0.069432   -1.112545
 H   -1.322219   -0.584186    0.447429
 H    1.006525    0.947428    0.839368
 H    3.040108   -0.138944    1.106974
 H    3.681601   -1.727382   -1.287721
 H    3.897257   -2.429641    0.309572
 H    4.741031    0.931198   -1.197865
 H    6.972212    1.966916   -1.043946
 H    9.312675    1.620634   -0.527764
 H    9.867769    0.291900    0.314337
 H    8.394653   -1.453438    1.131838
 H    6.162197   -2.475508    0.970106
