52 
4j5p_ligand_xtb.xyz
 C   -1.348278    1.032235   -1.334626
 C   -2.684251    0.988841   -1.680203
 C   -3.625622    1.608282   -0.865514
 C   -5.082222    1.612938   -1.202730
 C   -3.146889    2.241482    0.279876
 N   -1.878449    2.291931    0.626536
 C   -0.983701    1.701673   -0.164956
 C    0.399895    1.798405    0.241553
 O    1.392893    1.344979   -0.572413
 C    0.999829    2.301014    1.365950
 N    2.347287    2.153806    1.248353
 C    2.529733    1.588934    0.092195
 C    3.852047    1.196052   -0.484173
 O    4.816425    2.185486   -0.230861
 C    4.294473   -0.170036    0.087340
 C    3.187862   -1.223306    0.114693
 C    2.687268   -1.641493   -1.271796
 C    1.256101   -2.177678   -1.230198
 C    1.104079   -3.442322   -0.388987
 C   -0.367954   -3.812350   -0.187579
 C   -1.181254   -2.722671    0.460484
 C   -2.427551   -2.383500   -0.050939
 C   -3.206933   -1.413629    0.554406
 C   -2.742009   -0.748481    1.674479
 C   -1.495194   -1.064677    2.184951
 C   -0.728690   -2.050273    1.590504
 H   -0.594174    0.563722   -1.947153
 H   -2.997370    0.476037   -2.579004
 H   -5.351771    2.556902   -1.677683
 H   -5.686356    1.508313   -0.303911
 H   -5.323199    0.806272   -1.891355
 H   -3.830175    2.740204    0.956611
 H    0.549910    2.745077    2.227630
 H    3.758638    1.140937   -1.573354
 H    4.746980    2.435472    0.699497
 H    5.144875   -0.523367   -0.497436
 H    4.636496    0.004567    1.110633
 H    3.571718   -2.098294    0.642947
 H    2.348544   -0.835343    0.696895
 H    3.356054   -2.395322   -1.692464
 H    2.700267   -0.779309   -1.939314
 H    0.605914   -1.401817   -0.818570
 H    0.918869   -2.384071   -2.249236
 H    1.617740   -4.273027   -0.878419
 H    1.573755   -3.294812    0.582784
 H   -0.422089   -4.708705    0.438735
 H   -0.813340   -4.060558   -1.153822
 H   -2.797390   -2.893330   -0.930027
 H   -4.180580   -1.177912    0.149912
 H   -3.343972    0.012464    2.147497
 H   -1.121686   -0.544671    3.054797
 H    0.231512   -2.299945    2.017386
