55 
4j6i_ligand_xtb.xyz
 C   -8.008485   -1.817219    0.884377
 C   -7.865277   -0.368610    0.415911
 C   -7.175476    0.479865    1.489375
 O   -9.130084    0.185977    0.088083
 C   -7.076924   -0.313866   -0.914319
 N   -5.683637   -0.605012   -0.759408
 C   -4.667739    0.273780   -0.713228
 C   -3.499851   -0.449876   -0.518293
 C   -3.951936   -1.786381   -0.454371
 N   -5.257867   -1.855646   -0.597385
 C   -2.139590    0.042960   -0.412092
 C   -1.049568   -0.832954   -0.405109
 C    0.225718   -0.341087   -0.297497
 C    0.508556    1.029995   -0.197520
 C   -0.582049    1.912312   -0.226537
 O   -0.566860    3.277430   -0.157175
 C    0.601544    4.013954   -0.397210
 C    1.667283    3.828629    0.693473
 C    2.427932    2.585704    0.424602
 C    1.910659    1.388381   -0.023217
 N    2.855737    0.441739   -0.259902
 C    4.055233    0.860548   -0.022914
 S    4.150542    2.511953    0.532480
 C    5.241145    0.085833   -0.195453
 N    6.481416    0.505103   -0.022609
 C    7.229183   -0.567888   -0.323620
 N    6.534708   -1.623994   -0.674919
 N    5.264115   -1.214673   -0.599703
 C    4.169644   -2.096416   -0.856646
 C    3.723160   -2.804827    0.426735
 F    3.548513   -1.954735    1.443461
 F    2.555792   -3.436496    0.238526
 F    4.598871   -3.725829    0.838273
 C   -1.875374    1.401665   -0.324496
 H   -8.648273   -2.363274    0.194879
 H   -7.034373   -2.297647    0.904977
 H   -8.448698   -1.858116    1.878952
 H   -6.196485    0.073426    1.727016
 H   -7.062914    1.505022    1.143659
 H   -7.773594    0.488605    2.398668
 H   -9.708360    0.101012    0.854086
 H   -7.189882    0.687001   -1.335301
 H   -7.517638   -1.039122   -1.602110
 H   -4.833993    1.324304   -0.835867
 H   -3.385474   -2.683069   -0.304508
 H   -1.206091   -1.896790   -0.479755
 H    1.058520   -1.024738   -0.266956
 H    0.262222    5.053082   -0.415886
 H    1.026007    3.760229   -1.377638
 H    1.160843    3.776220    1.661732
 H    2.343408    4.683587    0.706580
 H    8.298302   -0.563185   -0.285689
 H    4.484329   -2.859036   -1.574041
 H    3.320081   -1.514140   -1.229234
 H   -2.677656    2.122066   -0.327088
