55 
4j6i_ligand_ani.xyz
 C   -8.174842   -1.750649    0.936629
 C   -7.929177   -0.328924    0.435366
 C   -7.283925    0.536963    1.515553
 O   -9.166460    0.249701    0.015341
 C   -7.104690   -0.317938   -0.871224
 N   -5.693199   -0.626739   -0.745573
 C   -4.654542    0.237634   -0.769476
 C   -3.499021   -0.493602   -0.576506
 C   -3.974130   -1.822112   -0.455936
 N   -5.292774   -1.890502   -0.559642
 C   -2.120156    0.004325   -0.495700
 C   -1.032075   -0.800292   -0.846080
 C    0.250677   -0.307346   -0.746468
 C    0.525602    0.996366   -0.308156
 C   -0.580817    1.809304    0.013183
 O   -0.488600    3.093966    0.462736
 C    0.390431    3.975067   -0.216714
 C    1.785294    3.930188    0.381948
 C    2.462929    2.608355    0.192294
 C    1.935995    1.384859   -0.163168
 N    2.876766    0.394355   -0.366277
 C    4.075560    0.813547   -0.105492
 S    4.180455    2.466101    0.368656
 C    5.310437    0.047971   -0.175872
 N    6.507206    0.540585    0.051068
 C    7.310158   -0.522397   -0.179051
 N    6.684837   -1.630662   -0.527020
 N    5.393910   -1.260240   -0.520044
 C    4.346937   -2.224180   -0.760767
 C    3.707177   -2.748047    0.522950
 F    3.483014   -1.768787    1.410731
 F    2.518786   -3.309816    0.221502
 F    4.455945   -3.680849    1.125527
 C   -1.868148    1.300789   -0.062021
 H   -8.698954   -2.334555    0.171739
 H   -7.236356   -2.252636    1.183416
 H   -8.802531   -1.727898    1.836648
 H   -6.309530    0.135759    1.808372
 H   -7.150622    1.565356    1.161245
 H   -7.923235    0.562421    2.406665
 H   -9.741065    0.307949    0.790350
 H   -7.192036    0.681503   -1.302130
 H   -7.543375   -1.035556   -1.569287
 H   -4.812409    1.294458   -0.950078
 H   -3.405995   -2.728166   -0.278353
 H   -1.195571   -1.815385   -1.199049
 H    1.096938   -0.934310   -1.002842
 H   -0.033967    4.975763   -0.094329
 H    0.411669    3.731335   -1.287964
 H    1.709411    4.153311    1.455799
 H    2.393663    4.727292   -0.064480
 H    8.388860   -0.488521   -0.090365
 H    4.785316   -3.058764   -1.309661
 H    3.560731   -1.757979   -1.355502
 H   -2.682691    1.959862    0.227517
