86 
4j70_ligand_xtb.xyz
 C   -1.107391   -2.555683    0.503130
 O   -0.661409   -1.888040    1.409296
 O   -2.399242   -2.839115    0.299165
 C   -3.342552   -2.383934    1.278075
 C   -4.663990   -2.125056    0.608664
 C   -5.312317   -0.909282    0.774477
 C   -6.531940   -0.680873    0.160619
 C   -7.110293   -1.662568   -0.625307
 C   -6.465403   -2.876242   -0.796084
 C   -5.249147   -3.107986   -0.179409
 N   -0.340784   -3.181612   -0.425755
 C    1.088564   -2.969065   -0.458989
 C    1.407911   -1.519611   -0.856791
 O    0.726504   -0.912674   -1.665902
 C    1.734694   -3.922423   -1.457863
 N   -0.304251    1.368821    2.159216
 C    1.001806    1.382385    2.726516
 C    1.771109    0.101169    2.658994
 C    2.209574    1.270053    1.822437
 C    2.006152    1.303459    0.329212
 C    2.914974    0.368260   -0.484039
 C    4.394573    0.522599   -0.152112
 C    5.291288   -0.246024   -1.130660
 C    6.736864   -0.066056   -0.763493
 C    7.450774    1.028539   -1.234228
 C    8.771087    1.220111   -0.869383
 C    9.395624    0.318438   -0.024493
 C    8.692281   -0.773915    0.452744
 C    7.371396   -0.962339    0.086232
 N    2.509320   -1.014550   -0.286556
 O   -1.672441    0.465245   -1.169256
 C   -1.495975    1.871156   -1.228107
 C   -2.534531    2.580125   -0.344670
 C   -3.979167    2.323967   -0.817544
 C   -4.210452    2.708880   -2.287360
 C   -3.929275    4.169954   -2.621233
 C   -4.989509    3.039792    0.081597
 C   -2.339248    2.127359    1.118164
 O   -2.678604    0.775697    1.305165
 C   -0.906025    2.430910    1.595229
 O   -0.405222    3.534142    1.487473
 H   -2.963055   -1.481436    1.763185
 H   -3.445422   -3.174742    2.034111
 H   -4.852572   -0.143313    1.379296
 H   -7.028893    0.268790    0.292862
 H   -8.061054   -1.483079   -1.105708
 H   -6.913306   -3.644911   -1.409118
 H   -4.741649   -4.051979   -0.311788
 H   -0.799090   -3.500385   -1.264349
 H    1.465082   -3.157727    0.553801
 H    2.815754   -3.811833   -1.438529
 H    1.381754   -3.698980   -2.462296
 H    1.481018   -4.950788   -1.212812
 H   -0.812513    0.490349    2.152647
 H    1.089018    2.019524    3.600300
 H    2.377110   -0.186724    3.505076
 H    1.258019   -0.718191    2.177917
 H    3.093337    1.797435    2.160799
 H    0.979285    1.010885    0.111171
 H    2.145147    2.328734   -0.019134
 H    2.748342    0.585164   -1.546356
 H    4.652481    1.581862   -0.186926
 H    4.579778    0.168455    0.864287
 H    5.029456   -1.305874   -1.108989
 H    5.115803    0.126034   -2.141946
 H    6.967566    1.733377   -1.895904
 H    9.314786    2.074180   -1.245817
 H   10.426976    0.465765    0.259521
 H    9.174152   -1.481710    1.111440
 H    6.828178   -1.819294    0.460215
 H    2.946915   -1.506936    0.476064
 H   -0.881081    0.025388   -1.520078
 H   -0.497771    2.150843   -0.872641
 H   -1.580131    2.214012   -2.266372
 H   -2.313255    3.650060   -0.375753
 H   -4.162927    1.246402   -0.745819
 H   -3.604927    2.067836   -2.929139
 H   -5.255220    2.490246   -2.523014
 H   -2.883832    4.418125   -2.457626
 H   -4.540291    4.831331   -2.013190
 H   -4.162188    4.360843   -3.667033
 H   -5.975173    3.020377   -0.378340
 H   -4.703165    4.076773    0.240990
 H   -5.065065    2.551489    1.049031
 H   -2.993768    2.714112    1.773997
 H   -2.389048    0.322270    0.490161
