103 
4j73_ligand_ani.xyz
 N  -10.452925   -2.665539   -0.399780
 C   -9.222446   -2.590245    0.474788
 C   -8.355943   -1.497336   -0.191951
 O   -8.769432   -0.938151   -1.204318
 C   -8.512984   -3.939578    0.585894
 N   -7.167546   -1.197885    0.370340
 C   -6.247422   -0.263474   -0.240122
 C   -4.857666   -0.579143    0.324143
 O   -4.718325   -1.256576    1.334708
 C   -6.631607    1.196396    0.032164
 N   -3.803766   -0.050565   -0.341369
 C   -2.440801   -0.322628    0.060852
 C   -1.574202    0.774469   -0.553296
 O   -1.840441    1.232557   -1.656996
 C   -1.984250   -1.709431   -0.440692
 C   -0.547542   -2.099014   -0.086037
 C   -0.294938   -2.251365    1.416472
 C    1.039746   -2.926983    1.739668
 N    2.197527   -2.123807    1.286538
 N   -0.503685    1.172018    0.179583
 C    0.577587    1.948310   -0.383277
 C    1.894156    1.346656    0.125002
 O    1.931007    0.706940    1.171623
 C    0.497930    3.440403   -0.011794
 C   -0.781938    4.106710   -0.510220
 C   -0.769112    5.620134   -0.309726
 C   -2.072863    6.260745   -0.786755
 N   -2.085271    7.753593   -0.606347
 N    2.988519    1.633882   -0.627433
 C    4.303247    1.046375   -0.427871
 C    4.328353   -0.448851   -0.819810
 O    3.323864   -1.108783   -1.042483
 C    4.839959    1.243630    1.006240
 C    4.761994    2.680950    1.534325
 C    5.280063    2.730005    2.971635
 C    5.526111    3.668513    0.652531
 N    5.585293   -0.982792   -0.900751
 C    5.803522   -2.427108   -0.862288
 C    5.851875   -2.811666    0.617594
 O    7.082889   -2.727174    1.149540
 C    7.024937   -2.866368   -1.679921
 C    7.251114   -4.373913   -1.545031
 C    6.846190   -2.477097   -3.147434
 O    4.881713   -3.094518    1.282833
 H  -11.318815   -2.439972    0.113288
 H  -10.539456   -3.594025   -0.839938
 H  -10.259385   -1.941117   -1.131380
 H   -9.519543   -2.244970    1.466629
 H   -8.148846   -4.285310   -0.388948
 H   -7.649634   -3.876889    1.254185
 H   -9.187199   -4.696969    0.999946
 H   -6.801655   -1.692534    1.174447
 H   -6.249625   -0.422212   -1.326068
 H   -5.902824    1.879456   -0.417798
 H   -7.612939    1.398629   -0.403745
 H   -6.680149    1.388770    1.108737
 H   -3.912045    0.485575   -1.191654
 H   -2.397947   -0.297392    1.155177
 H   -2.682201   -2.442680   -0.019484
 H   -2.113255   -1.729592   -1.529113
 H    0.156765   -1.373376   -0.518281
 H   -0.332814   -3.059274   -0.575708
 H   -1.097520   -2.853631    1.860705
 H   -0.327097   -1.273085    1.916100
 H    1.120618   -3.096468    2.816943
 H    1.075565   -3.904621    1.247552
 H    2.254210   -2.075247    0.259677
 H    3.086625   -2.531602    1.604872
 H    2.137761   -1.149706    1.620142
 H   -0.283959    0.683701    1.037178
 H    0.515188    1.863011   -1.475405
 H    1.372385    3.945629   -0.444841
 H    0.579302    3.546751    1.078342
 H   -1.644381    3.672640    0.012497
 H   -0.924707    3.871547   -1.574788
 H   -0.608823    5.841438    0.755736
 H    0.081595    6.052216   -0.857038
 H   -2.228070    6.044211   -1.843253
 H   -2.914207    5.843797   -0.234206
 H   -1.942406    7.971386    0.393426
 H   -1.315370    8.164655   -1.159264
 H   -2.979762    8.152120   -0.918233
 H    2.798911    1.986617   -1.553552
 H    4.973082    1.565096   -1.124012
 H    4.287709    0.581882    1.682284
 H    5.889765    0.915277    1.037365
 H    3.705626    2.978688    1.543840
 H    5.193964    3.739868    3.388320
 H    6.337800    2.439360    3.014154
 H    4.717397    2.048278    3.619767
 H    6.588351    3.395341    0.587500
 H    5.123789    3.706756   -0.365515
 H    5.468414    4.680946    1.068361
 H    6.358160   -0.399453   -0.611816
 H    4.895974   -2.879912   -1.267681
 H    6.988783   -2.959029    2.088822
 H    7.903744   -2.346747   -1.276584
 H    7.468734   -4.659102   -0.512372
 H    6.365864   -4.931517   -1.876127
 H    8.095234   -4.687955   -2.168052
 H    7.717881   -2.784195   -3.735132
 H    5.966974   -2.977819   -3.573653
 H    6.712824   -1.398517   -3.267564
