34 
4j74_ligand_dft.xyz
 N    3.375217    0.498408    0.557150
 C    2.043328    0.394997    1.157811
 C    1.279704   -0.827959    0.695868
 C    1.452095    1.786086    0.700620
 C   -0.033065    1.780978    0.419887
 N    2.262942    2.199089   -0.445900
 C    3.298541    1.447953   -0.453789
 C    4.417069    1.566200   -1.437356
 C    0.741737   -1.713874    1.626044
 C    0.024233   -2.836768    1.223587
 C   -0.153649   -3.069569   -0.133263
Cl   -1.053161   -4.474602   -0.655159
 C    0.372160   -2.200761   -1.085179
 C    1.086430   -1.087731   -0.664307
 C   -0.529424    2.012594   -0.860007
 C   -1.897033    1.967638   -1.113840
 C   -2.771669    1.685725   -0.072994
Cl   -4.493020    1.619460   -0.384413
 C   -2.301380    1.458036    1.216006
 C   -0.933896    1.511916    1.451758
 H    3.860555   -0.366370    0.355175
 H    2.125136    0.365054    2.248479
 H    1.644289    2.501507    1.513201
 H    5.352644    1.808046   -0.922794
 H    4.565907    0.620556   -1.971241
 H    4.187092    2.352354   -2.156688
 H    0.882142   -1.529557    2.688274
 H   -0.388798   -3.523885    1.953835
 H    0.214765   -2.391641   -2.140995
 H    1.476885   -0.396393   -1.405810
 H    0.168767    2.238159   -1.658868
 H   -2.281285    2.148898   -2.111795
 H   -2.997193    1.242051    2.019253
 H   -0.564003    1.333409    2.458881
