100 
4j78_ligand_ani.xyz
 N    8.288499   -1.765491   -0.794308
 C    7.502152   -0.554614   -0.342933
 C    6.104035   -1.141920   -0.062510
 O    5.746687   -2.122713   -0.703799
 C    7.497535    0.498101   -1.466876
 C    6.458665    1.616851   -1.346732
 C    6.587589    2.525809   -0.122528
 C    5.436016    3.532291   -0.013546
 N    4.133480    2.870131    0.291857
 N    5.344738   -0.577018    0.907529
 C    3.962130   -0.938950    1.103020
 C    3.050890   -0.466555   -0.048983
 O    3.324876    0.442586   -0.820796
 C    3.468030   -0.350000    2.439100
 O    3.871083    1.026924    2.448919
 C    4.047618   -1.081558    3.639810
 N    1.879132   -1.165505   -0.126234
 C    0.726347   -0.625220   -0.817239
 C   -0.183361    0.062474    0.213852
 O   -0.056136   -0.125462    1.414759
 C   -0.035588   -1.717169   -1.589843
 C   -0.734042   -2.750532   -0.699388
 C   -1.373202   -3.901450   -1.481015
 C   -2.510697   -3.499066   -2.427727
 N   -3.633494   -2.836163   -1.710138
 N   -1.151882    0.871176   -0.313911
 C   -2.287849    1.288984    0.477918
 C   -3.476446    0.344344    0.226379
 O   -3.650324   -0.201099   -0.860255
 C   -2.695399    2.754520    0.230093
 C   -3.530453    3.067441   -1.024410
 C   -2.796775    2.780115   -2.337402
 C   -3.990545    4.525647   -0.970311
 N   -4.331321    0.224787    1.273018
 C   -5.555857   -0.555964    1.279231
 C   -5.258607   -2.052019    1.237265
 O   -4.194585   -2.566110    0.981216
 C   -6.543379   -0.161040    0.161759
 C   -7.053945    1.283736    0.251640
 C   -7.820560    1.640489   -1.023414
 C   -7.931858    1.517031    1.483110
 O   -6.354706   -2.768418    1.534105
 H    7.527844   -2.418796   -1.107531
 H    8.823462   -2.192335   -0.016859
 H    8.922046   -1.536381   -1.573477
 H    7.948852   -0.155081    0.569539
 H    8.505908    0.930244   -1.529958
 H    7.310488   -0.020201   -2.416919
 H    5.462071    1.169142   -1.380499
 H    6.529671    2.248752   -2.242392
 H    6.632574    1.945000    0.807058
 H    7.530349    3.084563   -0.174338
 H    5.330683    4.071624   -0.956945
 H    5.652116    4.262083    0.769120
 H    4.172577    2.388422    1.209042
 H    3.896147    2.154545   -0.418102
 H    3.366374    3.560102    0.322650
 H    5.626719    0.301961    1.314768
 H    3.895417   -2.031504    1.137307
 H    2.369354   -0.392943    2.465894
 H    3.631156    1.390856    3.314702
 H    3.760022   -2.137580    3.617993
 H    3.670531   -0.653938    4.575799
 H    5.140585   -1.020366    3.644556
 H    1.638764   -1.674423    0.714740
 H    1.104464    0.109348   -1.534150
 H    0.692197   -2.212501   -2.242600
 H   -0.772335   -1.234920   -2.246800
 H   -0.002600   -3.175095    0.000955
 H   -1.493979   -2.254997   -0.080022
 H   -1.763864   -4.643018   -0.770631
 H   -0.603576   -4.417063   -2.069001
 H   -2.894830   -4.390206   -2.927874
 H   -2.144395   -2.822683   -3.203430
 H   -3.475565   -1.819616   -1.605301
 H   -3.730906   -3.208513   -0.754821
 H   -4.529323   -2.965157   -2.201125
 H   -1.309137    0.806997   -1.309117
 H   -1.970776    1.197127    1.520234
 H   -1.772445    3.349546    0.210785
 H   -3.265039    3.093715    1.106378
 H   -4.429383    2.433195   -1.005108
 H   -1.791944    3.221914   -2.335695
 H   -3.347148    3.210000   -3.181959
 H   -2.704058    1.708092   -2.528522
 H   -4.568696    4.724903   -0.060451
 H   -4.623221    4.774179   -1.830029
 H   -3.129702    5.206509   -0.979185
 H   -4.086430    0.710625    2.120943
 H   -6.029987   -0.386134    2.250432
 H   -6.039359   -0.310285   -0.798738
 H   -7.395147   -0.850696    0.195708
 H   -6.186090    1.958698    0.318945
 H   -8.698668    0.992592   -1.141768
 H   -8.169021    2.678969   -0.999454
 H   -7.190013    1.515502   -1.911695
 H   -8.801575    0.847426    1.467627
 H   -7.393385    1.345679    2.421525
 H   -8.304862    2.547306    1.501951
 H   -6.096805   -3.704921    1.498052
