66 
4j7d_ligand_ani.xyz
 N   -0.379407    0.085352    1.895498
 C    1.090860   -0.005197    1.927595
 C    1.555785    0.156505    3.376373
 C    1.709933    1.065539    1.012154
 C    1.236291   -1.488597    1.341344
 C    1.187532   -2.533478    2.463615
 C    2.489165   -1.727184    0.490116
 N    0.018231   -1.680650    0.545250
 C   -0.836195   -0.809849    0.956567
 C   -2.240832   -0.773050    0.479654
 C    1.322757    1.101557   -0.329637
 C    1.809658    2.066520   -1.201100
 C    2.722853    3.003663   -0.730951
Cl    3.344024    4.216805   -1.813675
 C    3.148319    2.976446    0.588454
 C    2.640649    2.007572    1.448731
 C    3.761127   -1.582343    1.037732
 C    4.900387   -1.784747    0.266997
 C    4.756822   -2.146931   -1.066928
Cl    6.174279   -2.408721   -2.043175
 C    3.498056   -2.304530   -1.633122
 C    2.369427   -2.090865   -0.849507
 C   -2.842712   -1.968557    0.090950
 C   -4.145346   -2.008808   -0.385043
 C   -4.900481   -0.841227   -0.503429
 C   -6.340789   -0.821971   -1.030036
 C   -7.291177   -0.303535    0.064824
 C   -6.437699    0.101599   -2.258154
 C   -4.306008    0.365173   -0.123759
 C   -2.993930    0.412468    0.350730
 O   -2.391230    1.584962    0.700220
 C   -3.016158    2.809713    0.338264
 C   -2.052527    3.930278    0.663924
 C   -6.821378   -2.215047   -1.452670
 H   -0.786347    1.011408    1.844737
 H    2.631107   -0.024208    3.478953
 H    1.339419    1.172948    3.721461
 H    1.015667   -0.527412    4.032703
 H    1.153584   -3.522307    2.005024
 H    2.063217   -2.468540    3.113115
 H    0.277184   -2.404420    3.054224
 H    0.642334    0.336541   -0.700261
 H    1.491872    2.099062   -2.239018
 H    3.866617    3.707940    0.946113
 H    2.990866    2.007913    2.476919
 H    3.886124   -1.307153    2.082581
 H    5.891235   -1.670163    0.695256
 H    3.405267   -2.589497   -2.677473
 H    1.377691   -2.198737   -1.275276
 H   -2.275080   -2.890973    0.169605
 H   -4.567164   -2.966166   -0.670121
 H   -7.032967    0.710602    0.387190
 H   -8.321752   -0.282279   -0.307801
 H   -7.259019   -0.953112    0.947162
 H   -6.160462    1.133851   -2.021496
 H   -7.464072    0.113485   -2.642204
 H   -5.776122   -0.246999   -3.059668
 H   -4.884318    1.282779   -0.199294
 H   -3.256349    2.799616   -0.733157
 H   -3.951694    2.925177    0.901519
 H   -1.831441    3.951915    1.735814
 H   -1.112353    3.810527    0.115677
 H   -2.492189    4.893520    0.386026
 H   -6.820319   -2.914954   -0.608769
 H   -6.193208   -2.632026   -2.248779
 H   -7.846747   -2.155093   -1.833413
