66 
4j7d_ligand_xtb.xyz
 N   -0.431033    0.100231    1.928188
 C    0.991682   -0.169703    2.069638
 C    1.365502   -0.077405    3.547351
 C    1.795938    0.789588    1.207779
 C    1.053444   -1.640860    1.445890
 C    1.156395   -2.759277    2.490649
 C    2.194367   -1.764455    0.457331
 N   -0.222834   -1.804639    0.778453
 C   -0.974805   -0.809898    1.063737
 C   -2.332276   -0.683105    0.539388
 C    1.292724    1.172789   -0.032934
 C    2.006668    2.003958   -0.873723
 C    3.248761    2.467924   -0.475767
Cl    4.156479    3.500414   -1.523978
 C    3.768232    2.108627    0.755210
 C    3.041902    1.275339    1.586516
 C    3.516807   -1.715143    0.881423
 C    4.556642   -1.776496   -0.026478
 C    4.273118   -1.894293   -1.376658
Cl    5.571205   -1.954210   -2.518699
 C    2.964278   -1.963797   -1.819902
 C    1.934634   -1.897393   -0.899630
 C   -3.024755   -1.835322    0.193216
 C   -4.299449   -1.783344   -0.336420
 C   -4.928131   -0.562655   -0.544754
 C   -6.331637   -0.439007   -1.117083
 C   -7.231642    0.262886   -0.090166
 C   -6.278374    0.383114   -2.412795
 C   -4.230966    0.596855   -0.214075
 C   -2.951413    0.559092    0.318643
 O   -2.229318    1.677490    0.630096
 C   -2.700021    2.953887    0.245900
 C   -1.603900    3.956863    0.574405
 C   -6.952798   -1.799703   -1.443276
 H   -0.772735    1.046146    1.960303
 H    2.353206   -0.483204    3.740405
 H    1.345849    0.965011    3.860639
 H    0.641407   -0.625867    4.143064
 H    1.121032   -3.709137    1.962827
 H    2.080160   -2.707875    3.057086
 H    0.308909   -2.715069    3.169653
 H    0.329458    0.810327   -0.358545
 H    1.605535    2.285474   -1.834895
 H    4.735909    2.474669    1.060614
 H    3.469907    1.007802    2.538629
 H    3.749766   -1.619641    1.930597
 H    5.581300   -1.730718    0.308248
 H    2.753629   -2.064571   -2.873192
 H    0.907509   -1.953458   -1.224938
 H   -2.528816   -2.780127    0.348706
 H   -4.790993   -2.708521   -0.584036
 H   -6.875846    1.264861    0.133462
 H   -8.246561    0.340870   -0.473950
 H   -7.255541   -0.305259    0.837275
 H   -5.928593    1.395410   -2.230143
 H   -7.269062    0.443189   -2.858103
 H   -5.606423   -0.086880   -3.127654
 H   -4.700222    1.553853   -0.374965
 H   -2.916407    2.966592   -0.830719
 H   -3.618513    3.202567    0.795571
 H   -1.412975    3.966583    1.644611
 H   -0.684209    3.684985    0.061925
 H   -1.907203    4.951380    0.260840
 H   -7.037357   -2.414845   -0.550765
 H   -6.363836   -2.329287   -2.188137
 H   -7.952861   -1.654172   -1.846620
