110 
4j86_ligand_xtb.xyz
 N   -9.916674    0.920934    1.533159
 C   -8.943834    0.727150    0.436513
 C   -7.570479    0.765362    1.157874
 O   -7.578278    1.144562    2.321013
 C   -9.088715    1.915651   -0.557525
 O  -10.458830    2.264082   -0.510588
 C   -8.637081    1.541571   -1.962592
 N   -6.510995    0.398943    0.465407
 C   -5.149533    0.438154    0.959565
 C   -4.272225    0.419981   -0.299548
 O   -4.776295    0.280473   -1.397679
 C   -4.835370   -0.786091    1.849342
 C   -4.766246   -2.044053    1.024732
 C   -3.538733   -2.557861    0.626844
 C   -5.926955   -2.687423    0.614580
 C   -3.475451   -3.681884   -0.178042
 C   -5.864884   -3.811995   -0.188601
 C   -4.637530   -4.308269   -0.593200
 N   -2.955888    0.573623   -0.098681
 C   -1.999918    0.328816   -1.156162
 C   -0.829575   -0.446074   -0.553215
 O   -0.647063   -0.515447    0.648056
 C   -1.488106    1.637253   -1.791366
 C   -0.555519    2.408979   -0.856936
 C    0.087430    3.612999   -1.550119
 C    1.357656    4.071868   -0.841807
 N    2.478857    3.139411   -1.119815
 N    0.015168   -1.008023   -1.436693
 C    1.198921   -1.680207   -0.941760
 C    2.023277   -0.680921   -0.121309
 O    2.116966    0.498580   -0.433045
 C    2.078360   -2.191007   -2.092237
 C    3.185789   -3.127425   -1.595879
 C    4.373046   -3.184162   -2.559731
 C    5.628503   -3.743276   -1.899818
 N    6.075933   -2.842871   -0.801426
 N    2.683585   -1.220716    0.909309
 C    3.774465   -0.569757    1.595418
 C    4.786084   -0.032734    0.569938
 O    4.855569   -0.465820   -0.569841
 C    4.472700   -1.600499    2.515548
 O    4.720417   -2.769804    1.735885
 C    3.623391   -1.915118    3.740456
 N    5.598884    0.919048    1.037377
 C    6.690101    1.450090    0.243675
 C    7.847064    0.434164    0.225259
 O    9.025174    1.000314    0.134217
 C    7.099356    2.842461    0.711147
 C    5.988602    3.859307    0.483649
 O    4.887153    3.534619    0.054615
 N    6.307467    5.113349    0.793181
 O    7.647702   -0.755479    0.255651
 H   -9.276704    1.237040    2.333678
 H  -10.426701    0.078390    1.803734
 H  -10.587343    1.650351    1.229391
 H   -9.108645   -0.217798   -0.083329
 H   -8.488860    2.763378   -0.186891
 H  -10.680009    2.852548   -1.240162
 H   -7.582615    1.283119   -1.985326
 H   -9.221427    0.704994   -2.338482
 H   -8.783616    2.386875   -2.631499
 H   -6.555846    0.112171   -0.511603
 H   -5.002977    1.358627    1.534761
 H   -3.886143   -0.620013    2.359574
 H   -5.616295   -0.860891    2.607740
 H   -2.626417   -2.086151    0.963191
 H   -6.887166   -2.314685    0.942499
 H   -2.514527   -4.074759   -0.477033
 H   -6.773478   -4.306526   -0.495087
 H   -4.588342   -5.185369   -1.218922
 H   -2.565959    0.556174    0.835477
 H   -2.506649   -0.266875   -1.924363
 H   -2.350505    2.247495   -2.060285
 H   -0.956949    1.388976   -2.711989
 H    0.222061    1.729157   -0.508901
 H   -1.111817    2.745547    0.017958
 H   -0.620092    4.440583   -1.579864
 H    0.327963    3.361821   -2.585472
 H    1.644192    5.066661   -1.185731
 H    1.197452    4.107895    0.235915
 H    3.359057    3.416051   -0.629539
 H    2.255195    2.166420   -0.818018
 H    2.667899    3.115290   -2.124712
 H   -0.151577   -0.963146   -2.428340
 H    0.886404   -2.512437   -0.298381
 H    1.449418   -2.708718   -2.817158
 H    2.525972   -1.326093   -2.586538
 H    2.781774   -4.128423   -1.443483
 H    3.546085   -2.756557   -0.640113
 H    4.593063   -2.177200   -2.918638
 H    4.128483   -3.797358   -3.426133
 H    6.423631   -3.812321   -2.642429
 H    5.447345   -4.740272   -1.497259
 H    5.787389   -1.855557   -0.996931
 H    5.623693   -3.050319    0.107974
 H    7.089403   -2.851466   -0.658196
 H    2.523297   -2.187904    1.147175
 H    3.403799    0.264035    2.202912
 H    5.438654   -1.182733    2.836262
 H    4.899893   -3.494648    2.348979
 H    2.646890   -2.299892    3.455897
 H    3.479835   -1.021273    4.339856
 H    4.121405   -2.656353    4.362206
 H    5.525907    1.232808    1.993111
 H    6.327056    1.500712   -0.794294
 H    9.761014    0.364118    0.092234
 H    7.986313    3.156280    0.159000
 H    7.359262    2.827750    1.772015
 H    7.221573    5.368778    1.128652
 H    5.637263    5.856846    0.667765
