119 
4j8b_ligand_ani.xyz
 N   -9.033098    1.713439   -2.584987
 C   -8.461235    0.980877   -1.395219
 C   -6.931279    1.097301   -1.597493
 O   -6.502870    1.726194   -2.561019
 C   -8.946369   -0.472155   -1.291792
 C  -10.462468   -0.677298   -1.155281
 C  -10.762927   -2.175450   -1.085196
 C  -11.042800    0.035581    0.068550
 N   -6.113314    0.510147   -0.696160
 C   -4.673924    0.498539   -0.872726
 C   -4.126478   -0.653360   -0.022316
 O   -4.755706   -1.096314    0.938085
 C   -3.983678    1.842059   -0.514807
 C   -3.592728    2.030279    0.957630
 C   -4.762961    2.070318    1.949729
 C   -4.388105    1.573715    3.352204
 N   -4.063627    0.114838    3.353738
 N   -2.902816   -1.115984   -0.361026
 C   -2.169609   -2.059404    0.466404
 C   -1.198593   -1.269193    1.366771
 O   -1.573559   -0.813348    2.447570
 C   -1.501394   -3.126375   -0.406762
 O   -0.820707   -2.425513   -1.453567
 C   -2.505982   -4.108581   -0.987729
 N    0.048646   -1.059724    0.893602
 C    0.993800   -0.215957    1.597293
 C    1.993273    0.301560    0.549463
 O    1.897771   -0.007906   -0.627750
 C    1.595853   -0.927935    2.825010
 C    2.384808   -2.213793    2.562302
 C    3.716818   -1.939022    1.883550
 C    4.729286   -3.081251    1.904723
 N    5.960641   -2.638675    1.194883
 N    2.968543    1.156039    0.987812
 C    3.947525    1.693736    0.066412
 C    5.201789    0.807513   -0.070332
 O    5.679762    0.176980    0.865885
 C    4.382230    3.112218    0.466759
 C    3.237159    4.118863    0.650819
 C    2.314036    4.168076   -0.567555
 C    3.815686    5.501201    0.951597
 N    5.761157    0.860845   -1.308744
 C    6.982198    0.201565   -1.749235
 C    6.720849   -1.274146   -2.033736
 O    7.514621   -1.734745   -3.014162
 C    8.160999    0.404413   -0.773782
 C    9.521316   -0.121903   -1.246830
 C    9.973658    0.517103   -2.560084
 C   10.562412    0.128368   -0.153600
 O    5.915967   -1.980395   -1.472402
 H   -9.552560    1.070575   -3.201625
 H   -8.172269    2.054646   -3.079312
 H   -9.638738    2.502667   -2.310839
 H   -8.729736    1.532977   -0.490250
 H   -8.578730   -1.036474   -2.161481
 H   -8.471636   -0.933327   -0.415522
 H  -10.963416   -0.285519   -2.051099
 H  -10.310021   -2.616922   -0.188551
 H  -11.841516   -2.362281   -1.038998
 H  -10.364145   -2.705944   -1.957242
 H  -12.113315   -0.177208    0.166109
 H  -10.550492   -0.309828    0.987154
 H  -10.928560    1.123205    0.013566
 H   -6.472791   -0.080083    0.042135
 H   -4.462570    0.304181   -1.930871
 H   -3.070963    1.913218   -1.120085
 H   -4.645026    2.646982   -0.852544
 H   -3.016211    2.959778    1.045358
 H   -2.892462    1.233341    1.232536
 H   -5.152220    3.091741    2.027354
 H   -5.598877    1.460418    1.589873
 H   -5.222677    1.743079    4.035591
 H   -3.525878    2.125851    3.735747
 H   -4.631441   -0.371480    2.638747
 H   -3.070550   -0.052153    3.106893
 H   -4.244499   -0.314399    4.273556
 H   -2.423392   -0.751460   -1.172125
 H   -2.897809   -2.507446    1.143487
 H   -0.771401   -3.669988    0.212277
 H   -0.414393   -3.082592   -2.033621
 H   -3.241958   -3.585056   -1.604908
 H   -3.029496   -4.634848   -0.183447
 H   -1.998973   -4.859461   -1.603596
 H    0.275729   -1.266257   -0.076353
 H    0.454058    0.656381    1.991800
 H    0.747422   -1.146762    3.478806
 H    2.227446   -0.212512    3.371644
 H    1.779007   -2.910460    1.967878
 H    2.562821   -2.697594    3.532135
 H    3.551257   -1.642231    0.841556
 H    4.199077   -1.095837    2.392338
 H    4.982307   -3.342238    2.934867
 H    4.334612   -3.975969    1.415753
 H    5.840112   -2.767817    0.179540
 H    6.087674   -1.620429    1.337360
 H    6.808816   -3.139265    1.499976
 H    3.176674    1.189906    1.974577
 H    3.448884    1.712155   -0.907150
 H    4.968695    3.052360    1.395317
 H    5.069388    3.490322   -0.303538
 H    2.637363    3.804280    1.515832
 H    2.876283    4.425575   -1.475494
 H    1.812264    3.208359   -0.740562
 H    1.535901    4.927395   -0.431912
 H    3.021091    6.231769    1.140326
 H    4.469557    5.476741    1.830953
 H    4.408907    5.864365    0.102537
 H    5.240772    1.352935   -2.018604
 H    7.241958    0.653870   -2.708440
 H    7.303408   -2.677266   -3.128136
 H    8.237362    1.484575   -0.591593
 H    7.902113   -0.049083    0.187717
 H    9.438641   -1.205813   -1.399528
 H    9.326053    0.246568   -3.398581
 H    9.987755    1.612019   -2.476335
 H   10.989056    0.191851   -2.813001
 H   10.271263   -0.344359    0.791280
 H   11.542272   -0.268971   -0.441362
 H   10.678566    1.204385    0.030710
