119 
4j8b_ligand_dft.xyz
 N   -9.470541   -0.016145   -2.708990
 C   -8.762572   -0.067807   -1.380036
 C   -7.286194    0.205075   -1.748375
 O   -7.023773    0.557961   -2.895109
 C   -9.044004   -1.380812   -0.650310
 C  -10.537025   -1.691736   -0.425983
 C  -10.666728   -3.023350    0.318777
 C  -11.258610   -0.569595    0.325388
 N   -6.368300    0.074492   -0.782665
 C   -4.950767    0.267878   -1.064604
 C   -4.181962   -0.391540    0.078461
 O   -4.722995   -0.568282    1.175309
 C   -4.530397    1.760185   -1.207263
 C   -4.089444    2.471495    0.077820
 C   -5.171965    2.623211    1.160101
 C   -4.610115    2.734135    2.573262
 N   -3.981714    1.436653    3.012039
 N   -2.893989   -0.673073   -0.170004
 C   -1.971190   -1.185096    0.831896
 C   -1.043742   -0.035510    1.281037
 O   -1.506255    0.893089    1.966130
 C   -1.273366   -2.444718    0.306573
 O   -0.629406   -2.027631   -0.892332
 C   -2.245538   -3.590230    0.067950
 N    0.233319   -0.082956    0.909202
 C    1.189492    0.962622    1.235790
 C    2.329223    0.825123    0.209950
 O    2.373617   -0.129027   -0.559998
 C    1.637650    0.905883    2.712869
 C    2.389074   -0.351232    3.171076
 C    3.768195   -0.489998    2.518588
 C    4.764261   -1.312163    3.323306
 N    6.062928   -1.351623    2.572286
 N    3.260942    1.799016    0.214131
 C    4.359566    1.801814   -0.738541
 C    5.381286    0.700114   -0.402971
 O    5.908759    0.659048    0.707357
 C    5.082921    3.153577   -0.728625
 C    4.214196    4.372531   -1.080710
 C    3.517014    4.217447   -2.434365
 C    5.084720    5.632196   -1.053141
 N    5.672295   -0.118962   -1.434536
 C    6.682106   -1.171205   -1.516180
 C    6.138578   -2.486954   -0.961764
 O    6.161654   -3.450216   -1.867215
 C    8.028257   -0.822408   -0.862440
 C    9.116852   -1.892542   -1.055623
 C    9.427055   -2.165160   -2.530449
 C   10.379786   -1.458900   -0.305977
 O    5.738151   -2.674078    0.175508
 H   -9.650561   -0.953575   -3.081702
 H   -8.801565    0.457719   -3.357586
 H  -10.363383    0.481645   -2.672781
 H   -9.133343    0.783406   -0.801612
 H   -8.562270   -2.206158   -1.191655
 H   -8.556947   -1.326098    0.331265
 H  -11.021782   -1.822277   -1.406321
 H  -10.223192   -2.953184    1.318682
 H  -11.718881   -3.292746    0.440319
 H  -10.171987   -3.838683   -0.218726
 H  -12.299381   -0.845558    0.512966
 H  -10.787161   -0.384583    1.297839
 H  -11.281417    0.380812   -0.223890
 H   -6.591506   -0.294761    0.134461
 H   -4.734223   -0.236449   -2.012363
 H   -3.697003    1.796371   -1.916463
 H   -5.356057    2.289053   -1.692181
 H   -3.725337    3.466715   -0.197769
 H   -3.213764    1.949596    0.481815
 H   -5.762678    3.525498    0.973296
 H   -5.879357    1.787839    1.137234
 H   -5.400011    2.963673    3.290828
 H   -3.837493    3.502402    2.650179
 H   -4.542279    0.629433    2.700617
 H   -3.030909    1.266102    2.592785
 H   -3.879022    1.400805    4.028432
 H   -2.524621   -0.581652   -1.108895
 H   -2.568180   -1.450110    1.708118
 H   -0.527012   -2.748287    1.055231
 H   -0.231585   -2.790433   -1.331165
 H   -3.000860   -3.312550   -0.672636
 H   -2.747612   -3.877361    0.996663
 H   -1.711781   -4.470997   -0.302276
 H    0.529264   -0.744545    0.187626
 H    0.702114    1.933516    1.082098
 H    0.731455    1.027804    3.313239
 H    2.255700    1.788792    2.918780
 H    1.784476   -1.246331    2.981917
 H    2.498054   -0.277182    4.259775
 H    3.674989   -0.929238    1.520066
 H    4.202249    0.504030    2.377235
 H    4.960770   -0.861350    4.298922
 H    4.444436   -2.345989    3.472797
 H    5.977021   -1.930172    1.707879
 H    6.295842   -0.418507    2.192604
 H    6.835103   -1.705466    3.140173
 H    3.190496    2.569033    0.863320
 H    3.931807    1.616588   -1.728785
 H    5.547658    3.288881    0.255999
 H    5.905659    3.087752   -1.452001
 H    3.437713    4.490315   -0.309181
 H    4.248251    4.025311   -3.228793
 H    2.785484    3.400801   -2.437372
 H    2.981985    5.134940   -2.696605
 H    4.482815    6.526020   -1.240947
 H    5.581344    5.757908   -0.085386
 H    5.859843    5.584865   -1.826416
 H    5.077779   -0.032847   -2.246238
 H    6.851030   -1.327533   -2.583186
 H    5.869944   -4.282837   -1.456211
 H    8.364119    0.125828   -1.299138
 H    7.875819   -0.639714    0.203638
 H    8.766472   -2.831271   -0.598809
 H    8.584267   -2.619312   -3.061997
 H    9.704993   -1.238930   -3.047429
 H   10.269122   -2.857316   -2.619278
 H   10.178943   -1.274580    0.755498
 H   11.152889   -2.229455   -0.371527
 H   10.790953   -0.538136   -0.735343
