63 
4j8m_ligand_ani.xyz
 O  118.047045  104.559882  154.166891
 C  117.134045  105.162941  154.701945
 N  116.256003  105.995706  154.033076
 C  116.228872  106.266610  152.649901
 C  115.079554  106.867858  152.125812
 C  114.999977  107.176517  150.775055
 C  116.067395  106.897687  149.926475
 C  117.207596  106.305552  150.456643
 C  118.381441  105.987788  149.572208
 F  118.656454  104.668423  149.574518
 F  119.498624  106.611547  149.995238
 F  118.176714  106.352519  148.295306
 C  117.302934  105.984853  151.807101
 N  116.853460  105.103486  156.056297
 C  117.605305  104.468947  157.063234
 C  118.686379  103.622934  156.819856
 C  119.393112  103.088443  157.885757
 C  117.232751  104.712989  158.388318
 C  117.951253  104.196343  159.455472
 C  119.068333  103.393863  159.209736
 N  119.848185  102.850391  160.241532
 C  120.181620  103.435712  161.434884
 N  120.947206  102.690593  162.241667
 C  121.255409  103.265367  163.409401
 C  120.840811  104.531345  163.774927
 C  120.065085  105.221686  162.828792
 N  119.621622  106.491589  163.086747
 C  118.878957  107.314645  162.237554
 N  118.243333  108.354162  162.758876
 N  117.654285  108.940374  161.697417
 C  117.909037  108.323387  160.517499
 C  117.313012  108.824492  159.235743
 C  118.017254  108.343311  157.963818
 C  117.036370  108.714539  156.841091
 C  115.622676  108.583426  157.467112
 C  115.844351  108.409512  158.988871
 C  118.715866  107.249527  160.833067
 N  119.732585  104.675963  161.661606
 H  115.446664  106.321056  154.539564
 H  114.240986  107.091517  152.781429
 H  114.100038  107.640022  150.382230
 H  116.020317  107.135387  148.868460
 H  118.192152  105.514974  152.208108
 H  116.146191  105.729724  156.414638
 H  118.971312  103.395432  155.801832
 H  120.239940  102.435687  157.683598
 H  116.373535  105.348370  158.588493
 H  117.659520  104.423881  160.474597
 H  120.332049  101.982290  160.064182
 H  121.869582  102.668992  164.081046
 H  121.108316  104.976549  164.727716
 H  119.722521  106.856057  164.023019
 H  117.109988  109.777109  161.839983
 H  117.351855  109.923052  159.259008
 H  118.141021  107.254956  158.013876
 H  119.009439  108.786628  157.833982
 H  117.169154  108.107924  155.937768
 H  117.206838  109.754418  156.540813
 H  115.029618  109.479436  157.253613
 H  115.059861  107.739157  157.050321
 H  115.140715  108.993634  159.590122
 H  115.718644  107.356442  159.274896
 H  119.155829  106.513391  160.184264
