45 
4jc1_ligand_ani.xyz
 C   -1.291583   -0.361834    0.023840
 S   -0.009120   -1.318373   -0.853956
 C   -1.639074    0.982172   -0.641950
 O   -0.599312    1.946802   -0.611035
 C   -2.821330    1.622783    0.078139
 O   -3.244869    2.776922   -0.619540
 C   -4.004103    0.664013    0.124058
 O   -4.483555    0.436580   -1.179778
 C   -3.548009   -0.661059    0.721990
 O   -2.432090   -1.189808    0.007406
 C   -4.605109   -1.754047    0.683264
 O   -4.078834   -2.948898    1.207768
 C    1.456223   -0.829475    0.102424
 C    2.729047   -1.514940   -0.397541
 O    2.704911   -2.920008   -0.259920
 C    3.918915   -1.034392    0.427482
 O    5.122852   -1.533055   -0.124059
 C    4.016875    0.489954    0.416561
 O    4.338465    0.941145   -0.877699
 C    2.672294    1.085480    0.819247
 O    1.645643    0.566255   -0.024759
 C    2.599577    2.599893    0.711588
 O    1.410236    3.094179    1.285497
 H   -0.958049   -0.186553    1.063034
 H   -1.940669    0.779471   -1.678094
 H    0.217837    1.500915   -0.890924
 H   -2.516935    1.879746    1.106729
 H   -2.440425    3.254511   -0.869931
 H   -4.791832    1.095639    0.765080
 H   -4.511908    1.309343   -1.600613
 H   -3.242164   -0.500989    1.771352
 H   -4.959981   -1.873214   -0.350495
 H   -5.458745   -1.470207    1.308367
 H   -3.247196   -3.096179    0.733745
 H    1.281926   -1.091250    1.158540
 H    2.897776   -1.214314   -1.440559
 H    2.031850   -3.265975   -0.862179
 H    3.793965   -1.386294    1.465210
 H    4.958057   -2.463930   -0.336650
 H    4.783090    0.805508    1.145182
 H    5.036664    0.347166   -1.192479
 H    2.441764    0.802365    1.860022
 H    2.714709    2.897475   -0.340072
 H    3.425483    3.043317    1.279714
 H    0.660789    2.835218    0.722660
