45 
4jck_ligand_ani.xyz
 C   -3.598714   -0.161422   -0.947197
 C   -2.779754    1.096998   -0.671031
 C   -3.623541    2.336463   -0.413375
 O   -2.548603   -1.830298    1.226732
 C   -1.730578   -1.468018    0.122365
 C   -2.652484   -1.362438   -1.097578
 O   -3.374240   -2.545118   -1.308446
 O   -4.553025   -0.397756    0.066964
 O   -2.801221    3.423473   -0.067865
 O   -1.985689    0.912903    0.501935
 C   -1.036396   -0.123680    0.361100
 S   -0.060868   -0.158326    1.892457
 C    1.654088   -0.143100    1.305598
 O    1.850018    0.916944    0.394542
 C    3.236479    1.153526    0.123749
 C    3.285667    2.415884   -0.721708
 O    2.643271    3.477549   -0.057658
 C    3.847372   -0.066807   -0.552156
 O    3.320139   -0.270476   -1.854413
 C    3.609362   -1.334255    0.284703
 O    3.971892   -2.476892   -0.466596
 C    2.133099   -1.457119    0.699593
 O    1.360867   -1.740123   -0.456741
 H   -4.165057   -0.039096   -1.879324
 H   -2.099846    1.295699   -1.517812
 H   -4.166684    2.610632   -1.324128
 H   -4.362070    2.103080    0.368966
 H   -1.995716   -1.806223    2.023916
 H   -0.970742   -2.237670   -0.064816
 H   -2.032350   -1.211718   -1.990282
 H   -3.996159   -2.601183   -0.566415
 H   -4.048453   -0.665157    0.855337
 H   -2.213704    3.091397    0.626988
 H   -0.372346    0.090071   -0.489404
 H    2.255807    0.037998    2.208420
 H    3.747717    1.343650    1.082118
 H    4.327269    2.712000   -0.883581
 H    2.834658    2.204214   -1.703131
 H    1.779033    3.131494    0.208711
 H    4.925114    0.086703   -0.683966
 H    2.366222   -0.420541   -1.732692
 H    4.228288   -1.304862    1.189658
 H    3.990459   -2.170208   -1.389260
 H    2.030317   -2.267138    1.432292
 H    1.777249   -2.527750   -0.842927
