42 
4je8_ligand_ani.xyz
 N    1.129327   -0.716040    0.672127
 C    1.374034    0.737329    0.969235
 C   -0.028817    1.311138    1.219684
 O   -0.641307    0.939484    2.218175
 C    2.210131    1.427827   -0.105438
 C    3.701864    1.086488   -0.056268
 S    4.072038   -0.590314   -0.656159
 C    5.851202   -0.614492   -0.353845
 N   -0.600748    2.120488    0.287592
 C   -2.062004    2.255641    0.249261
 C   -2.653663    1.008873   -0.441373
 O   -3.144207    1.060375   -1.560379
 C   -2.474081    3.530224   -0.463356
 N   -2.531210   -0.140662    0.277222
 C   -2.602770   -1.461178   -0.305872
 C   -1.907091   -2.425195    0.638427
 O   -1.113295   -2.119047    1.502140
 C   -1.912635   -1.570341   -1.677840
 O   -0.570868   -1.095385   -1.562105
 O   -2.234210   -3.694967    0.388209
 H    0.488353   -1.104864    1.391490
 H    0.660044   -0.826066   -0.256246
 H    2.024173   -1.235698    0.673452
 H    1.883848    0.804640    1.934235
 H    2.122615    2.511188    0.042354
 H    1.805320    1.198693   -1.099306
 H    4.262108    1.800203   -0.668241
 H    4.060949    1.172666    0.975711
 H    6.369756    0.136845   -0.956603
 H    6.068570   -0.449644    0.705689
 H    6.223280   -1.603421   -0.631566
 H   -0.108032    2.289850   -0.578611
 H   -2.378989    2.268110    1.298241
 H   -2.177344    3.500601   -1.516173
 H   -3.560906    3.649353   -0.431007
 H   -2.011914    4.396529    0.019472
 H   -2.106168   -0.084177    1.198576
 H   -3.643171   -1.788923   -0.420304
 H   -1.913376   -2.620543   -1.994380
 H   -2.481061   -0.972117   -2.389678
 H   -0.347670   -0.645276   -2.388534
 H   -1.720487   -4.240978    1.007366
