63 
4jfl_ligand_dft.xyz
 C   -0.019509    2.649700    1.534112
 N    1.058228    2.260931   -0.684307
 O   -0.045140    2.383241    2.727858
 C    1.281940    2.501904    0.747843
 C    2.152118    3.757028    0.901206
 C   -3.632107   -4.611168   -1.446148
 C   -4.122180   -3.035832    2.588667
 O    6.398149   -3.942797    1.053404
 O    0.219757    0.723671   -2.479283
 O   -0.333912    0.149164   -0.080217
 C   -3.889029   -0.107614   -1.480308
 C   -4.207674   -1.393730   -1.897864
 C    3.183719    0.122991   -1.748843
 C    4.387655   -0.553970   -1.627278
 C   -3.841825   -0.888497    0.810836
 C    2.242441   -1.126488    0.122382
 C    1.478874    4.969305    0.253550
 C   -2.994207    1.702921    1.541060
 C    1.039060    4.635821   -1.174440
 C   -2.377606    3.093345    1.557024
 C   -1.144567    3.368278   -0.584301
 N    5.625859   -2.287726   -0.357423
 O   -4.702109   -3.682524   -1.427742
 O   -4.312909   -3.240572    1.208575
 O   -3.398431    1.423903    0.215013
 S    3.882253   -3.052120    1.397179
 C   -3.700946    0.139603   -0.124535
 C    2.132308   -0.166100   -0.877930
 C   -4.347398   -2.432717   -0.989135
 C   -4.160666   -2.176625    0.378129
 C    5.534487   -3.193161    0.683196
 C    4.511156   -1.516994   -0.627619
 C    3.448144   -1.800728    0.241716
 C    0.230300    3.334955   -1.261665
 N   -1.099249    3.136326    0.860145
 S    0.587302    0.691948   -1.072034
 H    1.802075    1.644735    1.181433
 H    2.330893    3.926939    1.966998
 H    3.116768    3.557240    0.420659
 H   -2.825961   -4.266453   -2.107762
 H   -4.041571   -5.547126   -1.832300
 H   -3.229279   -4.777459   -0.440773
 H   -3.105612   -2.683950    2.808024
 H   -4.277377   -4.006688    3.060872
 H   -4.848107   -2.318393    2.993135
 H   -3.769824    0.702696   -2.190713
 H   -4.357256   -1.613367   -2.950160
 H    3.052714    0.875971   -2.518105
 H    5.213585   -0.341916   -2.298330
 H   -3.704886   -0.689629    1.864978
 H    1.400594   -1.327687    0.776169
 H    2.166498    5.821139    0.244475
 H    0.610073    5.270950    0.850452
 H   -2.247128    0.976471    1.879568
 H   -3.858793    1.668715    2.220368
 H    0.442553    5.451852   -1.597080
 H    1.923306    4.513871   -1.811162
 H   -2.210564    3.393988    2.593124
 H   -3.056747    3.809545    1.084444
 H   -1.788382    2.605034   -1.032397
 H   -1.615584    4.343728   -0.762714
 H    6.489574   -2.236395   -0.878204
 H    0.071523    3.096162   -2.315040
