63 
4jfl_ligand_ani.xyz
 C    0.413133    2.579482    1.576070
 N    1.458356    2.045620   -0.631575
 O    0.444223    2.453728    2.789555
 C    1.703383    2.411172    0.765951
 C    2.524846    3.704871    0.797006
 C   -6.269459   -3.997212   -1.340261
 C   -4.538929   -3.053243    2.310204
 O    7.122683   -4.039841    0.689005
 O    0.494967    0.338441   -2.225598
 O    0.235500    0.002739    0.272003
 C   -5.005947    0.538812   -1.170576
 C   -5.817185   -0.520923   -1.543238
 C    3.539830   -0.074870   -1.788365
 C    4.773231   -0.713467   -1.786491
 C   -4.281194   -0.725270    0.756641
 C    2.826379   -1.343855    0.166781
 C    1.784551    4.825780    0.069894
 C   -2.688082    1.501949    1.476132
 C    1.306276    4.366924   -1.306275
 C   -1.978850    2.845036    1.613803
 C   -0.803058    3.056396   -0.566991
 N    6.182995   -2.412762   -0.644295
 O   -6.746754   -2.661369   -1.221694
 O   -5.234011   -2.939922    1.086297
 O   -3.458158    1.523117    0.279545
 S    4.634731   -3.216976    1.259147
 C   -4.233488    0.438549   -0.014893
 C    2.588762   -0.394851   -0.819138
 C   -5.876609   -1.695322   -0.801468
 C   -5.107812   -1.786230    0.372850
 C    6.209367   -3.311907    0.397220
 C    5.022223   -1.668518   -0.808538
 C    4.057730   -1.982256    0.159247
 C    0.562325    3.032316   -1.265854
 N   -0.721550    2.913965    0.884984
 S    1.024322    0.436615   -0.874719
 H    2.264549    1.617338    1.261644
 H    2.726700    3.972225    1.839284
 H    3.484856    3.491432    0.313178
 H   -5.254122   -4.016592   -1.755295
 H   -6.951539   -4.493565   -2.035243
 H   -6.279490   -4.512460   -0.375943
 H   -3.452451   -3.018599    2.158884
 H   -4.812281   -4.024362    2.724980
 H   -4.832533   -2.264203    3.014886
 H   -4.960514    1.448997   -1.759866
 H   -6.432423   -0.463321   -2.436450
 H    3.302584    0.682649   -2.530879
 H    5.526901   -0.471841   -2.531224
 H   -3.674536   -0.814551    1.651372
 H    2.063453   -1.567707    0.904689
 H    2.436261    5.699378   -0.034083
 H    0.924580    5.143201    0.670838
 H   -1.948120    0.689882    1.434486
 H   -3.352417    1.345082    2.336615
 H    0.666499    5.124961   -1.772952
 H    2.167559    4.220296   -1.969701
 H   -1.737277    3.024885    2.663047
 H   -2.644706    3.637453    1.258130
 H   -1.415869    2.239541   -0.963390
 H   -1.337334    3.984967   -0.802150
 H    6.997991   -2.336983   -1.233648
 H    0.404075    2.704599   -2.297005
