61 
4jfm_ligand_ani.xyz
 C    2.898468    0.423711    3.508015
 O    2.332493    0.063901    2.254615
 C    2.773216    0.820787    1.194346
 C    1.881686    1.672237    0.557944
 C    4.076708    0.650790    0.700867
 O    4.803237   -0.342926    1.282845
 C    6.122437   -0.560311    0.804005
 C    4.498938    1.431246   -0.369417
 C    3.630639    2.338836   -0.967638
 C    2.317248    2.448681   -0.523998
 O    1.533328    3.352030   -1.188633
 C    0.122930    3.239976   -1.071104
 C   -0.393002    2.011805   -1.827082
 O   -1.819795    1.846514   -1.671473
 C   -2.237143    1.346078   -0.499670
 O   -1.565182    1.326224    0.507992
 C   -3.678895    0.860586   -0.608102
 C   -4.647650    2.008133   -0.296907
 C   -4.643879    2.344179    1.193240
 C   -4.971676    1.098996    2.012820
 C   -3.977048   -0.015081    1.715111
 N   -3.940010   -0.274043    0.271693
 S   -3.476533   -1.783283   -0.244940
 O   -4.039677   -2.729676    0.702227
 O   -3.780078   -1.840758   -1.663691
 C   -1.709462   -1.851402   -0.081858
 C   -0.921479   -1.720351   -1.218215
 C    0.457413   -1.807089   -1.068699
 S    1.690289   -1.639455   -2.298710
 C    3.004982   -1.868881   -1.080790
 O    4.190629   -1.829176   -1.311953
 N    2.417068   -2.094666    0.135946
 C    1.030938   -2.013685    0.187418
 C    0.237129   -2.128841    1.321047
 C   -1.143283   -2.057533    1.176829
 H    3.987616    0.316646    3.491242
 H    2.630724    1.455220    3.769994
 H    2.473575   -0.262124    4.244724
 H    0.853725    1.690119    0.907601
 H    6.110646   -0.842404   -0.253119
 H    6.523729   -1.381642    1.398718
 H    6.744205    0.332334    0.952346
 H    5.510372    1.330004   -0.751610
 H    3.953963    2.959227   -1.798797
 H   -0.276798    4.153374   -1.519593
 H   -0.181894    3.215976   -0.021350
 H   -0.245356    2.131889   -2.901706
 H    0.114717    1.094855   -1.498700
 H   -3.843781    0.524803   -1.634624
 H   -5.651414    1.692453   -0.607170
 H   -4.377187    2.875597   -0.908716
 H   -5.368039    3.139468    1.397291
 H   -3.653761    2.723459    1.481337
 H   -4.952154    1.319404    3.086248
 H   -5.984176    0.745963    1.775884
 H   -4.271737   -0.942743    2.212468
 H   -2.972496    0.269791    2.051197
 H   -1.383162   -1.548820   -2.185063
 H    2.983688   -2.000065    0.969574
 H    0.689458   -2.269925    2.299000
 H   -1.788885   -2.184368    2.043365
