41 
4jgv_ligand_ani.xyz
 C   -3.515728   -0.801649    0.841436
 C   -4.168017    0.426414    0.691330
 C   -3.620398    1.381227   -0.167697
 C   -2.454166    1.129408   -0.870800
 C   -1.808771   -0.099366   -0.728847
 C   -2.341721   -1.056932    0.136212
 O   -4.329769    2.553683   -0.243749
 O   -5.311231    0.662082    1.380079
 O   -4.080586   -1.705126    1.686021
 C   -0.555638   -0.326672   -1.523352
 C    0.054764   -1.715093   -1.566381
 C    1.058401   -1.953896   -0.428048
 C    2.308327   -1.080056   -0.531021
 C    3.326543   -1.359622    0.573893
 C    4.666261   -0.642767    0.384410
 C    4.564043    0.883305    0.383873
 C    5.901311    1.598650    0.168669
 C    6.913673    1.375743    1.291150
 O   -0.035049    0.596413   -2.121392
 H   -2.029454    1.873207   -1.539171
 H   -1.846854   -2.015239    0.284046
 H   -3.886978    3.161980   -0.848390
 H   -5.610886    1.554188    1.147431
 H   -3.533161   -2.501300    1.680342
 H    0.562370   -1.807028   -2.531147
 H   -0.736323   -2.472663   -1.544446
 H    1.357904   -3.011028   -0.444637
 H    0.565944   -1.785300    0.540443
 H    2.010066   -0.024840   -0.517828
 H    2.778799   -1.249098   -1.511305
 H    3.512675   -2.441716    0.624178
 H    2.893237   -1.075860    1.544407
 H    5.119453   -0.969732   -0.563575
 H    5.351538   -0.967065    1.177793
 H    4.124864    1.214925    1.336714
 H    3.865208    1.200380   -0.401594
 H    5.713195    2.674743    0.064577
 H    6.335701    1.272110   -0.786647
 H    6.500491    1.682743    2.259337
 H    7.204986    0.323097    1.373530
 H    7.827015    1.954911    1.119326
