41 
4jgv_ligand_xtb.xyz
 C   -3.163935   -0.014738    1.061711
 C   -3.298110    1.223845    0.419801
 C   -2.607028    1.442278   -0.777784
 C   -1.801584    0.460909   -1.316806
 C   -1.651712   -0.765587   -0.670684
 C   -2.344120   -0.990615    0.517267
 O   -2.785508    2.671086   -1.363026
 O   -4.088100    2.184694    0.947203
 O   -3.858261   -0.209048    2.212651
 C   -0.762044   -1.761885   -1.309768
 C   -0.220270   -2.878657   -0.442320
 C    0.693836   -2.337078    0.662574
 C    1.888284   -1.583355    0.082789
 C    2.812457   -1.062303    1.180604
 C    4.052369   -0.346829    0.642104
 C    3.732171    0.994576   -0.014606
 C    4.974091    1.720763   -0.534089
 C    5.883103    2.234568    0.576582
 O   -0.452754   -1.665385   -2.478917
 H   -1.271718    0.625249   -2.243960
 H   -2.275582   -1.942198    1.023659
 H   -2.285366    2.705883   -2.185594
 H   -4.056785    2.950873    0.356444
 H   -3.692405   -1.097946    2.548669
 H    0.346634   -3.553072   -1.086831
 H   -1.048708   -3.437822   -0.004606
 H    1.049619   -3.174456    1.267952
 H    0.131492   -1.665238    1.314105
 H    1.519547   -0.751214   -0.518624
 H    2.449432   -2.246895   -0.578677
 H    3.135041   -1.907541    1.794687
 H    2.256037   -0.379246    1.827396
 H    4.554506   -0.992083   -0.082503
 H    4.740081   -0.182561    1.473509
 H    3.217078    1.634430    0.706159
 H    3.055525    0.828801   -0.854823
 H    4.651062    2.569760   -1.141537
 H    5.538466    1.047663   -1.183327
 H    5.328610    2.882607    1.252173
 H    6.301590    1.413842    1.153176
 H    6.707785    2.805041    0.155016
