65 
4jhz_ligand_xtb.xyz
 C    3.022467   -2.470434    3.090008
 O    2.491676   -2.138766    1.822615
 C    2.697087   -0.810937    1.411792
 C    4.132552   -0.512559    0.959538
 C    4.517099   -1.386687   -0.230899
 C    3.553587   -1.197783   -1.405229
 O    3.569031    0.127657   -1.955240
 C    4.750847    0.470544   -2.657850
 C    2.120406   -1.488285   -0.947529
 C    1.717621   -0.608589    0.233353
 N    1.701737    0.775753   -0.218159
 C    0.905272    1.686731    0.275982
 O    0.100954    1.492241    1.195909
 C    1.038498    3.091192   -0.364078
 N   -0.225017    3.887572   -0.456745
 C   -0.871230    4.191362    0.871928
 C   -2.285022    3.618278    0.974377
 C   -1.221792    3.351244   -1.426142
 C   -1.984622    2.127578   -0.911573
 N   -2.252372    2.214438    0.540202
 C   -3.420512    1.378400    0.954243
 C   -3.151471   -0.063131    0.616425
 C   -3.882673   -0.689182   -0.403034
 C   -3.596277   -2.006498   -0.663071
 O   -4.150556   -2.831717   -1.577284
 C   -3.521548   -4.092201   -1.409482
 O   -2.508801   -3.956841   -0.426508
 C   -2.592823   -2.695171    0.039688
 C   -1.862423   -2.080996    1.030590
 C   -2.167728   -0.751682    1.314358
 H    2.658592   -1.782647    3.860588
 H    2.669908   -3.476475    3.304071
 H    4.115281   -2.467302    3.091339
 H    2.420402   -0.120403    2.229131
 H    4.818530   -0.699157    1.785333
 H    4.210548    0.545876    0.700616
 H    5.540064   -1.169839   -0.537270
 H    4.472466   -2.434542    0.065157
 H    3.823809   -1.900328   -2.205859
 H    5.013097   -0.309606   -3.375571
 H    4.534487    1.392700   -3.194645
 H    5.591989    0.634932   -1.980523
 H    2.061288   -2.525544   -0.623619
 H    1.428985   -1.338576   -1.778406
 H    0.714925   -0.872961    0.585048
 H    2.426513    0.932100   -0.933574
 H    1.747005    3.658021    0.248623
 H    1.459761    2.992808   -1.366154
 H    0.078843    4.783596   -0.852438
 H   -0.909191    5.271120    1.025366
 H   -0.253280    3.754522    1.659331
 H   -2.597464    3.670107    2.020110
 H   -3.014416    4.178900    0.384174
 H   -0.715396    3.088353   -2.357575
 H   -1.919822    4.160795   -1.653623
 H   -2.932184    2.065398   -1.454265
 H   -1.438279    1.201592   -1.102680
 H   -1.379701    1.785752    1.008924
 H   -4.320510    1.740340    0.454296
 H   -3.540279    1.498977    2.032555
 H   -4.667477   -0.182923   -0.939338
 H   -4.261745   -4.836212   -1.080707
 H   -3.074667   -4.412160   -2.360506
 H   -1.105190   -2.616745    1.576690
 H   -1.629652   -0.262576    2.112012
