65 
4jhz_ligand_dft.xyz
 C    3.791703    0.148283    3.047691
 O    2.855684   -0.012070    1.996522
 C    2.330509    1.187203    1.479808
 C    3.368898    2.051979    0.755738
 C    3.968007    1.317067   -0.444963
 C    2.883133    0.856045   -1.422622
 O    2.154045    1.952365   -2.000290
 C    2.928658    2.805709   -2.829601
 C    1.849288   -0.011452   -0.704104
 C    1.240898    0.703001    0.507249
 N    0.413717    1.821233    0.031016
 C   -0.762544    2.108230    0.551907
 O   -1.284091    1.520982    1.516559
 C   -1.566680    3.218301   -0.125577
 N   -2.951412    2.729405   -0.522858
 C   -3.888941    2.380737    0.643440
 C   -4.336545    0.916921    0.614765
 C   -2.946634    1.639076   -1.566533
 C   -2.613803    0.251222   -1.011506
 N   -3.165986    0.033498    0.365745
 C   -3.378704   -1.447130    0.681888
 C   -2.072763   -2.167621    0.531472
 C   -1.807368   -2.907219   -0.641696
 C   -0.551332   -3.453752   -0.761099
 O   -0.040502   -4.170284   -1.784804
 C    1.248021   -4.617527   -1.350048
 O    1.570873   -3.872394   -0.170890
 C    0.426277   -3.276992    0.222481
 C    0.182960   -2.566342    1.377119
 C   -1.098564   -2.014610    1.518198
 H    3.403181    0.820799    3.824350
 H    3.951765   -0.841304    3.476799
 H    4.751630    0.534877    2.685346
 H    1.856180    1.768347    2.288027
 H    4.155710    2.353965    1.452361
 H    2.886555    2.982610    0.429937
 H    4.705033    1.945398   -0.953145
 H    4.505036    0.426117   -0.101715
 H    3.337901    0.283835   -2.242447
 H    3.536287    2.217215   -3.526981
 H    2.230437    3.420374   -3.400609
 H    3.584492    3.458802   -2.242889
 H    2.336049   -0.919830   -0.339392
 H    1.061572   -0.316644   -1.404103
 H    0.582538    0.027908    1.054358
 H    0.807600    2.303795   -0.784125
 H   -1.714415    4.043436    0.575857
 H   -1.101929    3.602066   -1.036521
 H   -3.370789    3.539810   -0.986411
 H   -4.761511    3.031931    0.570506
 H   -3.345413    2.595281    1.561253
 H   -4.758772    0.672607    1.592007
 H   -5.097929    0.712593   -0.142073
 H   -2.223737    1.910869   -2.338274
 H   -3.940321    1.653859   -2.018834
 H   -3.050732   -0.490548   -1.683927
 H   -1.541536    0.063937   -0.968063
 H   -2.414963    0.364211    1.012443
 H   -4.156851   -1.811125    0.005598
 H   -3.755946   -1.471124    1.707746
 H   -2.558858   -3.068893   -1.408427
 H    1.202814   -5.683565   -1.107921
 H    1.985301   -4.407454   -2.124452
 H    0.949675   -2.430008    2.130638
 H   -1.325194   -1.458662    2.424938
