99 
4jj8_ligand_dft.xyz
 C    3.366360   -4.542417   -0.892955
 O    3.096863   -4.669289    0.291804
 C    3.332331   -5.711522   -1.856990
 N    3.700963   -3.340444   -1.442407
 C    3.646660   -2.116882   -0.678920
 C    2.998099   -1.045296   -1.548872
 O    3.385361   -0.866998   -2.703507
 C    5.059491   -1.634755   -0.262792
 C    4.955123   -0.340321    0.497690
 C    4.529262   -0.355023    1.824032
 N    4.194187    0.736989    2.512817
 C    4.314324    1.921128    1.904374
 C    4.782420    2.055308    0.603379
 C    5.089797    0.904200   -0.114240
 N    2.032191   -0.309449   -0.966995
 C    1.468296    0.835657   -1.637137
 C    0.676236    1.646922   -0.597812
 O    0.850865    1.472325    0.601963
 C    0.677085    0.461628   -2.916972
 C   -0.683264   -0.115057   -2.617924
 O   -0.609819   -1.320306   -2.082881
 O   -1.722263    0.493814   -2.813710
 O   -3.011817    2.171344    1.332021
 C   -2.987189    2.241636    0.103323
 C   -2.372334    3.448579   -0.584445
 C   -0.864855    3.582519   -0.306269
 N   -0.139185    2.596194   -1.100521
 C   -0.364318    5.005564   -0.609105
 C    0.925974    5.448267    0.100417
 C    2.147560    4.577856   -0.212339
 C    1.211674    6.913148   -0.244834
 N   -3.527543    1.299862   -0.704824
 C   -4.138100    0.081794   -0.177618
 C   -3.006937   -0.903852    0.153349
 O   -2.716252   -1.852810   -0.586570
 C   -5.114895   -0.500518   -1.193296
 C   -5.954406   -1.667274   -0.646395
 C   -7.342286   -1.276187   -0.115493
 C   -7.280082   -0.252180    1.021206
 C   -8.104855   -2.525780    0.331023
 N   -2.310282   -0.597010    1.253099
 C   -0.995198   -1.165128    1.505634
 C   -1.108369   -2.676791    1.823242
 O   -1.829738   -3.034334    2.726934
 C   -0.374884   -0.400277    2.675401
 C    1.128592   -0.487550    2.684561
 O    1.767190   -1.191307    1.918308
 O    1.673633    0.292767    3.599657
 C   -0.275174   -3.610204    0.991163
 H    3.836504   -5.508628   -2.806043
 H    3.795154   -6.575794   -1.376631
 H    2.287125   -5.964111   -2.061230
 H    3.856008   -3.244315   -2.435933
 H    3.056237   -2.312764    0.218945
 H    5.509510   -2.422102    0.349859
 H    5.666879   -1.512590   -1.165519
 H    4.393283   -1.303494    2.336214
 H    4.007818    2.789959    2.480477
 H    4.871281    3.038370    0.153391
 H    5.398501    0.965170   -1.154952
 H    1.829371   -0.429519    0.024240
 H    2.291924    1.486108   -1.968181
 H    0.546887    1.341334   -3.552508
 H    1.292140   -0.254199   -3.466162
 H   -1.492702   -1.589880   -1.715075
 H   -2.559496    3.440929   -1.665080
 H   -2.887595    4.319435   -0.168138
 H   -0.680338    3.335479    0.742699
 H   -0.296936    2.618005   -2.097599
 H   -1.153569    5.711039   -0.322398
 H   -0.239825    5.116413   -1.697335
 H    0.740441    5.384701    1.181871
 H    3.051805    5.041576    0.199197
 H    2.062907    3.581859    0.229099
 H    2.292878    4.472172   -1.295281
 H    2.087697    7.281057    0.299567
 H    1.413226    7.027805   -1.317404
 H    0.363488    7.559371    0.007482
 H   -3.205139    1.251049   -1.666460
 H   -4.646748    0.359481    0.749034
 H   -4.529858   -0.832387   -2.057133
 H   -5.770346    0.308813   -1.537329
 H   -6.089349   -2.407242   -1.443327
 H   -5.399815   -2.189960    0.145246
 H   -7.896782   -0.819399   -0.948862
 H   -8.281843   -0.044996    1.413247
 H   -6.855193    0.702499    0.692177
 H   -6.670511   -0.629558    1.852386
 H   -8.171168   -3.262859   -0.476955
 H   -9.124119   -2.276663    0.646197
 H   -7.600218   -3.004757    1.179324
 H   -2.566385    0.268947    1.722842
 H   -0.379067   -1.032487    0.611489
 H   -0.619889    0.664200    2.601267
 H   -0.777872   -0.766513    3.626477
 H    2.652301    0.359949    3.434368
 H   -0.504570   -4.645909    1.245323
 H   -0.470321   -3.426516   -0.069970
 H    0.788942   -3.416850    1.166422
