99 
4jje_ligand_ani.xyz
 C    3.960559   -4.605501   -0.964472
 O    4.032402   -4.753643    0.246991
 C    4.035238   -5.753043   -1.951361
 N    3.788195   -3.377390   -1.525895
 C    3.657446   -2.187722   -0.720101
 C    2.944949   -1.144860   -1.584242
 O    3.224304   -1.047650   -2.777092
 C    5.036319   -1.646856   -0.258883
 C    4.886275   -0.401230    0.570821
 C    4.383751   -0.503402    1.864276
 N    4.027027    0.551793    2.602959
 C    4.169578    1.770807    2.069446
 C    4.716363    1.986007    0.814268
 C    5.083039    0.880451    0.051248
 N    2.041600   -0.349456   -0.967886
 C    1.445813    0.770120   -1.665497
 C    0.760119    1.692957   -0.643311
 O    1.089337    1.693216    0.536891
 C    0.539689    0.343231   -2.847199
 C   -0.829621   -0.148500   -2.434401
 O   -0.817543   -1.346367   -1.854676
 O   -1.839454    0.510531   -2.598775
 O   -3.178398    2.526689    1.215710
 C   -3.123399    2.531034   -0.015089
 C   -2.349168    3.617633   -0.742062
 C   -0.841946    3.604698   -0.424693
 N   -0.178223    2.531651   -1.157156
 C   -0.237572    4.977478   -0.761785
 C    1.276288    5.123199   -0.560745
 C    1.737179    6.494071   -1.057646
 C    1.693268    4.910806    0.894964
 N   -3.762819    1.611329   -0.779920
 C   -4.445092    0.479625   -0.150086
 C   -3.359304   -0.548544    0.224001
 O   -3.132157   -1.551004   -0.464327
 C   -5.527994   -0.076718   -1.074954
 C   -6.646939   -0.854862   -0.371147
 C   -6.293358   -2.224952    0.224078
 C   -7.486134   -2.760336    1.019124
 C   -5.863838   -3.230188   -0.843921
 N   -2.635889   -0.240755    1.321098
 C   -1.305890   -0.791861    1.548962
 C   -1.394113   -2.249942    2.039570
 O   -1.895670   -2.483194    3.115385
 C   -0.586079    0.053144    2.598087
 C    0.892003   -0.257195    2.653230
 O    1.537545    0.455100    3.555856
 O    1.418488   -1.073330    1.911044
 C   -0.796957   -3.325723    1.167642
 H    4.356640   -6.649950   -1.420898
 H    3.049571   -5.937599   -2.392832
 H    4.734927   -5.541955   -2.767540
 H    3.767787   -3.241336   -2.527911
 H    3.062283   -2.429132    0.169745
 H    5.647714   -1.452236   -1.146191
 H    5.515401   -2.448143    0.314186
 H    4.215201   -1.480385    2.319371
 H    3.818032    2.596681    2.684678
 H    4.828569    2.998384    0.434752
 H    5.488271    1.002391   -0.951365
 H    1.910466   -0.409150    0.039454
 H    2.253373    1.360454   -2.121603
 H    1.073397   -0.437869   -3.390099
 H    0.397308    1.186908   -3.527518
 H   -1.730002   -1.531099   -1.515915
 H   -2.772619    4.565591   -0.388316
 H   -2.505557    3.568918   -1.827509
 H   -0.707088    3.395228    0.642480
 H   -0.548369    2.332224   -2.074871
 H   -0.480326    5.217651   -1.808316
 H   -0.749710    5.736331   -0.149115
 H    1.775050    4.357477   -1.171335
 H    1.482089    6.642152   -2.113194
 H    2.822257    6.605390   -0.954520
 H    1.261881    7.297736   -0.480120
 H    1.421145    3.910614    1.246717
 H    2.780034    5.020739    0.994981
 H    1.222158    5.655529    1.550405
 H   -3.422135    1.464142   -1.723055
 H   -4.894678    0.875197    0.766962
 H   -5.053486   -0.690236   -1.851505
 H   -5.980992    0.782831   -1.581652
 H   -7.471587   -0.996077   -1.085699
 H   -7.054584   -0.222122    0.431190
 H   -5.455718   -2.098809    0.923904
 H   -7.779502   -2.066254    1.815054
 H   -8.355076   -2.905921    0.364002
 H   -7.250830   -3.725290    1.482009
 H   -4.954267   -2.907859   -1.355219
 H   -6.656125   -3.371669   -1.591082
 H   -5.661840   -4.205815   -0.387032
 H   -2.825593    0.669542    1.734516
 H   -0.736095   -0.780059    0.611186
 H   -0.682568    1.117387    2.352542
 H   -1.031254   -0.111738    3.586031
 H    2.526728    0.356513    3.396910
 H   -1.303602   -4.275074    1.350684
 H    0.262646   -3.424621    1.425750
 H   -0.862221   -3.051552    0.109718
