99 
4jje_ligand_xtb.xyz
 C    3.951515   -4.535120   -0.960919
 O    3.809324   -4.761555    0.221514
 C    4.219309   -5.601516   -2.002166
 N    3.877890   -3.287303   -1.475906
 C    3.628875   -2.117975   -0.672458
 C    3.032603   -1.046853   -1.580346
 O    3.414715   -0.918057   -2.731806
 C    4.957025   -1.567183   -0.087609
 C    4.679192   -0.348433    0.728901
 C    4.197773   -0.467439    2.027404
 N    3.808528    0.564947    2.757382
 C    3.902020    1.782047    2.241504
 C    4.402704    2.020018    0.973327
 C    4.782371    0.934022    0.201540
 N    2.109383   -0.259841   -1.011946
 C    1.550530    0.875868   -1.703404
 C    0.723212    1.687865   -0.693564
 O    0.735350    1.424106    0.493604
 C    0.731571    0.447239   -2.944743
 C   -0.645639   -0.016428   -2.525189
 O   -0.635883   -1.195552   -1.955919
 O   -1.634146    0.668731   -2.674490
 O   -2.995912    2.439092    1.083778
 C   -2.978349    2.469156   -0.136698
 C   -2.240806    3.559715   -0.894771
 C   -0.769164    3.634342   -0.452458
 N    0.030723    2.703878   -1.224040
 C   -0.209217    5.052214   -0.614358
 C    1.276766    5.180577   -0.254518
 C    1.739187    6.611657   -0.525103
 C    1.540313    4.805798    1.202251
 N   -3.651821    1.586550   -0.899705
 C   -4.340538    0.450978   -0.294231
 C   -3.238421   -0.570019   -0.005093
 O   -2.939431   -1.462662   -0.795460
 C   -5.419522   -0.095676   -1.223159
 C   -6.552141   -0.778414   -0.455266
 C   -6.137778   -2.008627    0.361626
 C   -7.303779   -2.445535    1.247298
 C   -5.702989   -3.163581   -0.535559
 N   -2.556156   -0.319008    1.109538
 C   -1.354210   -1.052065    1.450188
 C   -1.717343   -2.524066    1.723853
 O   -2.715619   -2.811555    2.329513
 C   -0.698217   -0.425440    2.679474
 C    0.812970   -0.506949    2.635078
 O    1.362152    0.103584    3.656239
 O    1.435600   -1.065709    1.758929
 C   -0.730897   -3.508526    1.183166
 H    4.267446   -6.572247   -1.518132
 H    3.421436   -5.606459   -2.741128
 H    5.162041   -5.403065   -2.507017
 H    4.037962   -3.106462   -2.457235
 H    2.952620   -2.378164    0.146188
 H    5.629691   -1.334987   -0.916009
 H    5.397957   -2.354158    0.525803
 H    4.103764   -1.440140    2.491027
 H    3.555271    2.586859    2.874769
 H    4.472255    3.026534    0.591274
 H    5.148154    1.075202   -0.806099
 H    1.811436   -0.404821   -0.049516
 H    2.378558    1.508257   -2.058836
 H    1.273332   -0.365044   -3.429279
 H    0.633562    1.275341   -3.646636
 H   -1.539198   -1.441292   -1.585010
 H   -2.729274    4.503716   -0.647116
 H   -2.307619    3.397765   -1.970218
 H   -0.701383    3.320603    0.593103
 H    0.032089    2.842350   -2.222426
 H   -0.351814    5.369103   -1.651435
 H   -0.785149    5.723867    0.023929
 H    1.853386    4.503997   -0.896222
 H    1.563060    6.887125   -1.562703
 H    2.802090    6.714885   -0.320697
 H    1.199867    7.309396    0.111424
 H    1.368157    3.746642    1.373028
 H    2.573235    5.025913    1.462910
 H    0.893282    5.377021    1.864024
 H   -3.365819    1.456126   -1.861828
 H   -4.776052    0.806876    0.645036
 H   -4.957896   -0.793742   -1.922544
 H   -5.836819    0.735702   -1.795507
 H   -7.321679   -1.078959   -1.170357
 H   -7.000987   -0.044252    0.219505
 H   -5.296236   -1.744124    1.010586
 H   -7.610892   -1.639538    1.910397
 H   -8.157550   -2.732029    0.636114
 H   -7.015635   -3.297613    1.857383
 H   -4.799326   -2.910223   -1.081316
 H   -6.488218   -3.413565   -1.246585
 H   -5.490350   -4.041829    0.068932
 H   -2.797590    0.505019    1.650236
 H   -0.647449   -1.008005    0.612186
 H   -0.936814    0.640260    2.720178
 H   -1.056794   -0.881753    3.604134
 H    2.357968    0.197468    3.539806
 H   -0.917318   -4.500180    1.585415
 H    0.282778   -3.185576    1.408546
 H   -0.836142   -3.535653    0.099461
