49 
4jjq_ligand_ani.xyz
 N   -1.286055   -2.118762   -1.309231
 C   -2.282959   -2.514207   -0.236957
 C   -3.185453   -1.290060   -0.032733
 O   -4.237011   -1.182268   -0.635723
 C   -1.588842   -3.014366    1.022255
 N   -2.679159   -0.275625    0.753427
 C   -2.862091    1.081217    0.232054
 C   -1.696599    1.286517   -0.753919
 O   -1.686042    0.668894   -1.817577
 C   -2.993392    2.083901    1.365134
 O   -1.824084    2.010023    2.181510
 N   -0.642261    2.035449   -0.328756
 C    0.670309    1.706120   -0.846454
 C    1.206372    0.411849   -0.170122
 O    0.578110   -0.178510    0.706966
 C    1.611299    2.909889   -0.717846
 O    2.728440    2.635898   -1.565347
 C    2.070292    3.190401    0.708517
 N    2.405247    0.002791   -0.640128
 C    3.102790   -1.170381   -0.162515
 C    2.371436   -2.472115   -0.471964
 O    1.399003   -2.536306   -1.189817
 C    3.439929   -1.103834    1.331261
 O    4.236341   -2.241044    1.608742
 H   -1.230097   -2.838283   -2.048459
 H   -1.551952   -1.208031   -1.744303
 H   -0.336458   -2.028619   -0.911357
 H   -2.940447   -3.279390   -0.648180
 H   -1.110065   -3.980805    0.833616
 H   -2.311338   -3.149412    1.830456
 H   -0.818363   -2.312849    1.354578
 H   -1.756063   -0.430314    1.149807
 H   -3.784969    1.051952   -0.351333
 H   -3.884163    1.821517    1.949094
 H   -3.127264    3.093630    0.951792
 H   -1.931771    2.606023    2.931509
 H   -0.673189    2.265980    0.661432
 H    0.553469    1.504801   -1.916774
 H    1.062294    3.774385   -1.115751
 H    3.395131    3.315272   -1.403929
 H    2.650635    2.347342    1.099657
 H    1.224917    3.369011    1.381480
 H    2.703706    4.084974    0.735687
 H    2.877541    0.641313   -1.267234
 H    4.052943   -1.225397   -0.705289
 H    2.803232   -3.381187   -0.017679
 H    2.510085   -1.088914    1.913234
 H    3.988956   -0.172212    1.534786
 H    4.312224   -2.330825    2.565664
