43 
4jju_ligand_ani.xyz
 C   -5.302556    0.159499    0.262613
 C   -5.953575    1.207496   -0.366709
 C   -5.389585    2.467576   -0.250701
 C   -4.224398    2.691397    0.462158
 C   -3.605954    1.607000    1.075941
 C   -4.122911    0.313481    0.985853
 C   -3.416297   -0.891757    1.580418
 N   -2.423509   -2.964782   -1.263315
 C   -3.017356   -2.458596   -0.243650
 N   -2.501358   -1.553479    0.649374
 C   -1.200874   -1.070734    0.449930
 C   -0.490287   -1.559695   -0.653542
 C    0.808633   -1.102777   -0.910772
 C    1.386551   -0.191300   -0.061753
 C    0.696942    0.296418    1.048926
 C   -0.593071   -0.141555    1.303254
 C   -1.114574   -2.556164   -1.557176
 O   -0.522204   -3.005364   -2.517427
 F    4.601153    1.544125   -1.941671
 O    2.650061    0.304219   -0.349444
 C    3.721432   -0.233752    0.280836
 N    3.595235   -1.350984    0.962901
 C    4.701607   -1.849336    1.529243
 C    5.948867   -1.255994    1.438646
 C    6.064253   -0.069345    0.720027
 C    4.931988    0.459001    0.126785
 C    4.969964    1.734763   -0.665253
 F   -5.998041    3.503475   -0.850536
 F    6.214789    2.254615   -0.683246
 F    4.156614    2.671152   -0.148773
 F   -5.850665   -1.071572    0.164177
 H   -6.868199    1.041171   -0.924536
 H   -3.818427    3.694662    0.530904
 H   -2.690087    1.776169    1.637616
 H   -4.155029   -1.633570    1.893405
 H   -2.857601   -0.611658    2.474163
 H   -4.039844   -2.766364   -0.029093
 H    1.338320   -1.481095   -1.777660
 H    1.179190    1.015446    1.702705
 H   -1.108022    0.249552    2.173939
 H    4.568983   -2.774938    2.083765
 H    6.810865   -1.706682    1.918569
 H    7.016993    0.441268    0.618461
