45 
4jlj_ligand_xtb.xyz
 F    5.549477    4.389491    0.448608
 C    5.901376    3.110110    0.107141
 C    4.676481    2.202298    0.172550
 O    5.124489    0.907660   -0.152238
 C    4.219421   -0.112869   -0.139308
 C    2.878237    0.019177    0.147224
 C    4.749018   -1.388657   -0.451210
 O    6.078872   -1.419107   -0.723893
 C    6.667013   -2.653345   -1.054202
 C    3.903752   -2.487445   -0.457351
 C    2.557998   -2.346684   -0.164410
 C    2.032290   -1.098508    0.137588
 C    0.635270   -0.911591    0.438451
 N    0.082719    0.223069    0.704282
 S   -0.499480   -2.263982    0.474319
 C   -1.740564   -1.148947    0.871579
 C   -1.245185    0.121044    0.948842
 C   -2.037352    1.342248    1.237782
 S   -2.892775    1.956411   -0.270130
 C   -4.338059    0.969591   -0.262774
 N   -5.109609    1.122391   -1.320810
 N   -4.549812    0.178623    0.773431
 C   -5.664370   -0.562671    0.739199
 N   -5.833045   -1.432828    1.775114
 C   -6.557163   -0.489785   -0.325119
 C   -6.231364    0.395967   -1.354037
 N   -7.048527    0.607939   -2.416226
 H    6.667229    2.779114    0.814326
 H    6.312463    3.140340   -0.905673
 H    3.916912    2.550761   -0.540493
 H    4.250786    2.231868    1.185100
 H    2.437743    0.973155    0.382394
 H    6.583253   -3.372612   -0.232924
 H    6.223630   -3.081691   -1.959023
 H    7.718317   -2.437153   -1.236779
 H    4.285724   -3.468008   -0.691270
 H    1.915498   -3.214232   -0.173865
 H   -2.751311   -1.470727    1.014737
 H   -1.379892    2.151762    1.546075
 H   -2.818424    1.153540    1.970380
 H   -5.255190   -1.276467    2.583980
 H   -6.752210   -1.806311    1.936277
 H   -7.454408   -1.085671   -0.352020
 H   -6.663250    1.148122   -3.171677
 H   -7.765865   -0.062473   -2.627198
