51 
4jlm_ligand_dft.xyz
 F    5.096641    4.737019    1.041961
 C    5.722059    3.567927    0.654700
 C    4.666617    2.486407    0.512753
 O    5.355042    1.318875    0.125164
 C    4.630766    0.189248   -0.072631
 C    3.260407    0.094885    0.078378
 C    5.378358   -0.947666   -0.461720
 O    6.711777   -0.754929   -0.583006
 C    7.499522   -1.855960   -0.973133
 C    4.717287   -2.147674   -0.686228
 C    3.332671   -2.234838   -0.530919
 C    2.595502   -1.122260   -0.150639
 C    1.137202   -1.158124    0.025752
 N    0.434956   -0.139205    0.428058
 S    0.176214   -2.581548   -0.294262
 C   -1.254294   -1.711181    0.151964
 C   -2.614060   -2.347754    0.148102
 C   -3.044794   -2.853639    1.529704
 C   -0.904754   -0.437525    0.506476
 C   -1.844220    0.634691    0.969963
 S   -2.623908    1.591995   -0.385866
 C   -4.328653    1.112594   -0.268721
 N   -4.703799    0.228716    0.647694
 N   -5.093284    1.728827   -1.163467
 C   -6.395799    1.403124   -1.139487
 N   -7.174627    2.008164   -2.081773
 C   -6.919393    0.476223   -0.231608
 C   -6.009158   -0.096902    0.653112
 N   -6.372676   -1.058919    1.556315
 H    6.459414    3.286263    1.413000
 H    6.233307    3.732423   -0.298967
 H    3.926358    2.781072   -0.242809
 H    4.147055    2.342335    1.469397
 H    2.663654    0.949464    0.373557
 H    7.433654   -2.676016   -0.246220
 H    7.209234   -2.227562   -1.964489
 H    8.526340   -1.490803   -1.011868
 H    5.270278   -3.030717   -0.983990
 H    2.846015   -3.189033   -0.711538
 H   -2.636248   -3.173679   -0.570938
 H   -3.341874   -1.607806   -0.196660
 H   -2.360375   -3.621686    1.904615
 H   -3.055962   -2.030738    2.252130
 H   -4.052855   -3.278769    1.479678
 H   -1.287671    1.350138    1.578070
 H   -2.668878    0.229059    1.559529
 H   -6.754427    2.790581   -2.560215
 H   -8.172453    2.037742   -1.950245
 H   -7.967692    0.198622   -0.235814
 H   -5.700945   -1.238844    2.287658
 H   -7.342746   -1.126486    1.820555
