76 
4jmu_ligand_ani.xyz
 C   -2.906772   -1.248313    0.654229
 C   -1.684843   -1.639453    0.082136
 C   -1.611294   -1.972264   -1.263277
 C   -2.753968   -1.936241   -2.057924
 C   -3.961560   -1.549352   -1.496000
 C   -4.055982   -1.216253   -0.144474
 O   -0.466212   -2.433899   -1.873237
 C    0.774647   -1.994850   -1.479242
 C    1.813658   -2.917236   -1.560474
 C    3.103809   -2.527398   -1.241906
 C    3.375991   -1.210098   -0.856039
 C    2.332713   -0.287384   -0.789309
 C    1.036089   -0.683679   -1.097866
 C   -2.920066   -0.825627    2.105204
 O   -2.172041   -1.606691    2.918215
 O   -3.518893    0.111811    2.568212
 N   -5.328704   -0.842638    0.386696
 C   -6.256285   -1.873103    0.895933
 C   -6.406781   -3.029979   -0.084541
 C   -5.843603   -2.355488    2.285565
 C   -5.649015    0.473207    0.671386
 C   -4.758289    1.584416    0.124958
 O   -6.667596    0.748375    1.285887
 C   -5.182707    1.904260   -1.319329
 C   -4.384906    3.080487   -1.881099
 C   -4.495682    4.323880   -0.992252
 C   -4.064080    3.985940    0.439069
 C   -4.859929    2.818293    1.022183
 C   -3.685948    5.489069   -1.559005
 N    4.716318   -0.883584   -0.566026
 C    5.242362    0.323994   -0.182535
 O    4.577404    1.329210    0.012456
 C    6.729085    0.334622    0.020974
 C    7.254014    1.319945    0.850469
 C    8.620090    1.403002    1.097175
 C    9.481196    0.494148    0.483560
 C    8.968005   -0.485009   -0.375911
 C    7.606192   -0.561614   -0.600728
 O   10.828359    0.483017    0.650251
 C   11.385696    1.452036    1.510622
 H   -0.779721   -1.632321    0.683353
 H   -2.679276   -2.217006   -3.102246
 H   -4.860469   -1.519062   -2.107178
 H    1.596013   -3.932857   -1.877704
 H    3.912358   -3.252449   -1.305629
 H    2.542793    0.729076   -0.487031
 H    0.223623    0.034384   -1.027822
 H   -1.806408   -2.341716    2.405160
 H   -7.213846   -1.356086    0.986221
 H   -6.760240   -2.678483   -1.059843
 H   -5.456841   -3.556934   -0.232021
 H   -7.138769   -3.750312    0.297571
 H   -4.857314   -2.837195    2.270689
 H   -5.810012   -1.516553    2.986473
 H   -6.570935   -3.086646    2.657098
 H   -3.712695    1.253683    0.103565
 H   -6.254576    2.147053   -1.325587
 H   -5.049349    1.013336   -1.946275
 H   -4.721649    3.317892   -2.898729
 H   -3.324205    2.795136   -1.960334
 H   -5.557433    4.617341   -0.960016
 H   -4.166111    4.872804    1.078203
 H   -2.993000    3.726465    0.433176
 H   -4.496221    2.568766    2.024922
 H   -5.919096    3.084849    1.120893
 H   -2.620752    5.229166   -1.603301
 H   -4.009807    5.743506   -2.574571
 H   -3.785207    6.385028   -0.935776
 H    5.348247   -1.668885   -0.562635
 H    6.568460    2.030958    1.303754
 H    8.996931    2.176260    1.757816
 H    9.659796   -1.177287   -0.846649
 H    7.236547   -1.310362   -1.299423
 H   11.184377    2.470368    1.152745
 H   11.000358    1.349359    2.533632
 H   12.461929    1.273941    1.509226
