28 
4jmx_ligand_ani.xyz
 C   -3.079210    0.829598   -0.704173
 C    1.306120    0.928776    0.008522
 C   -2.114251   -0.333960   -0.588367
 C   -0.692887    0.094292   -1.008015
 C    1.487572   -0.364236   -0.333701
 O   -2.871383    1.793312   -1.406629
 C   -2.242490   -1.070100    0.755585
 O   -3.590032   -1.534185    0.777289
 C   -1.953207   -0.242127    2.002365
 N    0.301369   -0.941525   -0.779905
 C    2.723237   -1.149738   -0.208186
 O    2.594673   -2.401253   -0.700307
 O    3.767053   -0.752118    0.270857
 S    2.402252    2.065820    0.739341
 C   -0.103877    1.334614   -0.291823
 H   -4.017896    0.745257   -0.123596
 H   -2.466044   -1.065956   -1.332395
 H   -0.759076    0.328504   -2.081488
 H   -1.552977   -1.923861    0.725079
 H   -3.741544   -1.942012    1.639089
 H   -2.586453    0.652664    2.037064
 H   -0.903113    0.056954    2.054565
 H   -2.162269   -0.839416    2.898883
 H    0.373021   -1.693694   -1.447719
 H    3.456202   -2.834819   -0.576632
 H    3.443828    1.217715    0.808206
 H   -0.170833    2.229016   -0.919992
 H   -0.646996    1.598453    0.625879
