60 
4jn2_ligand_ani.xyz
 C    5.065572   -0.699791   -0.938598
 N    4.522253   -1.961964   -1.234769
 C    3.893393   -2.734196   -0.190054
 C    2.430675   -2.420790   -0.056781
 N    1.737746   -1.787789   -0.966729
 C    0.446824   -1.753719   -0.462125
 C   -0.716194   -1.207144   -1.000455
 C   -1.887137   -1.275584   -0.257808
 C   -3.121952   -0.692474   -0.877607
 O   -3.298825   -0.752357   -2.082943
 N   -4.089262   -0.112616   -0.055490
 C   -3.822019    0.689333    1.073428
 C   -2.557005    1.258376    1.306137
 C   -2.390565    2.040309    2.436685
 C   -3.463751    2.245565    3.300526
 C   -4.672416    1.658333    2.969444
 N   -4.866020    0.916640    1.877526
 C   -5.456025   -0.095239   -0.598309
 C   -5.749753    1.186984   -1.386188
 C   -7.192842    1.348498   -1.843524
 O   -7.788929    2.389439   -1.793353
 O   -7.794792    0.247339   -2.351399
 C   -1.921790   -1.940755    0.987584
 C   -0.782095   -2.508435    1.524933
 C    0.397390   -2.401819    0.784647
 N    1.687819   -2.839837    1.019963
 C    2.157630   -3.632743    2.135485
 C    4.824362   -0.020540    0.262611
 C    5.431456    1.202314    0.513243
 C    6.282471    1.791583   -0.421911
 C    6.926829    3.112464   -0.150647
 N    7.278546    3.324780    1.174026
 N    7.121161    4.037109   -1.009769
 C    6.503106    1.123731   -1.627556
 C    5.908236   -0.100112   -1.883794
 H    3.905613   -1.915464   -2.040527
 H    4.430904   -2.582339    0.754951
 H    4.012614   -3.801478   -0.433153
 H   -0.717229   -0.743105   -1.981999
 H   -1.733636    1.083694    0.623455
 H   -1.421846    2.486141    2.647504
 H   -3.364759    2.848788    4.196972
 H   -5.545394    1.795314    3.604899
 H   -6.136223   -0.204397    0.249700
 H   -5.541652   -0.972395   -1.243883
 H   -5.104192    1.215151   -2.273386
 H   -5.519548    2.062921   -0.775186
 H   -7.191659   -0.507627   -2.336408
 H   -2.860375   -2.007134    1.529710
 H   -0.809062   -3.011333    2.487494
 H    2.681539   -4.526517    1.780174
 H    2.827817   -3.058874    2.785337
 H    1.296794   -3.955566    2.722351
 H    4.145897   -0.440071    1.000223
 H    5.238538    1.718690    1.450784
 H    7.860293    4.144618    1.290226
 H    7.619885    2.514874    1.673111
 H    6.773151    3.758044   -1.925984
 H    7.169148    1.558906   -2.371159
 H    6.091650   -0.615363   -2.823158
