46 
4jp9_ligand_ani.xyz
 C   -1.313714   -0.790215   -0.451732
 C   -1.134965   -2.173217   -0.573505
 C    0.133416   -2.724499   -0.616195
 C    1.257177   -1.902443   -0.514379
 C    1.106730   -0.520368   -0.378636
 C   -0.177333    0.010610   -0.354321
 O    2.474822   -2.498732   -0.598223
 C    3.572373   -1.833386    0.054894
 C    3.622301   -0.368456   -0.410157
 C    2.302321    0.408416   -0.272318
 C   -2.664746   -0.183548   -0.453994
 C    4.820992   -2.564045   -0.431808
 C    3.422641   -1.986234    1.563609
 C    2.248207    1.225110    1.036150
 N    2.102183    2.550720    0.692497
 C    2.007735    2.724875   -0.691661
 N    2.257439    1.490809   -1.256043
 N    1.744177    3.776162   -1.356904
 O    2.311778    0.805701    2.170789
 C    1.929882    3.614064    1.654705
 C   -3.717327   -0.766209    0.258866
 C   -4.974162   -0.177250    0.237594
 C   -5.221394    0.976954   -0.497217
 C   -4.174085    1.551353   -1.211121
 C   -2.905684    0.984564   -1.181886
Cl   -6.272619   -0.903793    1.143570
 H   -2.002832   -2.822333   -0.666385
 H    0.281500   -3.794206   -0.722448
 H   -0.292576    1.086546   -0.231645
 H    4.415164    0.167892    0.120441
 H    3.869822   -0.353053   -1.476597
 H    4.882682   -2.524788   -1.523636
 H    4.790435   -3.613595   -0.123559
 H    5.721899   -2.103596   -0.012269
 H    3.364851   -3.048293    1.821964
 H    4.290573   -1.545254    2.065022
 H    2.530519   -1.475369    1.934293
 H    1.854108    1.326946   -2.167267
 H    1.611319    4.574253   -0.740288
 H    2.684038    4.395212    1.510229
 H    2.047461    3.178098    2.646888
 H    0.930505    4.058672    1.574657
 H   -3.552162   -1.661391    0.852172
 H   -6.214699    1.413995   -0.506341
 H   -4.348057    2.454618   -1.788785
 H   -2.091601    1.434081   -1.745829
