46 
4jp9_ligand_xtb.xyz
 C   -1.306577   -0.755752   -0.444645
 C   -1.133262   -2.133718   -0.578524
 C    0.126894   -2.686836   -0.584466
 C    1.261053   -1.883780   -0.450922
 C    1.102498   -0.503066   -0.331508
 C   -0.174196    0.040064   -0.328791
 O    2.458409   -2.506306   -0.490103
 C    3.595077   -1.807380    0.026865
 C    3.617125   -0.356354   -0.472494
 C    2.303273    0.416776   -0.264205
 C   -2.647963   -0.155749   -0.439019
 C    4.808690   -2.553079   -0.532533
 C    3.582929   -1.898978    1.552934
 C    2.257582    1.233986    1.037095
 N    2.021841    2.524167    0.682873
 C    1.901520    2.681304   -0.712659
 N    2.204592    1.472760   -1.254667
 N    1.600887    3.703847   -1.382992
 O    2.378332    0.835525    2.169681
 C    1.883084    3.595026    1.635459
 C   -3.693819   -0.784858    0.232500
 C   -4.954480   -0.216901    0.230962
 C   -5.206053    0.973627   -0.431508
 C   -4.165781    1.597358   -1.098911
 C   -2.899295    1.043349   -1.103592
Cl   -6.240828   -1.009484    1.075968
 H   -1.995655   -2.771585   -0.698122
 H    0.270013   -3.749958   -0.696054
 H   -0.288502    1.109764   -0.224418
 H    4.437962    0.174375    0.010740
 H    3.808608   -0.368106   -1.548857
 H    4.780674   -2.556415   -1.619239
 H    4.793285   -3.582720   -0.186852
 H    5.727459   -2.079503   -0.200145
 H    3.516545   -2.942676    1.850997
 H    4.494292   -1.471491    1.960690
 H    2.736758   -1.360667    1.969461
 H    1.950924    1.280137   -2.208408
 H    1.444349    4.544809   -0.842137
 H    2.640747    4.361450    1.460219
 H    2.019076    3.166808    2.627553
 H    0.889501    4.043579    1.567079
 H   -3.518579   -1.703084    0.770890
 H   -6.196041    1.401013   -0.423731
 H   -4.349681    2.523418   -1.622760
 H   -2.102617    1.532668   -1.643709
