47 
4jpc_ligand_xtb.xyz
 C    1.407937   -0.828436   -0.181537
 C    1.227364   -2.211221   -0.219013
 C   -0.028760   -2.759182   -0.090032
 C   -1.147894   -1.944924    0.091107
 C   -0.975814   -0.562241    0.166325
 C    0.293815   -0.023523    0.020817
 O   -2.343156   -2.558763    0.220189
 C   -3.515467   -1.778202   -0.038936
 C   -3.443163   -0.433790    0.697287
 C   -2.143846    0.354740    0.458648
 C   -2.251426    1.413804   -0.652710
 N   -1.916059    2.603696   -0.094345
 C   -1.609797    2.495328    1.257613
 N   -1.865503    1.195788    1.611836
 C    2.737636   -0.227466   -0.350283
 C   -1.861002    3.852942   -0.806652
 N   -1.213414    3.489274    1.924450
 C    3.857459   -0.808944    0.233502
 C    5.113737   -0.230364    0.069462
 C    5.263943    0.934570   -0.683344
 C    4.149489    1.509382   -1.264666
 C    2.899978    0.937857   -1.100460
 O   -2.544969    1.241421   -1.810821
 C   -3.674687   -1.603797   -1.549373
 C   -4.675051   -2.604072    0.520387
 C    6.242872   -0.830267    0.674316
 N    7.157003   -1.318219    1.164751
 H    2.075598   -2.858416   -0.383301
 H   -0.179273   -3.826209   -0.131565
 H    0.421322    1.047711    0.096447
 H   -4.301159    0.175823    0.412378
 H   -3.507346   -0.627943    1.771510
 H   -1.463517    0.794965    2.443571
 H   -2.589861    4.549260   -0.392434
 H   -0.867419    4.288619   -0.704433
 H   -2.084675    3.648047   -1.852089
 H   -1.022432    3.298785    2.900637
 H    3.758010   -1.702074    0.832913
 H    6.243197    1.372556   -0.805259
 H    4.255731    2.408025   -1.853840
 H    2.039959    1.385288   -1.576282
 H   -4.620624   -1.119105   -1.772059
 H   -3.654196   -2.579458   -2.029338
 H   -2.874829   -0.993777   -1.959034
 H   -5.614572   -2.079517    0.375475
 H   -4.528602   -2.789558    1.581512
 H   -4.718426   -3.561207    0.008637
