52 
4jps_ligand_xtb.xyz
 C   -0.555432    1.580134   -0.180125
 C    1.570098    1.034039   -0.204452
 C    3.804356    0.165564   -0.273684
 O    7.365304   -1.379300    1.499340
 C   -1.903395   -1.747592   -1.212804
 C   -3.082586   -2.456935   -1.323881
 C   -4.228096   -0.976673   -0.031109
 C   -3.093534   -0.201932    0.165550
 C   -5.561924   -0.609894    0.607271
 C   -5.460635   -0.665592    2.135922
 C   -6.669949   -1.542559    0.110348
 C   -5.941344    0.815705    0.191287
 F   -5.879868    0.998985   -1.136759
 F   -7.193059    1.136404    0.558772
 F   -5.160010    1.769876    0.730705
 N   -4.219751   -2.080486   -0.764715
 C   -1.899821   -0.570247   -0.459820
 C   -0.697811    0.222901   -0.332292
 C   -1.628479    2.613717   -0.144937
 S    0.879897   -0.542494   -0.411876
 N    0.732242    2.011014   -0.110763
 N    2.925668    1.218691   -0.144115
 O    3.388195   -0.973268   -0.461692
 N    5.110007    0.464182   -0.168609
 C    6.141318   -0.538643   -0.421560
 C    6.359693   -1.427929    0.827036
 N    5.332598   -2.257306    1.060022
 C    7.380253    0.294270   -0.732865
 C    7.178447    1.524526    0.148473
 C    5.675613    1.784844    0.047988
 H   -1.002537   -2.085408   -1.700882
 H   -3.132197   -3.373951   -1.896105
 H   -3.115566    0.663800    0.803293
 H   -6.409183   -0.377449    2.584441
 H   -5.221663   -1.680713    2.441017
 H   -4.684490    0.001056    2.503869
 H   -6.406318   -2.567558    0.348183
 H   -7.616305   -1.291515    0.583277
 H   -6.774277   -1.460871   -0.968256
 H   -2.475654    2.319535   -0.759249
 H   -1.218765    3.551434   -0.511176
 H   -1.976685    2.775749    0.874878
 H    3.237024    2.169656   -0.023020
 H    5.826716   -1.183288   -1.248604
 H    4.480910   -2.186628    0.515065
 H    5.358767   -2.849925    1.873918
 H    8.286835   -0.246759   -0.473273
 H    7.404355    0.567088   -1.787945
 H    7.765589    2.380514   -0.175551
 H    7.448339    1.274102    1.173649
 H    5.450526    2.438026   -0.805312
 H    5.278695    2.237286    0.961354
