52 
4jq7_ligand_ani.xyz
 C    0.596176    1.422853    0.029981
 C    1.400862    0.224766    0.125042
 N   -1.094847    3.089862   -0.122239
 C   -0.112848    3.973865   -0.326810
 C   -0.765065    1.802907    0.034441
 C    1.477614    2.461075   -0.232046
 C    2.697833    0.640278   -0.078366
 C   -4.551207   -0.790935    0.496623
 C   -5.217633   -1.952761    0.118732
 C   -5.292522   -2.321213   -1.221804
 C   -4.696110   -1.518403   -2.189393
 C   -4.027368   -0.358404   -1.809706
 C   -3.942856    0.015738   -0.466699
 C   -3.154651    1.259909   -0.103636
 C   -3.756837    2.076416    1.053307
 O   -3.563315    1.471412    2.311854
 N   -1.765957    0.901601    0.198785
 N    1.193574    3.742754   -0.404602
 O    2.732030    1.989746   -0.310184
 C    4.006722   -0.009547   -0.080027
 C    5.088446    0.624125   -0.708819
 C    6.336647    0.018634   -0.734693
 C    6.531460   -1.216436   -0.120601
 C    5.469143   -1.840238    0.525696
 C    4.216270   -1.239405    0.550093
 C    0.908932   -1.148664    0.312224
 C    0.077337   -1.469194    1.388569
 C   -0.428628   -2.756214    1.536156
 C   -0.101500   -3.744169    0.613032
 C    0.748275   -3.442709   -0.447495
 C    1.259403   -2.157327   -0.590573
 H   -0.425806    5.009679   -0.455680
 H   -4.511285   -0.501517    1.544509
 H   -5.684711   -2.573459    0.879304
 H   -5.815155   -3.229954   -1.510226
 H   -4.749500   -1.794718   -3.239839
 H   -3.558989    0.268097   -2.566737
 H   -3.138076    1.924180   -0.976264
 H   -4.837840    2.169669    0.899398
 H   -3.308735    3.078469    1.025848
 H   -2.619762    1.255030    2.345551
 H   -1.502060   -0.072713    0.102437
 H    4.941111    1.594765   -1.175727
 H    7.165849    0.515215   -1.233892
 H    7.510841   -1.687039   -0.141978
 H    5.615243   -2.799527    1.014435
 H    3.396814   -1.727647    1.069824
 H   -0.155732   -0.706822    2.128198
 H   -1.077023   -2.987153    2.375994
 H   -0.499969   -4.749096    0.724346
 H    1.018906   -4.212249   -1.164146
 H    1.949400   -1.931678   -1.401695
