52 
4jq7_ligand_xtb.xyz
 C    0.652435    1.473087   -0.028143
 C    1.437452    0.281260    0.032782
 N   -1.033662    3.130876   -0.081001
 C   -0.066529    4.015871   -0.258186
 C   -0.709397    1.839353    0.020046
 C    1.562580    2.521484   -0.241219
 C    2.738806    0.688489   -0.144621
 C   -3.711266   -1.202660    0.108220
 C   -4.459074   -2.250488   -0.398820
 C   -5.395807   -2.022397   -1.391765
 C   -5.585382   -0.738338   -1.873228
 C   -4.836659    0.309727   -1.368071
 C   -3.890572    0.088121   -0.375715
 C   -3.094652    1.240620    0.178553
 C   -3.541201    1.592034    1.621720
 O   -3.170100    0.617447    2.559979
 N   -1.682156    0.924266    0.172975
 N    1.230934    3.802406   -0.358580
 O    2.809816    2.048235   -0.313150
 C    3.987395   -0.049589   -0.153351
 C    5.135655    0.551377   -0.674490
 C    6.335428   -0.131614   -0.691794
 C    6.411891   -1.420619   -0.189385
 C    5.280057   -2.019780    0.339765
 C    4.076046   -1.343346    0.363309
 C    0.882297   -1.063522    0.211665
 C    0.162528   -1.368494    1.365864
 C   -0.426852   -2.611240    1.517468
 C   -0.310189   -3.559618    0.515038
 C    0.408526   -3.265745   -0.632586
 C    1.002341   -2.026520   -0.786666
 H   -0.384390    5.046607   -0.336588
 H   -3.002421   -1.396014    0.899413
 H   -4.310064   -3.248355   -0.013524
 H   -5.978625   -2.841298   -1.786659
 H   -6.316832   -0.552323   -2.645700
 H   -4.986079    1.310488   -1.746988
 H   -3.237737    2.137530   -0.433249
 H   -4.629899    1.656855    1.661666
 H   -3.112194    2.568007    1.884093
 H   -2.207070    0.558824    2.560309
 H   -1.417560   -0.049510    0.172294
 H    5.070903    1.555276   -1.064936
 H    7.216080    0.342711   -1.099216
 H    7.350448   -1.954331   -0.204532
 H    5.336947   -3.020317    0.742668
 H    3.205079   -1.811358    0.794526
 H    0.088172   -0.630896    2.153678
 H   -0.977052   -2.838010    2.419039
 H   -0.774280   -4.527429    0.630079
 H    0.505056   -4.005531   -1.413134
 H    1.562833   -1.793928   -1.679971
