71 
4jq8_ligand_dft.xyz
 C    5.096208    0.389996   -2.872244
 N    4.538886   -0.443836   -1.770344
 C    5.413965   -0.394676   -0.569685
 C    4.268594   -1.836052   -2.257556
 C    3.427870   -2.690067   -1.319177
 C    2.008605   -2.141864   -1.186306
 O    1.692317   -1.108743   -1.763946
 N    1.191652   -2.858455   -0.376237
 C   -0.053890   -2.464298    0.182192
 C   -0.722656   -1.304240   -0.209814
 C   -0.570358   -3.255208    1.209876
 C   -1.736799   -2.866884    1.856683
 C   -2.377630   -1.682772    1.511294
 C   -1.872677   -0.893562    0.474249
 C   -2.500129    0.392765    0.109806
 C   -1.840670    1.676778   -0.000013
 C   -3.817543    0.644900   -0.158804
 C   -5.009826   -0.201716   -0.240325
 C   -4.916878   -1.543137   -0.630060
 C   -6.058920   -2.331424   -0.693982
 C   -7.303505   -1.789371   -0.382609
 C   -7.403645   -0.450999   -0.011889
 C   -6.264775    0.341748    0.058901
 O   -4.026895    1.976589   -0.412352
 C   -2.835258    2.595605   -0.319274
 N   -2.699394    3.896471   -0.522107
 C   -1.442224    4.294768   -0.383828
 N   -0.376175    3.548036   -0.054970
 C   -0.559295    2.244799    0.154678
 N    0.534673    1.472993    0.490525
 C    1.828037    2.068976    0.799110
 C    2.494542    2.506956   -0.517102
 O    2.609381    1.419065   -1.422639
 C    2.718504    1.092536    1.550032
 C    3.840455    1.594539    2.218401
 C    4.702507    0.749725    2.908816
 C    4.451975   -0.621230    2.957264
 C    3.339644   -1.132415    2.296984
 C    2.490855   -0.283851    1.585993
 H    6.029512   -0.053470   -3.224908
 H    5.272731    1.395009   -2.490529
 H    4.363003    0.437784   -3.677052
 H    3.641952    0.036699   -1.515036
 H    5.509493    0.645059   -0.255910
 H    6.393761   -0.806356   -0.820544
 H    4.956796   -0.953874    0.245064
 H    3.752887   -1.731236   -3.213193
 H    5.241701   -2.303370   -2.432168
 H    3.882488   -2.779031   -0.325929
 H    3.400466   -3.703205   -1.737557
 H    1.573029   -3.714268    0.003722
 H   -0.346767   -0.712585   -1.031157
 H   -0.060087   -4.165908    1.514238
 H   -2.133794   -3.483775    2.656044
 H   -3.269984   -1.366778    2.040975
 H   -3.954656   -1.965066   -0.900461
 H   -5.977966   -3.369447   -1.001114
 H   -8.194860   -2.406514   -0.437303
 H   -8.372084   -0.020378    0.221458
 H   -6.343551    1.385599    0.343840
 H   -1.246748    5.350662   -0.546604
 H    0.290819    0.647528    1.017154
 H    1.694638    2.973500    1.407169
 H    3.506637    2.872937   -0.324260
 H    1.905971    3.310340   -0.967101
 H    1.747110    0.971722   -1.456752
 H    4.029079    2.665663    2.216463
 H    5.558000    1.165383    3.431942
 H    5.106769   -1.276978    3.522367
 H    3.114543   -2.194747    2.346815
 H    1.632688   -0.714599    1.084096
