70 
4jr0_ligand_ani.xyz
 C   -5.725525   -1.721352    0.857945
 O   -5.657750   -0.673859    1.494272
 C   -7.033862   -2.408063    0.552053
 N   -4.608928   -2.364191    0.402631
 C   -3.315821   -1.722796    0.465831
 C   -3.077547   -0.858292   -0.786705
 O   -3.594271   -1.117098   -1.862410
 C   -2.205062   -2.775220    0.606686
 C   -0.844912   -2.135433    0.761945
 O    0.109459   -2.742430    0.073734
 O   -0.651066   -1.132076    1.433072
 N   -2.199567    0.167886   -0.602935
 C   -1.846381    1.068773   -1.679946
 C   -0.453348    1.690117   -1.496952
 O   -0.153224    2.721118   -2.083376
 C   -2.904048    2.154091   -1.929595
 C   -3.233126    3.021430   -0.707377
 C   -3.833787    2.232685    0.439753
 O   -3.365738    2.175228    1.555625
 O   -4.951149    1.599559    0.067712
 N    0.411809    1.028741   -0.686235
 C    1.787119    1.426341   -0.517285
 C    2.670273    0.170982   -0.499742
 O    2.231992   -0.943243   -0.212861
 C    2.018609    2.247659    0.777233
 C    1.598037    1.469509    2.026068
 C    1.293763    3.590537    0.696772
 C    4.856090   -1.877242   -1.391606
 N    3.974991    0.377946   -0.803441
 O    5.998101   -2.675660   -1.100004
 C    5.024750   -0.607402   -0.551589
 C    5.139212   -0.961697    0.938340
 C    5.424396    0.250932    1.790961
 O    5.568190    1.385653    1.389078
 O    5.515452   -0.059721    3.095535
 C    4.764627   -1.600101   -2.884489
 H   -7.838563   -1.865036    1.047414
 H   -7.018506   -3.443386    0.904675
 H   -7.219483   -2.418621   -0.527112
 H   -4.738591   -2.995029   -0.379212
 H   -3.315663   -1.089144    1.357305
 H   -2.190695   -3.448843   -0.255125
 H   -2.412231   -3.366061    1.504649
 H    0.926637   -2.193293    0.120148
 H   -1.827966    0.326799    0.324954
 H   -1.795126    0.453257   -2.587938
 H   -3.813902    1.652159   -2.270328
 H   -2.538343    2.794737   -2.735679
 H   -2.342503    3.533137   -0.331096
 H   -3.958180    3.789903   -0.999780
 H   -5.218788    0.982299    0.785135
 H    0.145635    0.159665   -0.239225
 H    2.062082    2.051388   -1.374210
 H    3.100971    2.436153    0.834447
 H    1.869416    2.026183    2.929165
 H    2.076557    0.485400    2.075065
 H    0.513882    1.309967    2.041943
 H    0.206909    3.445000    0.710873
 H    1.541675    4.130423   -0.223163
 H    1.558469    4.221187    1.551817
 H    3.943841   -2.385941   -1.052713
 H    4.290461    1.336560   -0.758470
 H    5.871943   -3.533006   -1.523784
 H    5.958647   -0.132098   -0.864252
 H    5.934266   -1.700626    1.089092
 H    4.208857   -1.423400    1.292246
 H    5.716688    0.770147    3.559478
 H    4.650454   -2.541803   -3.434033
 H    3.905258   -0.965876   -3.115862
 H    5.677024   -1.107397   -3.239376
