74 
4jrv_ligand_ani.xyz
 C    4.592547   -0.727968   -3.012262
 N    3.706084   -1.863936   -2.685575
 C    3.056280   -2.342623   -3.914299
 C    4.431915   -2.962918   -1.994117
 C    4.670156   -2.687594   -0.504453
 C    3.525074   -3.095826    0.429947
 C    2.248032   -2.267354    0.336538
 O    2.004632   -1.517622   -0.606390
 N    1.404890   -2.414079    1.396381
 C    0.123682   -1.855780    1.613778
 C   -0.495156   -0.997819    0.706269
 C   -0.536169   -2.184915    2.801780
 C   -1.791625   -1.657358    3.068947
 C   -2.410234   -0.806416    2.162027
 C   -1.767607   -0.473178    0.967098
 C   -2.434202    0.410810   -0.004007
 C   -1.870087    1.572367   -0.661290
 C   -3.744504    0.354708   -0.435749
 C   -4.885509   -0.540568   -0.233348
 C   -4.727948   -1.864613    0.186226
 C   -5.835251   -2.682990    0.377826
 C   -7.116247   -2.193529    0.146009
 C   -7.283015   -0.881948   -0.292029
 C   -6.179810   -0.064258   -0.491071
 O   -4.008662    1.399931   -1.281062
 C   -2.884812    2.114787   -1.433333
 N   -2.826598    3.178646   -2.219783
 C   -1.623112    3.742795   -2.200360
 N   -0.547005    3.369673   -1.498067
 C   -0.661458    2.306630   -0.695665
 N    0.390068    1.952858    0.080311
 C    1.624530    2.728954    0.153387
 C    2.469462    2.529059   -1.117872
 O    2.986866    1.222891   -1.246145
 C    2.383159    2.334787    1.401982
 C    3.032768    3.287805    2.182706
 C    3.776758    2.902442    3.296113
 C    3.885506    1.557425    3.635845
 C    3.245484    0.597170    2.856937
 C    2.493970    0.987823    1.753900
 H    5.394408   -1.057986   -3.685631
 H    4.013069    0.054854   -3.505720
 H    5.039272   -0.314274   -2.108380
 H    2.979597   -1.536806   -2.031011
 H    2.500286   -1.525351   -4.379040
 H    3.811012   -2.706901   -4.623054
 H    2.370101   -3.160359   -3.682831
 H    3.840904   -3.878943   -2.106529
 H    5.382874   -3.130244   -2.517584
 H    4.904411   -1.626399   -0.352050
 H    5.558583   -3.247780   -0.194101
 H    3.253148   -4.145471    0.248508
 H    3.878425   -3.050282    1.468037
 H    1.704726   -3.049836    2.120133
 H    0.009376   -0.758935   -0.221306
 H   -0.068007   -2.852171    3.522325
 H   -2.296889   -1.917074    3.994199
 H   -3.404472   -0.417737    2.367648
 H   -3.734617   -2.264631    0.364557
 H   -5.693202   -3.706979    0.711267
 H   -7.982170   -2.831913    0.299720
 H   -8.281092   -0.494859   -0.484732
 H   -6.313877    0.953517   -0.848480
 H   -1.494307    4.622098   -2.830125
 H    0.171849    1.364001    0.874169
 H    1.354912    3.793531    0.191605
 H    3.327286    3.209777   -1.073943
 H    1.851502    2.808985   -1.980710
 H    2.276504    0.583027   -1.092976
 H    2.953623    4.344049    1.929006
 H    4.273866    3.657781    3.900136
 H    4.469182    1.262272    4.504387
 H    3.319124   -0.457841    3.113556
 H    2.000372    0.235702    1.140099
