17 
4jsa_ligand_ani.xyz
 C    3.074081   -0.002912   -0.082223
 C    2.380321   -1.210283   -0.039966
 C    0.991581   -1.215271    0.041370
 C    0.315215    0.000656    0.071920
 C    0.994746    1.214640    0.038908
 C    2.383499    1.206375   -0.041244
 S   -1.458197    0.004498    0.148027
 O   -1.875875    1.291662    0.681064
 O   -1.881434   -1.255467    0.738508
 N   -1.919799   -0.036746   -1.459011
 H    4.159670   -0.004361   -0.144581
 H    2.922705   -2.151332   -0.067098
 H    0.432937   -2.145931    0.092332
 H    0.435944    2.145443    0.085978
 H    2.928044    2.146130   -0.068635
 H   -2.414526    0.814528   -1.703878
 H   -2.473220   -0.868010   -1.638638
