46 
4jt9_ligand_ani.xyz
 C    5.535667    1.699430   -0.292403
 S    6.195916    0.121426    0.201916
 N    4.830484   -0.735739    0.631276
 C    4.351359   -1.803499   -0.252242
 C    2.868528   -2.102516   -0.035123
 C    1.896309   -1.004275   -0.493409
 C    0.501062   -1.589053   -0.740065
 C   -0.469868   -0.515486   -1.206520
 N   -0.543370    0.548815   -0.206070
 C   -1.685337    1.300651   -0.084939
 C   -2.968281    0.703411    0.022778
 C   -4.065595    1.569392    0.012940
 C   -5.312235    0.859722    0.070377
 C   -5.144538   -0.487491    0.159910
 C   -6.149046   -1.583202    0.276325
 N   -7.428594   -1.240154   -0.064030
 O   -5.839968   -2.693349    0.667920
 S   -3.475294   -0.945151    0.232045
 N   -3.943740    2.914906   -0.027353
 C   -2.701101    3.346319   -0.036737
 N   -1.568470    2.627039   -0.036284
 C    0.748676    1.186256    0.026581
 C    1.765972    0.154986    0.499737
 O    6.804621   -0.481082   -0.974030
 O    6.950816    0.318634    1.428413
 H    6.378288    2.303071   -0.633579
 H    4.823029    1.550846   -1.106317
 H    5.057501    2.174128    0.567508
 H    4.903964   -0.990281    1.612622
 H    4.943498   -2.716196   -0.106179
 H    4.526277   -1.474915   -1.281364
 H    2.690381   -2.333576    1.025029
 H    2.641190   -3.023228   -0.588339
 H    2.261655   -0.597254   -1.452718
 H    0.126186   -2.035456    0.191321
 H    0.545976   -2.391387   -1.487941
 H   -1.464450   -0.930371   -1.377422
 H   -0.122142   -0.098732   -2.169719
 H   -6.262502    1.386693    0.092590
 H   -8.079155   -2.010677   -0.121228
 H   -7.590577   -0.465975   -0.688825
 H   -2.567838    4.427519   -0.043739
 H    0.615699    1.977050    0.766381
 H    1.100100    1.667919   -0.902093
 H    2.732681    0.640001    0.668298
 H    1.432933   -0.245141    1.467875
