47 
4ju3_ligand_xtb.xyz
 C   -4.436228    0.677466   -0.163323
 C   -4.513138    1.813766   -0.947427
 C   -3.778952    2.952622   -0.624248
 C   -2.969766    2.935187    0.507002
 C   -2.886849    1.802284    1.298225
 C   -3.623527    0.687621    0.953846
 S   -3.443004   -0.824361    1.884428
 O   -2.642473   -0.590531    3.047922
 O   -4.692950   -1.496418    2.028614
 N   -2.561226   -1.762203    0.777875
 C   -1.404996   -1.283250    0.207681
 C   -1.111028   -1.468114   -1.159559
 C    0.087571   -0.967761   -1.672033
 C    0.985793   -0.293575   -0.863630
 C    0.696665   -0.118976    0.490104
 C   -0.474312   -0.616236    1.012027
 C   -2.088893   -2.145186   -2.048709
 O   -1.615593   -2.680454   -3.180612
 O   -3.268135   -2.226294   -1.798393
 O    2.090352    0.256727   -1.468610
 C    3.306002    0.225558   -0.852699
 C    4.237508    1.175063   -1.270892
 C    5.509595    1.183548   -0.738375
 C    5.879327    0.238667    0.218162
 C    4.949750   -0.724241    0.608410
 C    3.673547   -0.734505    0.087738
 C    7.236649    0.167407    0.829256
 C   -3.881157    4.182051   -1.471814
 O    7.653299   -0.819373    1.371165
 O    7.993545    1.278268    0.758985
 H   -4.994736   -0.212859   -0.404339
 H   -5.145071    1.818476   -1.822795
 H   -2.399243    3.813984    0.768930
 H   -2.268838    1.769669    2.180977
 H   -3.192451   -2.208815    0.118379
 H    0.327057   -1.038238   -2.724367
 H    1.388639    0.416935    1.122265
 H   -0.707100   -0.491497    2.056485
 H   -0.653575   -2.619700   -3.252696
 H    3.943449    1.893158   -2.020033
 H    6.212778    1.919080   -1.106615
 H    5.255244   -1.467358    1.328695
 H    2.967473   -1.492158    0.392775
 H   -3.986702    3.920739   -2.521959
 H   -4.760197    4.757271   -1.181049
 H   -3.006759    4.815648   -1.348309
 H    7.530964    2.019099    0.346689
