58 
4ju6_ligand_xtb.xyz
 C    3.513267    1.356265    0.740356
 C    3.209146    2.754257    1.265059
 C    3.001141    3.741359    0.116411
 C    1.866014    3.243673   -0.778303
 C    2.167152    1.850242   -1.319329
 C    2.389013    0.860182   -0.170277
 C    2.779234   -0.481146   -0.761380
 O    3.881571   -0.688836   -1.223031
 C    2.116386   -2.736924   -1.390671
 N    1.801549   -1.434315   -0.800535
 C    0.479873   -1.217519   -0.352773
 C    0.096503   -1.488382    0.968775
 C   -1.225561   -1.311446    1.356932
 C   -2.181814   -0.862015    0.450858
 C   -1.805264   -0.608166   -0.865666
 C   -0.491507   -0.785907   -1.251630
 C    1.106513   -1.895997    1.994900
 O    0.703734   -2.866438    2.836729
 O    2.190294   -1.398608    2.101321
 O   -3.459787   -0.769130    0.907889
 C   -4.348211    0.110990    0.329148
 C   -5.675038   -0.293207    0.241776
 C   -6.623967    0.573473   -0.267498
 C   -6.257157    1.839585   -0.692269
 C   -4.936573    2.242987   -0.591913
 C   -3.978819    1.387177   -0.078819
 C    2.705677    5.143311    0.642116
 C    1.792481   -3.881327   -0.435554
 C    1.413520   -2.928437   -2.733597
 H    3.626258    0.656843    1.569627
 H    4.444298    1.361355    0.171394
 H    4.031938    3.092480    1.898036
 H    2.306683    2.723411    1.881270
 H    3.919668    3.777711   -0.479625
 H    1.719162    3.935517   -1.611235
 H    0.938508    3.215710   -0.199707
 H    3.069474    1.878745   -1.933428
 H    1.340152    1.510077   -1.948965
 H    1.468728    0.768870    0.411787
 H    3.198412   -2.699662   -1.556841
 H   -1.535775   -1.480637    2.378641
 H   -2.541847   -0.279059   -1.583346
 H   -0.204708   -0.579710   -2.270945
 H   -0.184254   -3.188867    2.631750
 H   -5.943439   -1.281978    0.579512
 H   -7.653395    0.255939   -0.335624
 H   -6.998807    2.512431   -1.094432
 H   -4.646149    3.233240   -0.909180
 H   -2.951586    1.708133    0.016224
 H    2.572499    5.842197   -0.181187
 H    1.796641    5.141733    1.240718
 H    3.523825    5.498223    1.264666
 H    2.282579   -3.727870    0.522170
 H    0.717393   -3.968984   -0.281597
 H    2.154010   -4.815389   -0.857560
 H    0.335717   -3.008040   -2.602958
 H    1.633496   -2.094973   -3.396172
 H    1.771132   -3.841307   -3.202414
