38 
4jv6_ligand_ani.xyz
 C   -0.659548    3.155976    1.131794
 C   -0.795261    4.373192    0.472085
 C   -0.349608    4.508024   -0.838771
 C    0.230855    3.417768   -1.479595
 C    0.364508    2.199687   -0.817488
 C   -0.077471    2.057109    0.497896
 C    0.048942    0.761148    1.281826
 N    0.540067   -0.364138    0.513716
 C    1.883760   -0.646350    0.328057
 C    3.031169    0.096677    0.591350
 C    4.245913   -0.485340    0.262184
 C    4.304225   -1.768587   -0.313135
 C    3.156768   -2.496271   -0.576077
 C    1.919849   -1.922569   -0.253518
 N    0.636158   -2.411405   -0.412381
 C   -0.149172   -1.457801    0.022698
 C   -1.623236   -1.514854   -0.031871
 C   -2.246724   -2.750249    0.150835
 C   -3.631153   -2.854848    0.109064
 C   -4.410796   -1.730992   -0.146798
 C   -3.796000   -0.502122   -0.367908
 C   -2.411356   -0.393184   -0.311804
 H   -1.010403    3.056304    2.157322
 H   -1.249934    5.218115    0.984300
 H   -0.453196    5.457157   -1.358163
 H    0.580457    3.510600   -2.504909
 H    0.815596    1.354462   -1.330844
 H   -0.915922    0.491644    1.722455
 H    0.732413    0.913597    2.124711
 H    2.977041    1.092126    1.024761
 H    5.169115    0.054544    0.452196
 H    5.272032   -2.198192   -0.558931
 H    3.200679   -3.484563   -1.024448
 H   -1.630770   -3.628634    0.327118
 H   -4.103551   -3.820565    0.269865
 H   -5.493629   -1.814839   -0.183272
 H   -4.395459    0.379425   -0.576773
 H   -1.942036    0.569128   -0.499681
