37 
4jv8_ligand_xtb.xyz
 C   -0.379924    1.811976    1.057227
 C   -0.301525    2.952406    1.839038
 C    0.161096    4.127171    1.266808
 C    0.520448    4.106508   -0.072097
 N    0.447260    3.023421   -0.825027
 C    0.012257    1.898994   -0.274025
 C   -0.061213    0.695156   -1.207464
 N    0.524647   -0.461022   -0.592944
 C    1.852212   -0.746427   -0.412137
 C    3.013900   -0.117210   -0.825440
 C    4.206938   -0.708025   -0.458095
 C    4.240235   -1.882514    0.296682
 C    3.086410   -2.509528    0.717923
 C    1.871373   -1.933754    0.362862
 N    0.589335   -2.321987    0.645108
 C   -0.181020   -1.433371    0.076803
 C   -1.621070   -1.375845    0.062922
 C   -2.411793   -2.228986    0.823700
 C   -3.788833   -2.139693    0.761070
 C   -4.380811   -1.197484   -0.068253
 C   -3.607053   -0.339399   -0.826922
 C   -2.218188   -0.411149   -0.769443
 N   -1.426762    0.380658   -1.576619
 H   -0.731648    0.878135    1.468666
 H   -0.594341    2.922233    2.878286
 H    0.241981    5.034821    1.843913
 H    0.886555    4.994161   -0.570993
 H    0.493738    0.951265   -2.123254
 H    2.986862    0.794502   -1.403569
 H    5.137762   -0.251334   -0.760404
 H    5.199441   -2.305792    0.556579
 H    3.111677   -3.414757    1.302833
 H   -1.918598   -2.954112    1.451213
 H   -4.402995   -2.801921    1.351386
 H   -5.457221   -1.127158   -0.122103
 H   -4.073065    0.391173   -1.473104
 H   -1.902141    1.128360   -2.060024
