77 
4jvb_ligand_dft.xyz
 C   -2.865283    2.004443    1.033835
 C   -2.144453    3.193498    1.071580
 C   -0.876192    3.227940    1.647871
 C   -0.323377    2.062528    2.166924
 C   -1.037013    0.869338    2.112363
 C   -2.316934    0.834778    1.563665
 C   -3.111216   -0.454103    1.595303
 N   -3.896345   -0.693954    0.393916
 C   -5.245621   -0.406828    0.271126
 C   -6.228948   -0.092999    1.209681
 C   -7.507402    0.137549    0.723275
 C   -7.797795    0.058778   -0.650941
 C   -6.813480   -0.245125   -1.577419
 C   -5.517169   -0.473197   -1.106836
 N   -4.364918   -0.772639   -1.806357
 C   -3.430973   -0.886969   -0.894301
 C   -2.024976   -1.175180   -1.225105
 C   -1.236162   -2.067261   -0.493942
 C    0.082616   -2.314566   -0.851678
 C   -1.478686   -0.572275   -2.361442
 C   -0.167815   -0.826534   -2.738448
 C    0.623493   -1.679437   -1.966390
 O    1.921260   -1.954941   -2.305279
 C    2.785070   -0.850166   -2.503064
 C    3.783137   -0.742453   -1.347845
 C    4.716544    0.457798   -1.532730
 C    5.764821    0.607935   -0.431246
 C    6.594982    1.877403   -0.605563
 N    3.108679   -0.781315   -0.049489
 C    3.052011   -1.913055    0.745936
 C    3.428052   -3.237903    0.520792
 C    3.190356   -4.139550    1.547193
 C    2.595946   -3.738012    2.758176
 C    2.221174   -2.421722    2.971424
 C    2.452419   -1.499829    1.946543
 N    2.148187   -0.153679    1.887106
 C    2.531901    0.230747    0.696113
 C    2.332914    1.608746    0.192922
 C    3.080078    2.661989    0.722430
 C    2.878303    3.959896    0.263576
 C    1.921221    4.212532   -0.717072
 C    1.151901    3.168143   -1.222171
 C    1.351680    1.870699   -0.764132
 H   -3.856355    1.983896    0.587246
 H   -2.577507    4.096965    0.651672
 H   -0.310339    4.154562    1.669820
 H    0.676899    2.056162    2.585846
 H   -0.573787   -0.039172    2.487995
 H   -3.820816   -0.438780    2.428133
 H   -2.444266   -1.297476    1.781874
 H   -6.016427   -0.025007    2.272261
 H   -8.301539    0.385093    1.421153
 H   -8.813562    0.243117   -0.987381
 H   -7.025326   -0.305473   -2.639862
 H   -1.654916   -2.599120    0.353935
 H    0.701623   -2.993956   -0.275879
 H   -2.104158    0.085500   -2.955355
 H    0.240659   -0.368290   -3.634096
 H    3.334126   -1.010826   -3.437017
 H    2.221955    0.084025   -2.594273
 H    4.399647   -1.646931   -1.361930
 H    5.221709    0.326501   -2.498806
 H    4.132078    1.380160   -1.615107
 H    5.270500    0.629251    0.546811
 H    6.417826   -0.274307   -0.424914
 H    5.952874    2.765108   -0.565239
 H    7.349799    1.969347    0.181559
 H    7.113797    1.884077   -1.570994
 H    3.852027   -3.565140   -0.422611
 H    3.459127   -5.182201    1.407870
 H    2.425374   -4.478492    3.533675
 H    1.756343   -2.101629    3.898474
 H    3.818440    2.457945    1.492030
 H    3.466477    4.775119    0.674261
 H    1.765188    5.225778   -1.075328
 H    0.377736    3.364525   -1.957334
 H    0.714739    1.064850   -1.114907
