77 
4jvb_ligand_xtb.xyz
 C   -3.114492    1.780725    1.515249
 C   -2.331550    2.911252    1.659807
 C   -0.994582    2.790661    2.001164
 C   -0.441986    1.536047    2.189502
 C   -1.221743    0.404191    2.026384
 C   -2.564049    0.517668    1.698442
 C   -3.431048   -0.706812    1.525220
 N   -4.134071   -0.662194    0.266365
 C   -5.470417   -0.392504    0.099790
 C   -6.536752   -0.330880    0.983305
 C   -7.778453   -0.044077    0.453316
 C   -7.958862    0.174256   -0.914052
 C   -6.904841    0.116129   -1.800353
 C   -5.644067   -0.167147   -1.287142
 N   -4.434533   -0.274601   -1.916804
 C   -3.567852   -0.562511   -0.983133
 C   -2.151057   -0.776481   -1.259182
 C   -1.464052   -1.891053   -0.783775
 C   -0.141404   -2.093200   -1.114915
 C   -1.484561    0.117173   -2.091288
 C   -0.159495   -0.079574   -2.428685
 C    0.524355   -1.187696   -1.938141
 O    1.813735   -1.497971   -2.269483
 C    2.766065   -0.465638   -2.416427
 C    3.886643   -0.717247   -1.387434
 C    5.015163    0.308034   -1.503529
 C    6.149170    0.019023   -0.521245
 C    7.248995    1.068363   -0.616001
 N    3.303344   -0.789092   -0.067201
 C    3.053968   -1.967869    0.601355
 C    3.366297   -3.290817    0.331095
 C    2.939356   -4.238079    1.239885
 C    2.225820   -3.886605    2.387327
 C    1.913906   -2.573524    2.667110
 C    2.332344   -1.606447    1.760964
 N    2.148893   -0.249680    1.770223
 C    2.711159    0.198310    0.684010
 C    2.674630    1.627185    0.333935
 C    3.713068    2.479028    0.694688
 C    3.641954    3.827184    0.392270
 C    2.531771    4.336359   -0.260840
 C    1.483552    3.496386   -0.596676
 C    1.549341    2.147355   -0.296347
 H   -4.159517    1.877682    1.254118
 H   -2.768825    3.887727    1.510027
 H   -0.382833    3.673470    2.117127
 H    0.599153    1.419912    2.446377
 H   -0.773073   -0.569746    2.155751
 H   -4.182809   -0.746778    2.319709
 H   -2.818908   -1.610128    1.591235
 H   -6.411674   -0.499257    2.043539
 H   -8.632859    0.012111    1.111713
 H   -8.951411    0.393749   -1.279486
 H   -7.038743    0.282754   -2.857067
 H   -1.972170   -2.626734   -0.178544
 H    0.396495   -2.956846   -0.755593
 H   -2.024388    0.964761   -2.483566
 H    0.328503    0.615381   -3.096725
 H    3.178897   -0.504319   -3.431180
 H    2.327692    0.521565   -2.245729
 H    4.296175   -1.713511   -1.587802
 H    5.401265    0.270206   -2.524333
 H    4.624895    1.312228   -1.332792
 H    5.752518   -0.002873    0.496014
 H    6.567344   -0.968132   -0.731294
 H    6.852306    2.057501   -0.397775
 H    8.044710    0.851771    0.092335
 H    7.675186    1.085094   -1.616614
 H    3.909707   -3.583130   -0.555182
 H    3.160729   -5.279526    1.058231
 H    1.913208   -4.666086    3.066585
 H    1.364613   -2.292672    3.551729
 H    4.570923    2.084807    1.219064
 H    4.453310    4.483101    0.672170
 H    2.479548    5.388917   -0.496695
 H    0.605992    3.890967   -1.086859
 H    0.720981    1.495765   -0.534645
