29 
4jx9_ligand_ani.xyz
 N    0.831474   -0.103601   -0.388531
 C    1.667875   -1.160877   -0.070073
 N    2.981579   -0.822605    0.107787
 C    3.552241    0.459736    0.062448
 C    2.583538    1.509081   -0.232019
 C    1.294020    1.199906   -0.442698
 O    1.261764   -2.312122    0.038326
 O    4.739987    0.610440    0.258098
 C   -0.564191   -0.443941   -0.653943
 C   -1.344639   -0.850541    0.606480
 C   -2.753719   -0.345202    0.291227
 C   -2.491107    0.892593   -0.563434
 O   -1.370153   -2.241718    0.792597
 O   -3.427284   -1.296438   -0.500409
 O   -1.223285    0.671738   -1.196546
 C   -2.444872    2.194672    0.211678
 O   -1.488191    2.075454    1.248620
 H    3.603966   -1.590716    0.326182
 H    2.945901    2.527245   -0.283666
 H    0.530673    1.933228   -0.674392
 H   -0.566634   -1.273299   -1.371316
 H   -0.934835   -0.329109    1.481616
 H   -3.321328   -0.118572    1.206760
 H   -3.248492    0.965302   -1.350325
 H   -0.469083   -2.570416    0.600554
 H   -3.058092   -2.154920   -0.233780
 H   -2.185711    3.006826   -0.483405
 H   -3.450063    2.395467    0.615625
 H   -1.475259    2.901003    1.747856
