33 
4jxs_ligand_ani.xyz
 C   -2.667714    1.181587   -0.209403
 C   -4.009579    0.878536   -0.391119
 C   -4.560060   -0.261876    0.199787
 C   -5.993339   -0.664605    0.016443
 O   -6.378358   -1.798203    0.137555
 O   -6.868972    0.316031   -0.299549
 C   -3.743776   -1.104243    0.954417
 C   -2.405985   -0.788659    1.151432
 C   -1.858025    0.358497    0.577277
 C   -0.409907    0.728841    0.779336
 N    0.283646    0.812399   -0.505659
 S    1.743015    1.594038   -0.571119
 O    2.150414    1.607405   -1.959963
 O    1.620547    2.819370    0.198661
 C    2.817780    0.508636    0.316938
 C    3.490701    0.929362    1.500195
 C    4.309200   -0.037482    1.988634
 S    4.281343   -1.459910    1.030243
 C    3.138813   -0.766740   -0.074221
 C    2.618103   -1.539318   -1.242497
 O    1.462046   -1.501848   -1.600565
 O    3.482953   -2.323188   -1.893176
 H   -2.237314    2.064036   -0.678519
 H   -4.609642    1.521270   -1.034819
 H   -6.452805    1.184353   -0.214148
 H   -4.178380   -2.004902    1.377810
 H   -1.778640   -1.443050    1.752830
 H    0.082530    0.007944    1.447784
 H   -0.329396    1.717960    1.243044
 H    0.367535   -0.066575   -1.024202
 H    3.339852    1.914041    1.929220
 H    4.930188    0.018068    2.871881
 H    4.384530   -2.237732   -1.544254
