39 
4jxw_ligand_ani.xyz
 C    3.567381   -1.587614    0.140190
 C    4.707324   -0.937302   -0.310885
 C    4.971787    0.375163    0.087521
 C    6.171721    1.143181   -0.380635
 O    6.206164    2.344949   -0.429894
 O    7.250690    0.419690   -0.757286
 C    4.063653    1.031599    0.917557
 C    2.934594    0.370075    1.380954
 C    2.673197   -0.951519    1.008745
 C    1.437992   -1.671325    1.495658
 C    0.401719   -1.936230    0.394669
 C   -0.118800   -0.652383   -0.238252
 N   -1.047441   -0.904544   -1.345831
 S   -2.595340   -1.417170   -1.009807
 O   -2.537089   -2.754842   -0.448941
 O   -3.376018   -1.146745   -2.199608
 C   -3.116407   -0.319217    0.274412
 C   -3.437820   -0.795149    1.578511
 C   -3.827616    0.208500    2.405688
 S   -3.814448    1.736020    1.621474
 C   -3.277054    1.035441    0.129884
 C   -3.022735    1.873764   -1.083236
 O   -3.857629    2.893203   -1.308759
 O   -2.098447    1.679049   -1.839791
 H    3.373248   -2.611526   -0.176800
 H    5.365821   -1.453072   -1.009613
 H    7.135218   -0.510539   -0.520196
 H    4.261254    2.064760    1.187672
 H    2.237276    0.887701    2.036986
 H    0.968423   -1.087528    2.297839
 H    1.725987   -2.631902    1.942924
 H   -0.435033   -2.509604    0.807970
 H    0.844999   -2.551805   -0.397586
 H    0.722285   -0.099491   -0.674094
 H   -0.574148    0.005571    0.519964
 H   -1.150508   -0.082256   -1.939805
 H   -3.363802   -1.844147    1.843173
 H   -4.120236    0.125108    3.443572
 H   -4.577060    2.924596   -0.658312
