64 
4jyt_ligand_ani.xyz
 O    3.851483   -1.172140    2.829692
 S    3.128768   -0.075313    2.210343
 O    2.518409    0.982997    2.993782
 C    4.179386    0.690301    0.999758
 C    4.174613    2.099815    0.873618
 C    4.995149    2.699030   -0.043314
 C    5.858662    1.923001   -0.866138
 C    6.722189    2.520807   -1.823469
 C    7.548142    1.749961   -2.597537
 C    7.552739    0.339921   -2.452918
 C    6.730321   -0.261306   -1.537048
 C    5.862963    0.511708   -0.721840
 C    5.005428   -0.092534    0.238215
 N    1.952477   -0.830935    1.300149
 C    0.788173   -0.247444    0.770848
 C   -0.198250   -1.110097    0.243756
 O    0.092484   -2.439824    0.306304
 C   -0.895618   -3.383270    0.066783
 C   -0.638802   -4.338440   -0.909454
 C   -1.558344   -5.356937   -1.121594
 C   -2.728977   -5.427186   -0.365675
 C   -3.715362   -6.527954   -0.593525
 N   -5.041878   -6.156216   -0.438107
 N   -3.426324   -7.742494   -0.861233
 C   -2.960157   -4.462083    0.616935
 C   -2.051597   -3.436491    0.838134
 C    0.528003    1.109418    0.689145
 C   -0.656339    1.539815    0.099921
 C   -1.545836    0.580882   -0.379705
 N   -1.317022   -0.724147   -0.313281
 O   -2.700042    0.900834   -1.013717
 C   -3.402054    2.046310   -0.700329
 C   -4.028743    2.689925   -1.764720
 C   -4.809621    3.808293   -1.524946
 C   -5.000898    4.278914   -0.222089
 C   -5.873863    5.462190    0.045157
 N   -6.668768    5.585434    1.036849
 N   -5.818870    6.456508   -0.919191
 C   -4.383211    3.606543    0.831474
 C   -3.575007    2.499884    0.604947
 H    3.532660    2.689421    1.520962
 H    4.999469    3.780379   -0.149502
 H    6.714368    3.603697   -1.927498
 H    8.206783    2.213526   -3.327562
 H    8.214258   -0.258553   -3.073725
 H    6.728922   -1.343323   -1.419101
 H    5.028374   -1.170488    0.369251
 H    1.982899   -1.844485    1.341945
 H    0.279432   -4.282264   -1.484794
 H   -1.372388   -6.096767   -1.898777
 H   -5.683806   -6.864542   -0.769788
 H   -5.273848   -5.222597   -0.747727
 H   -2.415962   -7.870196   -0.899598
 H   -3.866953   -4.524060    1.212603
 H   -2.252637   -2.675826    1.586515
 H    1.222782    1.832843    1.100973
 H   -0.880082    2.597284    0.028264
 H   -3.891514    2.302499   -2.769992
 H   -5.300529    4.320375   -2.348940
 H   -6.630049    4.758284    1.631171
 H   -6.282556    7.306027   -0.623729
 H   -4.910758    6.615117   -1.333415
 H   -4.509695    3.973618    1.848113
 H   -3.093976    1.995189    1.437741
