72 
4jze_ligand_ani.xyz
 C   -7.650485    2.474394    1.041513
 C   -6.222932    1.908513    1.027686
 C   -5.221520    3.067407    1.137525
 C   -6.076810    0.990665    2.251838
 C   -5.998388    1.082523   -0.263448
 C   -6.128704    1.876362   -1.579017
 O   -6.533636    1.066801   -2.649157
 N   -4.708822    0.395122   -0.209745
 C   -4.428224   -0.732575   -0.903116
 O   -5.203475   -1.199824   -1.742830
 C   -3.118382   -1.386017   -0.615971
 C   -2.665501   -2.343410   -1.523789
 C   -1.436470   -2.943908   -1.337965
 C   -0.609760   -2.607818   -0.256260
 C   -1.121985   -1.730125    0.712247
 C   -2.345593   -1.106433    0.508427
 C   -0.387193   -1.454922    1.994694
 O    0.485174   -2.136152    2.472726
 O   -0.837613   -0.338829    2.605368
 C    0.743363   -3.215866   -0.203469
 C    0.838597   -4.613865   -0.343385
 C    2.051145   -5.252811   -0.294782
 C    3.194914   -4.461159   -0.138817
 N    3.143251   -3.148688   -0.047922
 C    1.956055   -2.526152   -0.091189
 C    2.036949   -1.005364   -0.073282
 O    1.034224   -0.312901   -0.126424
 N    3.319746   -0.544439    0.011227
 C    3.772077    0.786385   -0.033317
 C    5.168759    0.997914    0.111945
 C    5.691205    2.263607    0.050101
 C    4.844487    3.375809   -0.174734
 C    3.452874    3.168006   -0.274022
 C    2.927538    1.853267   -0.211310
 C    2.619087    4.307474   -0.428382
 C    3.193709    5.543133   -0.481887
 N    4.533284    5.766913   -0.415001
 C    5.324946    4.726077   -0.296553
 N    6.688285    4.966607   -0.232877
 O    4.375335   -5.101164   -0.090908
 C    5.534170   -4.294985    0.059322
 H   -7.823195    3.212582    0.251695
 H   -8.395263    1.676806    0.930325
 H   -7.843692    2.976022    1.996331
 H   -4.184506    2.718123    1.214164
 H   -5.429233    3.657578    2.037147
 H   -5.284901    3.743541    0.276661
 H   -6.770935    0.143431    2.193545
 H   -6.300543    1.547532    3.168390
 H   -5.063729    0.588067    2.351270
 H   -6.764530    0.296771   -0.311336
 H   -5.165541    2.374921   -1.787229
 H   -6.880222    2.666683   -1.482644
 H   -6.124290    0.190301   -2.526255
 H   -3.974661    0.817660    0.335850
 H   -3.292902   -2.597247   -2.371720
 H   -1.081148   -3.663128   -2.071145
 H   -2.689543   -0.421606    1.278730
 H   -0.305766   -0.253190    3.413409
 H   -0.074141   -5.195460   -0.462362
 H    2.153321   -6.329460   -0.383768
 H    4.019007   -1.273405    0.062366
 H    5.825801    0.146847    0.272022
 H    6.757019    2.410731    0.199099
 H    1.862416    1.688875   -0.302592
 H    1.541990    4.184722   -0.496154
 H    2.583409    6.437677   -0.590774
 H    7.263284    4.294014   -0.720734
 H    6.919184    5.921711   -0.477896
 H    5.491497   -3.719486    0.989344
 H    6.375316   -4.988312    0.082381
 H    5.638657   -3.602123   -0.781717
