72 
4jze_ligand_xtb.xyz
 C   -7.469324    2.460690    1.211747
 C   -6.021107    1.980504    1.073610
 C   -5.089755    3.189522    0.953742
 C   -5.667590    1.186143    2.338860
 C   -5.908311    1.054308   -0.158699
 C   -6.111435    1.742370   -1.527701
 O   -6.764970    0.907970   -2.441447
 N   -4.634325    0.351738   -0.145911
 C   -4.413457   -0.778946   -0.842921
 O   -5.249389   -1.283050   -1.578468
 C   -3.064268   -1.384487   -0.649697
 C   -2.512833   -2.119821   -1.695514
 C   -1.268681   -2.701988   -1.560556
 C   -0.545540   -2.570222   -0.380065
 C   -1.113042   -1.860991    0.687982
 C   -2.362958   -1.270631    0.542056
 C   -0.379740   -1.723298    1.963190
 O    0.589935   -2.362681    2.293391
 O   -0.907450   -0.789239    2.771870
 C    0.773073   -3.215764   -0.273927
 C    0.862204   -4.611289   -0.220657
 C    2.089746   -5.218675   -0.115340
 C    3.226926   -4.399608   -0.062456
 N    3.158125   -3.084654   -0.140044
 C    1.964647   -2.497518   -0.247995
 C    1.972712   -1.003233   -0.339125
 O    0.975066   -0.347705   -0.574560
 N    3.217406   -0.505870   -0.131055
 C    3.659181    0.812097   -0.139293
 C    5.039741    1.028743    0.059789
 C    5.555187    2.293633    0.057843
 C    4.722660    3.410877   -0.141022
 C    3.332646    3.197526   -0.328545
 C    2.821879    1.887004   -0.326725
 C    2.500304    4.326253   -0.507418
 C    3.066082    5.568955   -0.493530
 N    4.376847    5.792074   -0.335775
 C    5.183510    4.766222   -0.166368
 N    6.497078    5.074650    0.044448
 O    4.425744   -4.988466    0.061200
 C    5.544795   -4.127919    0.141482
 H   -7.789466    3.026248    0.341988
 H   -8.140856    1.614226    1.332506
 H   -7.565521    3.102012    2.084829
 H   -4.052645    2.887252    0.823024
 H   -5.149910    3.790685    1.858229
 H   -5.370367    3.814967    0.110958
 H   -6.231991    0.257226    2.376865
 H   -5.914212    1.771294    3.221794
 H   -4.608634    0.945949    2.386653
 H   -6.688687    0.285037   -0.080435
 H   -5.128516    2.054984   -1.917157
 H   -6.740945    2.629487   -1.437935
 H   -6.358124    0.023494   -2.384951
 H   -3.854572    0.811683    0.293795
 H   -3.077067   -2.221987   -2.610356
 H   -0.837817   -3.256127   -2.381505
 H   -2.786688   -0.752527    1.388555
 H   -0.382298   -0.733159    3.585410
 H   -0.042279   -5.200852   -0.247829
 H    2.204817   -6.288304   -0.062635
 H    3.913458   -1.229550    0.025794
 H    5.685971    0.175807    0.214278
 H    6.614208    2.429165    0.221929
 H    1.766286    1.731568   -0.475950
 H    1.440119    4.191553   -0.650615
 H    2.472312    6.464358   -0.623192
 H    7.202059    4.390631   -0.165010
 H    6.733613    6.037077   -0.133391
 H    5.464325   -3.471627    1.011752
 H    6.412991   -4.775741    0.239977
 H    5.629507   -3.517791   -0.761392
