54 
4k0o_ligand_ani.xyz
 C    1.217660   -0.393283   -0.059880
 C    2.219560    0.662290    0.414189
 C    3.600055    0.446758   -0.226593
 C    4.015287   -1.019490   -0.137262
 C    2.911021   -1.924139   -0.652867
 C    3.216071   -3.409110   -0.497833
 C    2.053073    3.111856    0.680681
 C    1.212358    4.336821    0.394046
 N    1.649084    1.963610    0.092415
 O    0.051454   -0.289889    0.700824
 O    4.629074    1.165085    0.405342
 O    5.179969   -1.239053   -0.895583
 O    1.720883   -1.689098    0.099399
 O    2.134011   -4.184725   -0.955768
 O    3.055811    3.171353    1.395485
 C   -3.190541    0.631662   -0.940694
 C   -1.797634    0.856970   -0.364841
 C   -1.175639   -0.482853    0.008452
 C   -2.105663   -1.230227    0.970702
 C   -3.510413   -1.303771    0.376913
 C   -4.533823   -1.894480    1.333436
 C   -4.914854    1.814875   -2.012886
 O   -3.711342    1.873928   -1.271607
 O   -0.966396    1.519094   -1.306591
 O   -2.167141   -0.542060    2.196917
 O   -3.998097   -0.007041    0.021929
 O   -5.800445   -1.967601    0.720418
 H    0.993922   -0.225473   -1.128134
 H    2.338637    0.570045    1.503220
 H    3.538279    0.726085   -1.294657
 H    4.179377   -1.251288    0.929427
 H    2.721988   -1.710408   -1.719090
 H    3.447809   -3.622398    0.559429
 H    4.092839   -3.670727   -1.095660
 H    0.189430    4.085010    0.095252
 H    1.193756    4.960566    1.290260
 H    1.679299    4.915686   -0.409723
 H    0.796286    1.968957   -0.463656
 H    4.247793    1.968129    0.817652
 H    5.832279   -0.599972   -0.575037
 H    1.355887   -3.844102   -0.492201
 H   -3.134031   -0.004786   -1.847772
 H   -1.901391    1.459873    0.546455
 H   -1.008938   -1.085774   -0.894310
 H   -1.723357   -2.256152    1.114442
 H   -3.485786   -1.924943   -0.536023
 H   -4.551527   -1.296483    2.255110
 H   -4.243886   -2.918012    1.595966
 H   -5.149733    2.836722   -2.318625
 H   -4.796482    1.190989   -2.910762
 H   -5.742191    1.416672   -1.414064
 H   -1.496041    2.244341   -1.666194
 H   -1.250945   -0.308283    2.407392
 H   -5.988223   -1.072776    0.404892
