43 
4k18_ligand_ani.xyz
 C    0.074221    3.074761    0.954730
 C   -1.267096    3.101499    1.317531
 C   -2.251007    2.970865    0.337283
 C   -1.884810    2.828150   -1.002673
 C   -0.540940    2.797928   -1.352145
 C    0.455167    2.915759   -0.379688
 C    1.913925    2.847127   -0.759834
 C    2.603853    1.541428   -0.400111
 C    4.010547    1.547063   -0.190692
 C    4.631658    0.356663    0.084299
 N    3.837575   -0.758509    0.140576
 C    2.481817   -0.710221   -0.060868
 N    1.853522    0.446584   -0.342017
 C    2.044756   -2.042138    0.102358
 C    3.223332   -2.764819    0.382952
 N    4.305697   -2.009446    0.409620
 C    0.676372   -2.585367    0.044207
 O    0.456237   -3.779241    0.204713
 N   -0.293812   -1.640532   -0.194501
 C   -1.689080   -1.792045   -0.180414
 C   -2.461387   -0.629370   -0.258124
 C   -3.848963   -0.686534   -0.235123
 C   -4.454488   -1.929427   -0.148379
 C   -3.710151   -3.095474   -0.081903
 C   -2.321646   -3.030493   -0.096013
 F   -5.796605   -2.013326   -0.127016
 O    5.925899    0.163546    0.302603
 C   -3.652141    2.960820    0.697003
 N   -4.779936    2.935109    0.961300
 H    0.841254    3.171512    1.720866
 H   -1.555812    3.217795    2.357488
 H   -2.662680    2.715341   -1.753770
 H   -0.264644    2.676885   -2.396544
 H    2.463310    3.668239   -0.282691
 H    2.014247    3.003275   -1.842030
 H    4.588483    2.460731   -0.262304
 H    3.284608   -3.829731    0.567853
 H    0.035062   -0.683853   -0.314100
 H   -1.962936    0.330552   -0.332455
 H   -4.454762    0.214488   -0.271477
 H   -4.221431   -4.050835   -0.014024
 H   -1.722359   -3.929833   -0.036499
 H    6.065059   -0.788567    0.473079
