17 
4k2y_ligand_ani.xyz
 C   -0.503026   -0.467592    0.000177
Cl    3.467715   -0.583370    0.000138
 C    1.817337   -0.023195   -0.000203
 C    1.571998    1.349340   -0.000475
 C    0.254509    1.812290   -0.000288
 C   -0.785001    0.902911    0.000205
 C   -2.279332    1.082451    0.000743
 C   -2.814445   -0.354512   -0.000024
 O   -3.966296   -0.722244   -0.000764
 N   -1.703141   -1.181581    0.000396
 C    0.792861   -0.962693   -0.000107
 H    2.404073    2.046175   -0.000841
 H    0.055958    2.881162   -0.000519
 H   -2.657491    1.610045   -0.879144
 H   -2.656784    1.608462    0.881916
 H   -1.786733   -2.186861   -0.000242
 H    1.012776   -2.026679   -0.000344
