56 
4k3m_ligand_dft.xyz
 N    2.293801   -1.096722    0.047495
 C    2.740888    0.272056    0.470579
 C    1.491743    0.815958    1.189439
 O    1.061768    0.158932    2.119540
 C    3.255659    1.039078   -0.742689
 C    4.433851    0.343789   -1.397353
 O    5.198923    1.184455   -2.073737
 O    4.634035   -0.853176   -1.329478
 N    0.835756    1.880957    0.655606
 C   -0.615934    1.761201    0.613898
 C   -0.919640    0.469928   -0.186471
 O   -0.070242   -0.025373   -0.936884
 C   -1.286212    2.971777   -0.049914
 C   -1.315395    4.267780    0.777404
 C    0.071466    4.878972    0.997691
 C   -2.241386    5.277116    0.091398
 N   -2.141364   -0.051169   -0.032566
 C   -2.594665   -1.211907   -0.775973
 C   -3.993512   -1.015101   -1.346969
 O   -4.579624    0.118393   -0.922834
 C   -2.565497   -2.503647    0.069488
 C   -1.179268   -2.911389    0.511470
 C   -0.359331   -3.666136   -0.337043
 C   -0.703663   -2.580255    1.779522
 C    0.885099   -4.117396    0.089947
 C    0.541998   -3.032040    2.217487
 C    1.334187   -3.814559    1.378991
 O   -4.519471   -1.813164   -2.075279
 H    2.022717   -1.669497    0.861938
 H    3.058699   -1.548466   -0.477360
 H    1.436688   -1.006825   -0.533186
 H    3.534686    0.129980    1.207558
 H    2.466427    1.122096   -1.502284
 H    3.550783    2.051949   -0.454301
 H    5.911998    0.679790   -2.502901
 H    1.227616    2.287984   -0.182168
 H   -0.981213    1.643312    1.638095
 H   -2.319738    2.684722   -0.279265
 H   -0.808448    3.157805   -1.023687
 H   -1.744649    4.024892    1.759694
 H    0.719192    4.232080    1.595063
 H   -0.015674    5.837436    1.518275
 H    0.565387    5.073192    0.036180
 H   -2.314687    6.197462    0.678266
 H   -3.253122    4.876705   -0.034507
 H   -1.858291    5.545318   -0.900703
 H   -2.806270    0.412815    0.571208
 H   -1.916794   -1.328591   -1.625490
 H   -5.469758    0.143277   -1.313030
 H   -3.013925   -3.295260   -0.538171
 H   -3.210584   -2.366025    0.944859
 H   -0.717666   -3.933982   -1.328129
 H   -1.319298   -1.985902    2.448401
 H    1.489947   -4.736533   -0.565989
 H    0.880050   -2.784968    3.218636
 H    2.283127   -4.208117    1.733220
