90 
4k3o_ligand_ani.xyz
 C   -0.260558    3.352489   -1.451502
 O    0.840540    4.089052   -0.978267
 C    0.038779    2.736278   -2.811296
 N   -0.676491    2.294647   -0.485229
 C   -0.429143    2.572529    0.964083
 C    0.999129    2.071525    1.252952
 O    1.206322    0.866061    1.333022
 C   -1.422398    1.827887    1.867955
 C   -2.841373    2.404687    1.959526
 C   -3.764867    2.088820    0.789006
 O   -3.349000    1.889176   -0.352858
 N   -5.085189    2.088124    1.079805
 N    1.979604    3.008920    1.369131
 C    3.390496    2.626381    1.229243
 C    3.595187    1.925172   -0.131357
 O    3.095124    2.408959   -1.151318
 C    3.885388    1.845295    2.442248
 N    4.298191    0.770958   -0.166184
 C    4.362800   -0.038188   -1.366094
 C    3.392796   -1.235012   -1.369272
 O    3.675667   -2.257232   -1.984674
 C    5.780615   -0.527044   -1.644936
 C    6.331194   -1.396744   -0.539245
 O    5.873843   -1.490720    0.581994
 O    7.431570   -2.060618   -0.918479
 N    2.216855   -1.083042   -0.714367
 C    1.190215   -2.097564   -0.775544
 C   -0.178076   -1.389979   -0.769449
 O   -0.291774   -0.262221   -1.244060
 C    1.411646   -3.269825    0.198705
 C    1.569349   -3.047580    1.718413
 C    0.329732   -2.499170    2.425819
 C    2.801868   -2.224790    2.109802
 N   -1.248074   -2.068929   -0.289769
 C   -2.578067   -1.487618   -0.204954
 C   -3.138442   -1.843218    1.157422
 O   -3.813875   -0.836895    1.729456
 C   -3.506118   -2.030198   -1.317846
 C   -4.918800   -1.500669   -1.234348
 C   -5.233495   -0.241817   -1.748957
 C   -5.927306   -2.242217   -0.616123
 C   -6.533238    0.249829   -1.680150
 C   -7.226998   -1.749177   -0.530674
 C   -7.533625   -0.503885   -1.067650
 O   -3.007376   -2.932404    1.671422
 H   -1.091193    4.061007   -1.516345
 H    1.655129    3.574662   -1.161385
 H    0.164618    3.530722   -3.552042
 H   -0.764203    2.072019   -3.149720
 H    0.972867    2.165488   -2.764948
 H   -0.203825    1.392165   -0.719398
 H   -1.689467    2.087670   -0.622137
 H   -0.497319    3.653346    1.112282
 H   -1.455022    0.772595    1.571718
 H   -1.000920    1.835220    2.878013
 H   -3.312979    2.025391    2.874331
 H   -2.799731    3.497796    2.064275
 H   -5.718909    1.711972    0.386809
 H   -5.399602    2.100399    2.036590
 H    1.745675    3.902707    0.949796
 H    3.941023    3.571962    1.159210
 H    4.969840    1.694417    2.407140
 H    3.388291    0.874962    2.507736
 H    3.650385    2.406667    3.349575
 H    4.680514    0.346716    0.670013
 H    4.042010    0.623078   -2.179027
 H    5.808865   -1.093263   -2.578857
 H    6.449026    0.334330   -1.752707
 H    7.712945   -2.585286   -0.149861
 H    2.022581   -0.264856   -0.143306
 H    1.266938   -2.546295   -1.775189
 H    2.333606   -3.749166   -0.154162
 H    0.617179   -4.011828    0.029731
 H    1.734970   -4.062368    2.111108
 H   -0.551270   -3.129193    2.269427
 H    0.093202   -1.480772    2.094402
 H    0.508684   -2.452362    3.506401
 H    2.644789   -1.159660    1.910143
 H    2.989475   -2.322131    3.185667
 H    3.703664   -2.547393    1.578240
 H   -1.117707   -2.938348    0.208938
 H   -2.512021   -0.402700   -0.296656
 H   -4.173264   -1.177083    2.566740
 H   -3.046220   -1.753685   -2.274754
 H   -3.506782   -3.125597   -1.265413
 H   -4.457721    0.372222   -2.197795
 H   -5.685792   -3.215550   -0.191887
 H   -6.767140    1.227017   -2.101057
 H   -8.002045   -2.340585   -0.050045
 H   -8.545888   -0.113611   -1.009880
