90 
4k3o_ligand_dft.xyz
 C   -0.228456    3.484163   -1.442227
 O    0.923935    4.124934   -1.048991
 C   -0.152618    2.832472   -2.810766
 N   -0.626235    2.400865   -0.446840
 C   -0.355319    2.679434    0.996236
 C    1.069566    2.161728    1.245136
 O    1.264604    0.951594    1.259938
 C   -1.340555    1.919807    1.893362
 C   -2.800887    2.408456    1.892177
 C   -3.654189    1.885685    0.745827
 O   -3.219779    1.816569   -0.414141
 N   -4.914006    1.546499    1.030694
 N    2.062600    3.066167    1.355867
 C    3.441997    2.620735    1.144921
 C    3.477560    1.822402   -0.177325
 O    2.862447    2.241447   -1.166983
 C    4.026186    1.928290    2.372862
 N    4.199987    0.699146   -0.211470
 C    4.318509   -0.125167   -1.403748
 C    3.349141   -1.327166   -1.405230
 O    3.661388   -2.373912   -1.954299
 C    5.751533   -0.611487   -1.608787
 C    6.249111   -1.433414   -0.444326
 O    5.819197   -1.353890    0.691305
 O    7.252493   -2.237669   -0.780663
 N    2.146810   -1.116555   -0.833001
 C    1.131174   -2.144837   -0.828561
 C   -0.229403   -1.443883   -0.797493
 O   -0.336551   -0.236333   -1.004196
 C    1.377687   -3.248004    0.224832
 C    1.490149   -2.882534    1.718081
 C    0.232772   -2.230317    2.299865
 C    2.735491   -2.056296    2.062191
 N   -1.318334   -2.216461   -0.591455
 C   -2.634051   -1.638323   -0.359773
 C   -3.016386   -2.012622    1.067343
 O   -3.060824   -0.964678    1.907785
 C   -3.682931   -2.157291   -1.354704
 C   -5.015023   -1.466727   -1.168216
 C   -5.323557   -0.317263   -1.899487
 C   -5.943036   -1.941283   -0.236670
 C   -6.539138    0.338161   -1.715069
 C   -7.152825   -1.281308   -0.038616
 C   -7.456618   -0.140972   -0.779743
 O   -3.213259   -3.147401    1.427992
 H   -1.035234    4.220231   -1.388707
 H    1.697226    3.537394   -1.225157
 H    0.047671    3.600656   -3.560344
 H   -1.091664    2.330010   -3.060951
 H    0.657753    2.096427   -2.833078
 H   -0.196333    1.489000   -0.689368
 H   -1.661049    2.208733   -0.548909
 H   -0.432007    3.759593    1.147262
 H   -1.293487    0.855129    1.648843
 H   -0.960333    2.015633    2.915579
 H   -3.257190    2.125674    2.845121
 H   -2.841595    3.505159    1.849025
 H   -5.505240    1.183971    0.289026
 H   -5.266202    1.527361    1.973744
 H    1.836236    4.009634    1.070030
 H    4.019517    3.529455    0.944517
 H    5.089597    1.714701    2.228710
 H    3.498573    0.998487    2.597709
 H    3.937686    2.592685    3.235456
 H    4.601668    0.294813    0.628424
 H    4.033224    0.506038   -2.250507
 H    5.808082   -1.210854   -2.518161
 H    6.423792    0.245906   -1.727669
 H    7.535149   -2.707681    0.021531
 H    1.941589   -0.257151   -0.340704
 H    1.187342   -2.645833   -1.805192
 H    2.312024   -3.728522   -0.084056
 H    0.606416   -4.022214    0.106192
 H    1.608712   -3.853129    2.218517
 H   -0.652196   -2.858818    2.153198
 H    0.053438   -1.244251    1.855323
 H    0.356317   -2.078443    3.377652
 H    2.615360   -1.013094    1.759602
 H    2.900743   -2.068826    3.145397
 H    3.635365   -2.451345    1.581310
 H   -1.200765   -3.194933   -0.367642
 H   -2.532502   -0.556855   -0.455512
 H   -3.255371   -1.332347    2.787243
 H   -3.295115   -1.978623   -2.361924
 H   -3.789733   -3.239661   -1.224792
 H   -4.608059    0.067970   -2.620248
 H   -5.720852   -2.842385    0.329130
 H   -6.772205    1.219480   -2.305119
 H   -7.867754   -1.668915    0.680751
 H   -8.408870    0.362192   -0.642347
