93 
4k3p_ligand_xtb.xyz
 C    5.927019   -2.194831   -1.171729
 O    6.381757   -1.103452   -1.482459
 C    6.772680   -3.446607   -1.136773
 N    4.638692   -2.404231   -0.864179
 C    3.627777   -1.393671   -0.643410
 C    2.765599   -1.901156    0.523124
 O    2.885635   -3.042955    0.936580
 C    2.732248   -1.197013   -1.878195
 C    3.447141   -0.481826   -3.030319
 C    3.752479    0.963681   -2.680407
 O    2.945541    1.870760   -2.856671
 N    4.962825    1.179524   -2.168934
 N    1.932454   -0.994267    1.042920
 C    0.917936   -1.386665    1.993261
 C   -0.340715   -1.805383    1.229293
 O   -0.492699   -1.583710    0.038726
 C    0.610935   -0.228880    2.946169
 C    1.822421    0.222177    3.770930
 C    2.308612   -0.875055    4.714869
 C    1.451995    1.474207    4.564110
 N   -1.255559   -2.459846    1.959235
 C   -2.509732   -2.901857    1.372979
 C   -3.217112   -1.675483    0.749996
 O   -3.616449   -0.767652    1.446457
 C   -3.399937   -3.507960    2.446146
 N   -3.352014   -1.742219   -0.586248
 C   -4.034187   -0.743184   -1.388185
 C   -3.370838    0.650115   -1.332538
 O   -3.986838    1.646114   -1.648398
 C   -5.511707   -0.598920   -1.002615
 C   -6.450382   -1.711904   -1.483170
 C   -6.114877   -3.070084   -0.869958
 C   -6.502327   -1.809129   -3.006792
 N   -2.067842    0.663855   -1.000265
 C   -1.375652    1.928988   -0.850326
 C    0.096087    1.721059   -1.200328
 O    0.371849    2.081301   -2.422164
 C   -1.534811    2.482706    0.576994
 C   -0.926649    3.850285    0.683072
 C   -1.646935    4.963793    0.267675
 C    0.366969    4.025151    1.155961
 C   -1.087882    6.226975    0.332187
 C    0.927873    5.288593    1.220510
 C    0.201232    6.392673    0.810255
 O    0.902783    1.250242   -0.426238
 H    6.779560   -3.859211   -0.130437
 H    6.364906   -4.192035   -1.815566
 H    7.788946   -3.204760   -1.433688
 H    4.356308   -3.306575   -0.491587
 H    4.103365   -0.447374   -0.366951
 H    2.396503   -2.179064   -2.217913
 H    1.851306   -0.623464   -1.590127
 H    2.791214   -0.485419   -3.902364
 H    4.371969   -1.001894   -3.278305
 H    5.218018    2.119513   -1.911080
 H    5.607194    0.412326   -1.972129
 H    1.747864   -0.125711    0.549324
 H    1.298248   -2.260805    2.532708
 H   -0.201436   -0.511842    3.618568
 H    0.267256    0.613374    2.342626
 H    2.633923    0.471683    3.079855
 H    1.502306   -1.202849    5.368409
 H    2.684002   -1.733085    4.163266
 H    3.117665   -0.499689    5.336742
 H    0.647805    1.256216    5.263874
 H    1.120766    2.270352    3.901620
 H    2.308262    1.834136    5.129090
 H   -1.128700   -2.580971    2.950890
 H   -2.282688   -3.640686    0.593457
 H   -4.294561   -3.926002    1.992329
 H   -3.699089   -2.732128    3.147799
 H   -2.876557   -4.300176    2.977148
 H   -2.839753   -2.457069   -1.076571
 H   -3.960207   -1.060895   -2.432800
 H   -5.567555   -0.518352    0.083567
 H   -5.848644    0.351183   -1.421515
 H   -7.450658   -1.429261   -1.134743
 H   -5.178095   -3.456416   -1.264277
 H   -6.899424   -3.788717   -1.098381
 H   -6.029593   -2.987259    0.211190
 H   -7.303782   -2.478043   -3.312642
 H   -5.571329   -2.200576   -3.411007
 H   -6.684744   -0.831137   -3.444814
 H   -1.593168   -0.168278   -0.668701
 H   -1.816262    2.626116   -1.571122
 H    1.349421    1.981923   -2.651134
 H   -1.057506    1.791303    1.272880
 H   -2.602461    2.517802    0.798710
 H   -2.652204    4.833611   -0.105672
 H    0.942723    3.164868    1.465915
 H   -1.658745    7.085263    0.009145
 H    1.935175    5.411316    1.591670
 H    0.638373    7.379073    0.861664
