87 
4k3q_ligand_dft.xyz
 C    4.875160    3.818773   -0.583713
 O    4.209074    4.190934    0.383816
 C    6.026761    4.657352   -1.093220
 N    4.638073    2.670164   -1.250817
 C    3.714417    1.646238   -0.807091
 C    4.379441    0.295707   -1.111672
 O    5.219855    0.183513   -1.996570
 C    2.351987    1.724636   -1.524103
 C    1.519466    2.965577   -1.157431
 C    0.911586    2.818879    0.224362
 O   -0.189544    2.268414    0.372147
 N    1.637053    3.286755    1.245920
 N    3.913635   -0.715476   -0.356998
 C    4.287206   -2.111253   -0.528602
 C    3.032374   -2.958143   -0.235364
 O    3.038605   -3.969271    0.447147
 C    5.507743   -2.530591    0.302947
 C    5.635196   -1.902535    1.699400
 C    6.943918   -2.372023    2.342092
 C    4.452093   -2.198478    2.626053
 N    1.903634   -2.455649   -0.801387
 C    0.584447   -2.768092   -0.324155
 C   -0.396853   -2.000815   -1.218245
 O   -0.016468   -1.059194   -1.906353
 C    0.386210   -2.312925    1.153824
 C    0.521564   -0.811062    1.248918
 O    1.593036   -0.226386    1.313772
 O   -0.637722   -0.182329    1.187730
 N   -1.682355   -2.384237   -1.126106
 C   -2.755561   -1.524608   -1.577024
 C   -3.941729   -1.812646   -0.649951
 O   -3.903110   -2.713089    0.183132
 C   -3.090017   -1.746166   -3.055166
 N   -5.010705   -1.010771   -0.816975
 C   -6.150257   -1.057291    0.068981
 C   -7.261852   -0.271205   -0.598904
 O   -8.415535   -0.363262    0.078060
 C   -5.831174   -0.500304    1.482032
 C   -5.305368    0.912225    1.432595
 C   -3.938225    1.153979    1.270446
 C   -6.179290    2.000871    1.481193
 C   -3.454082    2.453026    1.143511
 C   -5.699833    3.301759    1.360770
 C   -4.337866    3.528721    1.186056
 O   -7.136458    0.378435   -1.608974
 H    6.794039    4.702520   -0.315187
 H    5.670329    5.676047   -1.263237
 H    6.473432    4.270744   -2.012465
 H    5.285782    2.347305   -1.961124
 H    3.572107    1.747676    0.273039
 H    2.539311    1.724774   -2.603318
 H    1.761574    0.829215   -1.300965
 H    0.687296    3.050786   -1.859736
 H    2.129133    3.871416   -1.224765
 H    1.309610    3.117282    2.185459
 H    2.569967    3.674104    1.089080
 H    3.228838   -0.502092    0.365984
 H    4.530532   -2.243807   -1.589804
 H    6.400891   -2.259442   -0.271623
 H    5.490720   -3.622838    0.389674
 H    5.699341   -0.813504    1.567327
 H    7.099662   -1.889337    3.313190
 H    7.807284   -2.141301    1.707701
 H    6.927244   -3.456468    2.506583
 H    4.295364   -3.277070    2.727026
 H    4.639153   -1.779022    3.621243
 H    3.516907   -1.759717    2.262851
 H    1.950893   -1.596951   -1.336897
 H    0.405474   -3.846418   -0.373896
 H    1.157027   -2.796401    1.757576
 H   -0.600361   -2.620284    1.509669
 H   -0.466304    0.791701    1.041414
 H   -1.971563   -3.069949   -0.435402
 H   -2.444140   -0.482691   -1.428241
 H   -3.413281   -2.777433   -3.224809
 H   -3.882583   -1.070827   -3.392033
 H   -2.195197   -1.551226   -3.650754
 H   -4.980937   -0.233835   -1.463838
 H   -6.476463   -2.096953    0.178300
 H   -9.061571    0.181935   -0.399461
 H   -5.091858   -1.176165    1.920255
 H   -6.741049   -0.563964    2.086651
 H   -3.241371    0.318722    1.253534
 H   -7.244222    1.826093    1.617620
 H   -2.389971    2.621404    1.006332
 H   -6.392333    4.137600    1.402544
 H   -3.962683    4.543120    1.086557
