89 
4k3r_ligand_ani.xyz
 C   -0.939026    2.369243    2.531055
 O   -2.096190    1.720145    3.049267
 C    0.321237    1.908675    3.244712
 N   -0.867619    2.019296    1.100665
 C   -2.016203    2.471168    0.250021
 C   -2.901391    1.275171   -0.187699
 O   -3.057373    0.998901   -1.377098
 C   -1.539973    3.292584   -0.958160
 C   -0.626373    2.586803   -1.962932
 C    0.813899    2.384536   -1.500962
 O    1.240126    2.863452   -0.446917
 N    1.590756    1.672651   -2.349114
 N   -3.488227    0.581730    0.809906
 C   -4.153183   -0.718327    0.634834
 C   -3.128012   -1.829495    0.353707
 O   -2.963042   -2.730586    1.159889
 C   -5.311968   -0.713692   -0.370129
 C   -6.398080    0.334834   -0.099690
 C   -7.470009    0.245020   -1.186485
 C   -7.026710    0.183765    1.285765
 N   -2.425675   -1.754354   -0.820948
 C   -1.152255   -2.436696   -0.890255
 C   -0.070332   -1.606137   -0.149693
 O   -0.341813   -0.551595    0.419451
 C   -0.795020   -2.818506   -2.348859
 C    0.251749   -1.894730   -2.927583
 O    1.432542   -2.495180   -3.070167
 O    0.054099   -0.716403   -3.148320
 N    1.182881   -2.134416   -0.121378
 C    2.294222   -1.401904    0.446554
 C    3.068955   -0.585035   -0.602920
 O    3.183964   -0.890831   -1.787304
 C    3.264292   -2.308709    1.226337
 C    2.925349   -2.474905    2.719185
 C    3.173135   -1.182700    3.507079
 C    1.505440   -2.991848    2.956914
 N    3.645280    0.545198   -0.091554
 C    4.788757    1.195268   -0.704992
 C    6.066220    0.667303   -0.059526
 O    7.162084    1.080031   -0.713747
 C    4.712447    2.715745   -0.565920
 O    6.108948   -0.010799    0.939603
 H   -1.071166    3.453272    2.622779
 H   -2.208155    1.978710    3.975877
 H    0.316364    2.238630    4.287992
 H    0.378733    0.812031    3.231310
 H    1.220454    2.314971    2.764641
 H   -0.010372    2.448883    0.705874
 H   -0.741087    0.989493    1.018718
 H   -2.635028    3.118099    0.885844
 H   -1.030454    4.184778   -0.575651
 H   -2.430181    3.635475   -1.490581
 H   -1.046935    1.619412   -2.252447
 H   -0.589400    3.189135   -2.881980
 H    2.492010    1.394418   -1.981174
 H    1.135789    0.987829   -2.944222
 H   -3.199567    0.816643    1.754554
 H   -4.540919   -0.982457    1.622886
 H   -4.918509   -0.564039   -1.379239
 H   -5.765662   -1.715134   -0.347786
 H   -5.936454    1.328189   -0.160083
 H   -7.036396    0.383674   -2.183504
 H   -8.242075    1.009340   -1.044471
 H   -7.961482   -0.736443   -1.166128
 H   -7.473226   -0.812354    1.407219
 H   -7.820707    0.924846    1.430473
 H   -6.295179    0.327439    2.088888
 H   -2.516383   -0.884744   -1.343360
 H   -1.276250   -3.361668   -0.318907
 H   -1.707718   -2.757870   -2.946910
 H   -0.414985   -3.840914   -2.386377
 H    2.132031   -1.805710   -3.045633
 H    1.419329   -2.862310   -0.779442
 H    1.845922   -0.679962    1.136212
 H    4.279113   -1.902371    1.154386
 H    3.287028   -3.292040    0.736060
 H    3.628129   -3.228355    3.104087
 H    2.453087   -0.396084    3.243625
 H    4.181292   -0.787750    3.329050
 H    3.065996   -1.361230    4.583099
 H    0.756613   -2.250391    2.651976
 H    1.343327   -3.198018    4.020579
 H    1.310176   -3.912068    2.395980
 H    3.639053    0.596816    0.920297
 H    4.791940    0.913988   -1.762577
 H    7.926423    0.726930   -0.228059
 H    4.797550    3.018803    0.483479
 H    5.522966    3.189258   -1.125970
 H    3.753437    3.078452   -0.943816
