90 
4k42_ligand_dft.xyz
 C    0.567932    2.905159    0.102625
 C    0.757450    3.940545    1.008855
 C    1.258715    5.165410    0.571335
 C    1.570581    5.343131   -0.772691
 C    1.386629    4.297602   -1.675845
 C    0.882004    3.070807   -1.248693
 C    0.697558    1.915510   -2.208218
 O    1.507795    0.801809   -1.909669
 C    2.885058    0.964575   -2.177588
 C    3.547577   -0.411524   -2.145764
 C    4.043020   -0.973508   -0.810246
 O    5.196096   -0.176252   -0.453552
 C    6.171253   -0.781966    0.243452
 O    6.157379   -1.949096    0.558413
 C    7.275595    0.196588    0.578448
 C    8.464608   -0.472107    1.255732
 C    3.074021   -1.051724    0.390339
 C    2.865481    0.303000    1.076357
 C    1.719642   -1.681487   -0.004550
 O    0.837252   -1.708110    1.113556
 C    1.811853   -3.125854   -0.529007
 C    2.142751   -4.128289    0.581244
 C    0.567158   -3.540386   -1.340696
 C   -0.786056   -3.434015   -0.625916
 C   -1.344028   -2.020222   -0.629730
 O   -1.176898   -1.280268   -1.581886
 C   -2.162704   -1.581935    0.578527
 C   -3.459906   -2.396829    0.680075
 C   -2.306868   -0.053474    0.576747
 O   -2.596157    0.393128    1.925069
 C   -1.569279    0.705449    2.718036
 O   -0.400498    0.594897    2.406613
 C   -2.046998    1.234104    4.043337
 C   -3.353737    0.596666   -0.340078
 C   -3.084755    2.107611   -0.440441
 C   -4.776761    0.362814    0.096446
 C   -5.732279   -0.035567   -0.744516
 N   -7.078581   -0.228108   -0.421939
 C   -7.544153    0.015129    0.928296
 C   -7.967557   -0.658561   -1.375221
 O   -9.148038   -0.859430   -1.188748
 H    0.187524    1.951385    0.455917
 H    0.519677    3.784676    2.057012
 H    1.408052    5.976936    1.277614
 H    1.965380    6.293553   -1.119960
 H    1.638313    4.438000   -2.724720
 H   -0.324883    1.527506   -2.157133
 H    0.881691    2.252544   -3.241243
 H    3.353089    1.656646   -1.463328
 H    3.006396    1.397678   -3.183487
 H    2.842309   -1.122176   -2.591720
 H    4.424032   -0.386857   -2.803274
 H    4.416983   -1.982970   -1.004587
 H    7.569726    0.704902   -0.346618
 H    6.839903    0.973464    1.218908
 H    8.156635   -0.970414    2.178419
 H    9.231745    0.268976    1.498450
 H    8.908586   -1.230465    0.605026
 H    3.559641   -1.714021    1.116804
 H    2.370917    0.171392    2.042401
 H    3.820558    0.800124    1.262822
 H    2.250927    0.969516    0.467724
 H    1.280504   -1.056503   -0.789405
 H    0.614423   -0.800087    1.369871
 H    2.637614   -3.156455   -1.251600
 H    1.381531   -4.117502    1.365542
 H    3.104810   -3.899775    1.050663
 H    2.207916   -5.142486    0.171559
 H    0.508905   -2.929348   -2.248530
 H    0.709267   -4.578252   -1.664938
 H   -1.522787   -4.049929   -1.161920
 H   -0.737107   -3.816903    0.397173
 H   -1.544982   -1.832398    1.447590
 H   -4.065903   -2.045832    1.520256
 H   -3.228653   -3.453437    0.849152
 H   -4.066530   -2.316452   -0.225030
 H   -1.331361    0.350598    0.299387
 H   -2.787676    0.555965    4.474690
 H   -1.200096    1.349149    4.719170
 H   -2.532843    2.203322    3.893295
 H   -3.192417    0.150990   -1.327588
 H   -3.783530    2.570468   -1.143072
 H   -3.216601    2.593275    0.532930
 H   -2.064357    2.312139   -0.781242
 H   -5.006098    0.586677    1.134896
 H   -5.498987   -0.251611   -1.785426
 H   -7.364583    1.058782    1.207711
 H   -8.612471   -0.196220    0.955657
 H   -7.018197   -0.637570    1.633547
 H   -7.485211   -0.807584   -2.358072
