90 
4k42_ligand_ani.xyz
 C    0.552524    3.090943   -0.115549
 C    0.686658    3.989229    0.938496
 C    1.543430    5.080174    0.823833
 C    2.268168    5.265303   -0.348619
 C    2.134501    4.362543   -1.401671
 C    1.278281    3.268007   -1.297155
 C    1.152983    2.256717   -2.416776
 O    1.734170    0.996784   -2.116314
 C    3.144062    0.968343   -2.266299
 C    3.637624   -0.475139   -2.186912
 C    4.046664   -1.055251   -0.834620
 O    5.266728   -0.371909   -0.451909
 C    6.061966   -1.032016    0.408191
 O    5.811085   -2.131717    0.849737
 C    7.293482   -0.225469    0.750001
 C    8.196885   -0.946875    1.741387
 C    3.034916   -1.008857    0.329075
 C    2.839585    0.393524    0.914963
 C    1.680972   -1.647559   -0.037925
 O    0.876880   -1.723577    1.130922
 C    1.786226   -3.070165   -0.602508
 C    2.313870   -4.056868    0.445634
 C    0.476709   -3.560476   -1.263084
 C   -0.819958   -3.448388   -0.448453
 C   -1.490443   -2.094186   -0.586288
 O   -1.420753   -1.483348   -1.633721
 C   -2.280294   -1.522562    0.594756
 C   -3.575567   -2.320305    0.814001
 C   -2.438416    0.001524    0.409226
 O   -2.646000    0.642112    1.696682
 C   -1.551307    0.937203    2.403451
 O   -0.419656    0.669911    2.042725
 C   -1.872183    1.638702    3.694391
 C   -3.561054    0.469038   -0.527578
 C   -3.294695    1.930859   -0.931428
 C   -4.935178    0.336176    0.064855
 C   -5.964386   -0.109115   -0.660562
 N   -7.287833   -0.213968   -0.234771
 C   -7.677708    0.207179    1.099373
 C   -8.234376   -0.735445   -1.078292
 O   -9.406556   -0.878371   -0.806427
 H   -0.095546    2.221803   -0.004855
 H    0.120997    3.834160    1.853292
 H    1.647892    5.785131    1.645195
 H    2.939728    6.115107   -0.446332
 H    2.704635    4.509506   -2.317686
 H    0.093666    2.041333   -2.606653
 H    1.586202    2.661663   -3.345413
 H    3.638585    1.600082   -1.512170
 H    3.407109    1.375431   -3.256014
 H    2.861352   -1.105689   -2.633708
 H    4.530163   -0.573398   -2.815688
 H    4.335077   -2.099348   -0.999670
 H    7.821609   -0.010198   -0.187708
 H    6.958467    0.741715    1.146314
 H    7.661434   -1.157226    2.671415
 H    9.076657   -0.339804    1.975626
 H    8.532014   -1.904943    1.334471
 H    3.476093   -1.616694    1.127320
 H    2.243827    0.346364    1.832735
 H    3.805728    0.838505    1.169947
 H    2.325602    1.054672    0.216464
 H    1.193222   -0.998888   -0.782325
 H    0.495017   -0.846095    1.298303
 H    2.517261   -3.048301   -1.424167
 H    1.655349   -4.095698    1.318403
 H    3.317188   -3.780611    0.794168
 H    2.387352   -5.063608    0.019012
 H    0.325304   -3.019437   -2.204382
 H    0.632720   -4.614344   -1.525261
 H   -1.545854   -4.181788   -0.825362
 H   -0.657733   -3.674717    0.609065
 H   -1.654271   -1.663961    1.485859
 H   -4.203403   -1.863109    1.585244
 H   -3.327698   -3.336717    1.134704
 H   -4.161231   -2.400746   -0.106792
 H   -1.493518    0.381402    0.008120
 H   -2.490059    0.998736    4.331729
 H   -0.938292    1.873069    4.204780
 H   -2.428697    2.561264    3.500047
 H   -3.512270   -0.153132   -1.428764
 H   -4.021976    2.273335   -1.672861
 H   -3.353282    2.581782   -0.052311
 H   -2.293366    2.036024   -1.368748
 H   -5.066968    0.667175    1.091584
 H   -5.843268   -0.443587   -1.689371
 H   -7.459920    1.270502    1.241722
 H   -8.748485    0.034088    1.196258
 H   -7.139257   -0.372874    1.856626
 H   -7.811146   -1.019943   -2.059816
