85 
4k43_ligand_dft.xyz
 O   -7.061871   -0.010337    0.220914
 C   -6.116615    0.718930   -0.019638
 N   -5.156748    0.473115   -0.958085
 C   -5.244677   -0.700748   -1.805587
 C   -4.063290    1.343240   -1.149779
 C   -3.322804    1.862816   -0.171161
 C   -2.187930    2.810289   -0.448351
 C   -0.899922    2.047624   -0.787192
 O   -1.095703    1.341615   -2.001850
 C   -0.966699   -0.057863   -1.881229
 C    0.343788    2.954912   -0.966723
 C    0.095945    4.116473   -1.932728
 C    0.859456    3.469847    0.376184
 O    0.245185    4.306199    1.009825
 C    2.149560    2.864777    0.891622
 C    1.903096    1.401660    1.294285
 C    3.111124    0.600401    1.803714
 C    3.704790    1.215155    3.075606
 C    4.235690    0.319651    0.791210
 O    4.871815    1.550736    0.496880
 C    6.165772    1.444237   -0.036827
 C    3.908200   -0.464039   -0.511228
 C    3.242559    0.361113   -1.615883
 C    3.190394   -1.790656   -0.244030
 C    3.265748   -2.806660   -1.398200
 C    4.687149   -3.268060   -1.711921
 C    2.391015   -4.004984   -1.021756
 O    1.081394   -3.601839   -0.677406
 C    1.098103   -2.687319    0.377960
 O    1.819818   -1.526232    0.040912
 C   -0.312192   -2.295014    0.734615
 C   -0.531592   -1.204502    1.580374
 C   -1.813502   -0.825994    1.935787
 C   -2.915730   -1.553658    1.470099
 C   -2.706708   -2.651138    0.633370
 C   -1.407950   -3.009137    0.268914
 O   -4.129269   -1.128426    1.894029
 C   -5.230091   -2.004033    1.726017
 H   -5.950781    1.679279    0.495349
 H   -6.219313   -1.163878   -1.647481
 H   -5.139826   -0.413762   -2.857838
 H   -4.450239   -1.414013   -1.557060
 H   -3.849534    1.571072   -2.192821
 H   -3.502205    1.551143    0.855984
 H   -1.999732    3.467244    0.405802
 H   -2.435180    3.451056   -1.300936
 H   -0.699899    1.328252    0.019509
 H   -1.120329   -0.477785   -2.878830
 H   -1.718148   -0.471925   -1.195927
 H    0.027781   -0.355987   -1.519533
 H    1.110366    2.304243   -1.399682
 H   -0.560479    4.866000   -1.482451
 H   -0.360655    3.743147   -2.853804
 H    1.038480    4.609619   -2.192292
 H    2.488179    3.454945    1.747125
 H    2.917626    2.908071    0.112973
 H    1.151563    1.404964    2.096021
 H    1.454534    0.851901    0.463950
 H    2.713407   -0.388070    2.068766
 H    4.466001    0.556911    3.510062
 H    4.177900    2.178281    2.868200
 H    2.924309    1.369114    3.828690
 H    4.960861   -0.315098    1.335885
 H    6.785758    0.751871    0.553411
 H    6.611417    2.440584    0.004810
 H    6.163624    1.106627   -1.083523
 H    4.895964   -0.755615   -0.890524
 H    3.676174    1.364165   -1.651408
 H    2.166254    0.453956   -1.465786
 H    3.396963   -0.105362   -2.594266
 H    3.646214   -2.263041    0.648410
 H    2.818462   -2.342345   -2.284868
 H    5.290042   -2.467741   -2.150125
 H    4.673855   -4.094918   -2.430480
 H    5.198318   -3.620379   -0.807497
 H    2.292262   -4.700350   -1.859262
 H    2.850593   -4.547975   -0.176697
 H    1.606284   -3.158536    1.243669
 H    0.315359   -0.647560    1.964561
 H   -1.988152    0.016411    2.597374
 H   -3.540951   -3.236336    0.263433
 H   -1.250285   -3.857120   -0.388033
 H   -6.078690   -1.517802    2.203706
 H   -5.476378   -2.149514    0.669516
 H   -5.027607   -2.973217    2.198941
