55 
4k4e_ligand_xtb.xyz
 N   -4.233590   -1.277820    1.111052
 C   -4.176168   -0.013983    0.547448
 C   -4.777904    0.286844   -0.668272
 C   -4.766486    1.587059   -1.145657
 C   -4.171049    2.608783   -0.432962
 C   -3.556113    2.319231    0.778054
 C   -3.541816    1.027001    1.263360
 O   -2.896259    0.623270    2.416639
 C   -2.324422    1.609508    3.239926
Cl   -5.523507    1.930360   -2.661922
 C   -3.967014   -2.464202    0.337906
 C   -2.497240   -2.690800   -0.060255
 O   -2.179827   -3.615696   -0.776150
 N   -1.623267   -1.810320    0.463483
 C   -0.212462   -1.789711    0.139920
 C    0.085487   -0.692109   -0.886399
 C    1.575870   -0.644239   -1.201043
 C    0.604093   -1.561846    1.411601
 C    2.093999   -1.505607    1.094297
 C    2.377901   -0.395870    0.078967
 N    3.794999   -0.312549   -0.209895
 C    4.535918   -1.354298   -0.733812
 O    4.148829   -2.465938   -1.012736
 N    5.822640   -0.879900   -0.877456
 C    5.899052    0.430198   -0.463074
 C    4.606099    0.791130   -0.039311
 C    4.355286    2.064039    0.438300
 C    5.415356    2.957580    0.482917
 C    6.687785    2.596273    0.064387
 C    6.950764    1.322110   -0.417192
 H   -3.825784   -1.302126    2.036925
 H   -5.266408   -0.486600   -1.236509
 H   -4.175752    3.617455   -0.811439
 H   -3.078538    3.119113    1.320788
 H   -1.512990    2.138167    2.728923
 H   -3.072786    2.331664    3.577839
 H   -1.921534    1.076766    4.100275
 H   -4.549712   -2.450504   -0.584670
 H   -4.290799   -3.337222    0.911264
 H   -1.960434   -1.036136    1.014980
 H    0.024243   -2.766202   -0.293605
 H   -0.242835    0.272613   -0.486897
 H   -0.481730   -0.888103   -1.797253
 H    1.782249    0.148114   -1.923945
 H    1.894944   -1.593826   -1.631763
 H    0.407398   -2.365905    2.122421
 H    0.289684   -0.619696    1.871616
 H    2.419842   -2.455303    0.669624
 H    2.665693   -1.323116    2.007175
 H    2.086875    0.569978    0.506945
 H    6.576031   -1.435296   -1.244137
 H    3.372460    2.364326    0.766396
 H    5.243775    3.957345    0.851813
 H    7.487905    3.318737    0.113085
 H    7.938778    1.038136   -0.744124
