55 
4k4e_ligand_ani.xyz
 N   -4.362550   -1.372990    1.041292
 C   -4.245118   -0.057527    0.565573
 C   -4.904300    0.348356   -0.586354
 C   -4.822821    1.674754   -0.999757
 C   -4.078240    2.603388   -0.292478
 C   -3.392419    2.197911    0.853222
 C   -3.463136    0.877195    1.275863
 O   -2.791765    0.366419    2.357657
 C   -2.031969    1.273191    3.134035
Cl   -5.676145    2.163842   -2.436029
 C   -3.989228   -2.448627    0.151910
 C   -2.511551   -2.540732   -0.245025
 O   -2.170261   -3.200031   -1.216370
 N   -1.626728   -1.899406    0.560749
 C   -0.218284   -1.845015    0.215019
 C    0.050143   -0.792324   -0.867073
 C    1.540840   -0.695681   -1.189428
 C    0.609491   -1.556752    1.468843
 C    2.102446   -1.451118    1.149457
 C    2.366164   -0.398639    0.067627
 N    3.788831   -0.299986   -0.241192
 C    4.520492   -1.347289   -0.791390
 O    4.132745   -2.465527   -1.081834
 N    5.805348   -0.856310   -0.944288
 C    5.894778    0.451758   -0.496898
 C    4.616418    0.808242   -0.046833
 C    4.368512    2.068863    0.477793
 C    5.434952    2.961991    0.533305
 C    6.709007    2.601627    0.078088
 C    6.957725    1.338025   -0.444471
 H   -3.984077   -1.468915    1.973752
 H   -5.504522   -0.363853   -1.146371
 H   -4.027369    3.634306   -0.629506
 H   -2.803332    2.922549    1.404967
 H   -1.244384    1.748364    2.533972
 H   -2.668622    2.052307    3.571901
 H   -1.574938    0.688324    3.934946
 H   -4.558072   -2.389914   -0.779877
 H   -4.273594   -3.398244    0.621075
 H   -1.950304   -1.276641    1.287880
 H    0.053510   -2.828574   -0.188495
 H   -0.329621    0.181683   -0.520502
 H   -0.521398   -1.058312   -1.763778
 H    1.723244    0.084084   -1.935263
 H    1.898084   -1.643310   -1.611491
 H    0.435527   -2.344827    2.211462
 H    0.254445   -0.611213    1.914631
 H    2.480522   -2.413433    0.782334
 H    2.672746   -1.197122    2.047960
 H    2.062423    0.581170    0.455445
 H    6.548199   -1.419180   -1.323576
 H    3.382097    2.358375    0.836552
 H    5.271562    3.957355    0.938388
 H    7.520516    3.322909    0.134681
 H    7.948349    1.061183   -0.796329
