56 
4k4f_ligand_xtb.xyz
 C    3.925464    0.573319    1.759259
 C    4.111716    1.476373    2.790760
 C    4.698927    2.705230    2.543202
 C    5.097659    3.031482    1.258037
 C    4.908392    2.131681    0.224908
 C    4.321724    0.895977    0.467655
 C    4.144677   -0.085826   -0.668262
 C    5.276696   -1.149732   -0.756736
 C    6.542243   -0.800998    0.016288
 C    5.600025   -1.464890   -2.218865
 O    4.688416   -2.310906   -0.164386
 C    3.351703   -2.197847   -0.095488
 O    2.643391   -3.090978    0.273641
 N    2.978417   -0.932086   -0.492369
 C    1.673520   -0.449736   -0.609610
 C    0.582785   -1.320664   -0.599472
 C   -0.702011   -0.836631   -0.734159
 C    1.442184    0.915864   -0.781854
 C    0.155371    1.387946   -0.933695
 C   -0.936812    0.526436   -0.897859
 C   -2.293543    1.111433   -1.084102
 O   -2.476148    2.136990   -1.711131
 N   -3.287189    0.399385   -0.477773
 C   -4.650528    0.637990   -0.466316
 C   -5.288953    1.651367   -1.143819
 C   -6.680749    1.787308   -1.060364
 C   -7.439700    0.929517   -0.311345
 C   -5.415294   -0.273394    0.319640
 C   -6.823217   -0.121007    0.396555
 C   -7.524712   -1.050212    1.193234
 C   -6.834858   -2.038065    1.842880
 C   -5.439381   -2.096477    1.692028
 N   -4.755266   -1.256051    0.965109
 H    3.466592   -0.384016    1.960872
 H    3.796883    1.217609    3.790477
 H    4.843481    3.408466    3.349349
 H    5.553359    3.989747    1.058449
 H    5.214417    2.390157   -0.779425
 H    4.076521    0.458605   -1.617145
 H    7.257751   -1.611444   -0.091239
 H    6.322386   -0.672042    1.072429
 H    6.977296    0.116182   -0.370216
 H    6.257778   -2.328688   -2.267189
 H    4.688280   -1.696258   -2.766252
 H    6.092778   -0.616428   -2.685851
 H    0.747154   -2.377814   -0.479337
 H   -1.518542   -1.543813   -0.745494
 H    2.259727    1.618107   -0.789726
 H   -0.024282    2.442506   -1.077904
 H   -3.048424   -0.404990    0.094497
 H   -4.710893    2.340155   -1.736942
 H   -7.154182    2.591723   -1.603532
 H   -8.512345    1.042020   -0.250569
 H   -8.599432   -0.967216    1.278757
 H   -7.339542   -2.764448    2.460955
 H   -4.863733   -2.866363    2.190288
