44 
4k4j_ligand_ani.xyz
 C   -2.848406    1.605206    1.146367
 C   -4.372959    1.658287    1.249365
 C   -4.906837    0.258688    1.539431
 C   -4.428513   -0.751592    0.517742
 C   -5.191823   -1.882688    0.243068
 C   -4.792919   -2.823410   -0.695763
 C   -3.601658   -2.631240   -1.393002
 C   -2.820538   -1.521151   -1.132934
 C   -3.201156   -0.568429   -0.157521
 C   -2.362385    0.598041    0.132231
 C   -1.102290    0.686606   -0.390625
 C   -0.401471    1.901982   -0.769668
 C   -1.231025    3.083835   -1.214629
 C    0.952075    1.940848   -0.809976
 C    1.827988    0.904800   -0.288434
 C    3.163095    0.933870   -0.446424
 C    4.117074   -0.085648    0.004145
 C    3.573406   -1.311657    0.709297
 C    5.411389    0.102540   -0.293728
 C    6.572538   -0.680849    0.221896
 O    7.553379   -0.892344   -0.439074
 O    6.489164   -1.150954    1.490370
 H   -2.431129    1.313099    2.123488
 H   -2.428647    2.594838    0.938466
 H   -4.799357    2.030860    0.307426
 H   -4.677109    2.358743    2.035828
 H   -6.003705    0.259438    1.573515
 H   -4.571818   -0.056252    2.539887
 H   -6.129997   -2.026384    0.777389
 H   -5.409234   -3.696661   -0.891510
 H   -3.280349   -3.354114   -2.139345
 H   -1.909916   -1.367776   -1.704880
 H   -0.539843   -0.232838   -0.550024
 H   -1.296473    3.869016   -0.448872
 H   -0.809199    3.546808   -2.113620
 H   -2.243405    2.748765   -1.444975
 H    1.441357    2.801405   -1.266427
 H    1.352846    0.089110    0.261195
 H    3.611978    1.779482   -0.965461
 H    4.327147   -2.096332    0.812028
 H    3.181399   -1.061984    1.701580
 H    2.742788   -1.730453    0.133223
 H    5.687539    0.843536   -1.040187
 H    5.711266   -0.774157    1.925890
