54 
4k5y_ligand_dft.xyz
 C    0.190423   -2.045380    2.527909
 C    4.561832    0.062448    0.172401
 C   -2.655490    0.366678   -0.544472
 C    1.127516    1.360370   -2.023758
 C    0.951664    0.458371   -0.833454
 C    2.054915   -0.072521   -0.140044
 C    1.810954   -0.905081    0.970768
 C    0.505897   -1.164234    1.349099
 C   -0.309486    0.108082   -0.346499
 C   -3.349705   -0.731020   -1.046333
 C   -6.720296   -0.226242    0.671581
 C   -2.667342   -1.692018   -1.980920
 C   -2.404093    2.406284    0.897823
 C   -4.667271   -0.910257   -0.629166
 C   -5.281188   -0.031060    0.262591
 C   -4.540927    1.046544    0.747927
 C   -3.221073    1.264566    0.357226
 C    4.522393    2.512223    0.910245
 C    5.309522    1.402024    0.217809
 C    5.432098   -1.057555   -0.414304
 C    4.760097   -2.427169   -0.378185
 N    3.322472    0.216371   -0.575757
 N   -0.555025   -0.662508    0.698669
 O   -1.376494    0.622046   -1.022879
 H    1.097063   -2.431751    3.001866
 H   -0.384910   -1.485212    3.272082
 H   -0.429778   -2.889736    2.210775
 H    4.297238   -0.201746    1.202656
 H    1.711713    2.256048   -1.768910
 H    1.644811    0.850749   -2.848268
 H    0.159839    1.694145   -2.398420
 H    2.626485   -1.365270    1.514700
 H   -7.399967    0.291944   -0.016003
 H   -6.995791   -1.285648    0.668059
 H   -6.906615    0.167899    1.675628
 H   -2.234375   -1.170796   -2.840826
 H   -1.847371   -2.205758   -1.465975
 H   -3.368062   -2.446830   -2.348777
 H   -1.577516    2.028544    1.510837
 H   -1.963297    2.997488    0.088565
 H   -3.015509    3.067711    1.518069
 H   -5.226582   -1.763210   -1.008881
 H   -5.000589    1.736513    1.453016
 H    3.570513    2.701197    0.403386
 H    4.293988    2.240228    1.946767
 H    5.090385    3.447483    0.923990
 H    5.562768    1.702442   -0.809789
 H    6.265395    1.246947    0.732058
 H    6.379984   -1.091475    0.138063
 H    5.682779   -0.793723   -1.450896
 H    4.569415   -2.746195    0.653151
 H    3.800823   -2.404666   -0.904614
 H    5.390834   -3.187128   -0.849921
 H    3.383513    0.836079   -1.369194
