17 
4k5z_ligand_xtb.xyz
 O   -2.237666   -2.188474    0.000315
 C   -1.988382   -1.006283   -0.000079
 N   -2.903110    0.002092    0.001566
 C   -2.347015    1.332171    0.000128
 C   -0.668751   -0.323180   -0.001647
 C    0.601603   -0.868884   -0.001968
 C    1.671760    0.013329   -0.000596
Cl    3.283768   -0.607441    0.000922
 C   -0.873556    1.055804   -0.000957
 C    0.200715    1.923006   -0.000385
 C    1.481004    1.390468    0.000176
 H   -3.894010   -0.171503    0.004179
 H   -2.655222    1.897822    0.887981
 H   -2.656836    1.896321   -0.888169
 H    0.744396   -1.937444   -0.002821
 H    0.056606    2.992696    0.000092
 H    2.339847    2.043163    0.001545
