17 
4k5z_ligand_ani.xyz
 O   -2.211581   -2.209529    0.000347
 C   -1.988014   -1.015273   -0.000032
 N   -2.923923   -0.010722    0.000896
 C   -2.375807    1.333840   -0.000094
 C   -0.668735   -0.312196   -0.001226
 C    0.603607   -0.864008   -0.001510
 C    1.675325    0.019568   -0.000420
Cl    3.301082   -0.605144    0.000638
 C   -0.888120    1.060960   -0.000708
 C    0.191755    1.931276   -0.000115
 C    1.481825    1.402500    0.000267
 H   -3.908124   -0.225459    0.004606
 H   -2.688068    1.898098    0.886842
 H   -2.688959    1.896956   -0.887465
 H    0.747141   -1.939959   -0.002395
 H    0.043772    3.008144    0.000246
 H    2.344924    2.060952    0.001296
