61 
4k64_ligand_xtb.xyz
 C    0.281310   -0.811283    1.257231
 C   -0.074085   -0.853708   -0.249477
 C   -0.748326   -2.183686   -0.600593
 C   -2.157269   -2.260914    0.005712
 C   -2.946873   -1.039997   -0.494734
 C   -2.208226    0.239848   -0.083670
 C   -2.922145    1.516936   -0.609587
 C   -3.437531    2.353035    0.577715
 C   -4.172809    3.598752    0.079829
 C   -5.305106   -1.665899   -0.570512
 C   -6.666170   -1.372710    0.009802
 N   -4.294972   -1.002505    0.029806
 O   -0.063195    0.050680    2.019412
 O    1.025030   -1.849558    1.607873
 O   -2.766802   -3.479034   -0.316574
 O   -0.885355    0.255014   -0.589953
 O   -2.100816    2.306594   -1.420908
 O   -4.306960    1.558551    1.357380
 O   -4.682816    4.264765    1.219773
 O   -5.112772   -2.447418   -1.485902
 C    5.437063    1.091022   -1.122405
 C    5.970423    0.396464    0.145495
 C    5.287854   -0.964987    0.297660
 C    3.764796   -0.769601    0.303736
 C    3.335838    0.052202   -0.923470
 C    1.851924    0.417470   -0.856852
 O    6.027887    2.335747   -1.286449
 O    7.361573    0.203353    0.069794
 O    5.644230   -1.573622    1.516611
 O    3.373747   -0.120335    1.487919
 O    4.049638    1.264284   -1.037119
 O    1.088561   -0.769768   -1.014563
 H   -0.812525   -2.249625   -1.687583
 H   -0.133705   -3.006020   -0.239640
 H   -2.082787   -2.212019    1.104670
 H   -3.004233   -1.103648   -1.591621
 H   -2.178754    0.279433    1.013092
 H   -3.793214    1.217305   -1.210416
 H   -2.580006    2.673613    1.187649
 H   -3.473229    4.225077   -0.480635
 H   -4.993553    3.294015   -0.584047
 H   -6.804568   -0.302811    0.139835
 H   -6.749646   -1.855612    0.981091
 H   -7.432960   -1.771398   -0.647753
 H   -4.485229   -0.316888    0.748749
 H    1.312140   -1.763196    2.532815
 H   -3.486690   -3.322880   -0.953903
 H   -1.202582    1.953924   -1.349323
 H   -4.765825    2.172751    1.947278
 H   -5.060451    5.106148    0.947905
 H    5.711039    0.483370   -2.004210
 H    5.716048    1.025581    1.015146
 H    5.581019   -1.602900   -0.549488
 H    3.275261   -1.753255    0.240425
 H    3.509834   -0.566429   -1.817963
 H    1.650359    0.905241    0.099048
 H    1.625953    1.116058   -1.669350
 H    5.477758    2.979131   -0.821948
 H    7.745211    0.989368   -0.340292
 H    6.606533   -1.539409    1.581402
 H    3.934012   -0.489082    2.186815
