61 
4k66_ligand_dft.xyz
 C    0.457717   -1.788791    1.575566
 C    0.234363   -1.236173    0.142350
 C   -0.551768   -2.241565   -0.690986
 C   -2.044072   -2.229031   -0.366025
 C   -2.578485   -0.798275   -0.528340
 C   -1.771498    0.210419    0.308149
 C   -1.936458    1.668936   -0.164050
 C   -3.272554    2.377474    0.112626
 C   -3.671899    2.427210    1.590638
 C   -4.983901   -0.998928   -1.001662
 C   -6.374258   -0.620257   -0.541913
 N   -3.978286   -0.686978   -0.152434
 O    1.410681   -2.446495    1.911369
 O   -0.555700   -1.501316    2.408379
 O   -2.682045   -3.151671   -1.209374
 O   -0.370485    0.018921    0.170457
 O   -0.961850    2.488232    0.448068
 O   -3.154365    3.701678   -0.358755
 O   -4.207132    1.166820    1.995782
 O   -4.789899   -1.558471   -2.080631
 C    3.736658    1.915058   -0.432108
 C    2.561833    1.056003   -0.900291
 C    2.358114   -0.095590    0.075904
 C    3.689405   -0.822356    0.328218
 C    4.822119    0.155948    0.645801
 C    6.188278   -0.521241    0.768298
 O    3.895183    2.909317   -1.390337
 O    1.404022    1.866351   -0.986857
 O    1.470012   -1.068682   -0.476662
 O    4.038151   -1.571106   -0.821793
 O    4.916274    1.173116   -0.333959
 O    6.696714   -1.018564   -0.435492
 H   -0.415553   -1.956490   -1.739343
 H   -0.143099   -3.247617   -0.561246
 H   -2.205977   -2.529270    0.680638
 H   -2.489506   -0.537854   -1.592643
 H   -2.039656    0.114260    1.365711
 H   -1.790282    1.672582   -1.255245
 H   -4.076705    1.901535   -0.455751
 H   -2.794359    2.691981    2.193788
 H   -4.428861    3.212559    1.696471
 H   -6.371540    0.005563    0.354426
 H   -6.873989   -0.090176   -1.356411
 H   -6.943796   -1.533296   -0.345451
 H   -4.194160   -0.209254    0.718146
 H   -0.350772   -1.939451    3.251172
 H   -3.388578   -2.696413   -1.706389
 H   -0.091677    2.195946    0.114695
 H   -2.247982    3.962791   -0.129980
 H   -4.326438    1.169765    2.951125
 H    3.492999    2.354263    0.557175
 H    2.823307    0.640944   -1.881312
 H    1.961503    0.301902    1.018256
 H    3.552977   -1.491733    1.186971
 H    4.585778    0.607611    1.627534
 H    6.095003   -1.304294    1.541516
 H    6.907360    0.218304    1.133912
 H    4.643395    3.461806   -1.131525
 H    1.658476    2.631833   -1.521866
 H    3.266074   -2.113046   -1.037437
 H    5.976018   -1.503989   -0.864514
