61 
4k67_ligand_dft.xyz
 C    0.215867   -0.795941    1.212451
 C   -0.097080   -0.893858   -0.304251
 C   -0.776631   -2.196597   -0.694973
 C   -2.209293   -2.297354   -0.170788
 C   -2.997434   -1.039024   -0.574727
 C   -2.217967    0.223096   -0.176513
 C   -2.873607    1.540880   -0.693780
 C   -3.272724    2.425912    0.487992
 C   -3.892810    3.738585    0.041537
 C   -5.382961   -1.649935   -0.292003
 C   -6.692404   -1.226944    0.338915
 N   -4.298483   -0.932089    0.075788
 O   -0.049506    0.143577    1.920376
 O    0.865356   -1.885904    1.637046
 O   -2.743862   -3.483426   -0.689974
 O   -0.897952    0.200987   -0.688061
 O   -2.037878    2.264122   -1.559922
 O   -4.220493    1.705627    1.265109
 O   -4.380289    4.351655    1.228159
 O   -5.326440   -2.599247   -1.073157
 C    5.420011    1.041495   -1.078940
 C    5.929779    0.364113    0.184843
 C    5.247672   -0.984584    0.348625
 C    3.728930   -0.814559    0.333130
 C    3.314783    0.008523   -0.891830
 C    1.842774    0.389144   -0.870219
 O    6.043610    2.277868   -1.163864
 O    7.320120    0.123098    0.147368
 O    5.594265   -1.572689    1.587513
 O    3.314688   -0.156180    1.511929
 O    4.028777    1.229380   -0.988982
 O    1.094228   -0.813352   -1.011739
 H   -0.801368   -2.223700   -1.788649
 H   -0.193963   -3.051451   -0.346896
 H   -2.198037   -2.329225    0.934625
 H   -3.138476   -1.060560   -1.664416
 H   -2.168976    0.261390    0.918376
 H   -3.791651    1.285312   -1.241734
 H   -2.376415    2.638612    1.090430
 H   -3.140394    4.354510   -0.462456
 H   -4.713426    3.532524   -0.662010
 H   -7.458710   -1.203170   -0.438931
 H   -6.635642   -0.250876    0.827510
 H   -6.992083   -1.979396    1.074386
 H   -4.437637   -0.135554    0.692839
 H    1.166926   -1.690045    2.538688
 H   -3.689436   -3.338162   -0.890839
 H   -1.159213    1.860566   -1.498959
 H   -4.627546    2.358046    1.854254
 H   -4.911084    5.117546    0.986408
 H    5.649536    0.414290   -1.962276
 H    5.653332    1.011128    1.028838
 H    5.552492   -1.634941   -0.486017
 H    3.249852   -1.800552    0.257336
 H    3.506719   -0.609410   -1.785726
 H    1.614438    0.910832    0.063451
 H    1.628069    1.058936   -1.709102
 H    5.747314    2.711330   -1.973914
 H    7.753595    0.979880    0.042134
 H    6.547499   -1.445412    1.692678
 H    3.895239   -0.499661    2.208235
