82 
4k8s_ligand_ani.xyz
 C    3.579147    4.226181   -0.211836
 C    4.295673    4.510491   -1.554411
 C    3.904679    3.086224   -2.015284
 C    3.611822    2.729739   -0.543356
 C    2.378792    1.912134   -0.231282
 O    4.767500    2.167812    0.075816
 C    4.886738    0.807526    0.141263
 C    6.105577    0.323171    0.619611
 C    6.303663   -1.041788    0.749357
 C    5.296947   -1.949178    0.415258
 C    5.482851   -3.440164    0.573634
 C    4.426558   -4.069988    1.483946
 C    4.084081   -1.438807   -0.044694
 C    3.860148   -0.072888   -0.212037
 C    2.557287    0.490384   -0.763891
 N    1.367493   -0.325278   -0.436155
 C    0.946751   -1.332852   -1.432685
 C    0.151965   -2.444137   -0.741315
 O    0.883598   -2.707814    0.456796
 C   -1.362910   -2.185210   -0.457013
 C   -2.087664   -1.526485   -1.641811
 C   -3.588012   -1.422171   -1.464073
 C   -4.179961   -0.163056   -1.392842
 C   -4.399867   -2.552347   -1.359217
 C   -5.773926   -2.414886   -1.198688
 C   -6.349073   -1.148585   -1.146172
 C   -5.559082   -0.002090   -1.251043
 C   -6.164272    1.385813   -1.206027
 C   -5.555456    2.277110   -0.116326
 C   -5.771714    1.744586    1.303032
 C   -4.890936    2.438621    2.349066
 C   -3.412392    2.034674    2.288181
 C   -3.151801    0.613814    2.795177
 C   -1.703397    0.147266    2.570613
 C   -1.423612   -0.209517    1.117226
 O   -1.031838    0.619639    0.294818
 N   -1.653849   -1.510828    0.807566
 H    2.552170    4.602982   -0.202884
 H    4.077755    4.508249    0.717829
 H    5.375911    4.620025   -1.428156
 H    3.920151    5.347220   -2.149794
 H    2.984068    3.081398   -2.608663
 H    4.662419    2.474850   -2.510263
 H    1.491726    2.369509   -0.687115
 H    2.229860    1.885261    0.855511
 H    6.882519    1.033157    0.887863
 H    7.255305   -1.413393    1.125778
 H    6.484239   -3.640025    0.972854
 H    5.446801   -3.927516   -0.411901
 H    4.585380   -5.148707    1.581553
 H    3.416913   -3.914542    1.089206
 H    4.461903   -3.627486    2.484543
 H    3.289690   -2.146159   -0.268712
 H    2.639969    0.543387   -1.858385
 H    1.524410   -0.862000    0.437228
 H    0.554015    0.298752   -0.274426
 H    0.375911   -0.868720   -2.241614
 H    1.832692   -1.781081   -1.897242
 H    0.184728   -3.328878   -1.397690
 H    0.422037   -3.380953    0.972393
 H   -1.794167   -3.184143   -0.321126
 H   -1.852949   -2.107467   -2.544570
 H   -1.698307   -0.516411   -1.783639
 H   -3.542324    0.717377   -1.450831
 H   -3.954545   -3.545245   -1.406454
 H   -6.401968   -3.299106   -1.114069
 H   -7.425064   -1.045061   -1.017305
 H   -7.248251    1.302091   -1.054862
 H   -6.025931    1.876325   -2.180105
 H   -4.480224    2.382576   -0.311060
 H   -5.972663    3.289054   -0.197679
 H   -6.828572    1.865603    1.573921
 H   -5.577819    0.664043    1.317601
 H   -4.977803    3.527778    2.226538
 H   -5.274850    2.214155    3.354445
 H   -2.823850    2.735704    2.895276
 H   -3.026721    2.129949    1.265518
 H   -3.372952    0.572399    3.869299
 H   -3.842004   -0.094188    2.316664
 H   -1.483927   -0.721518    3.204289
 H   -1.011442    0.944940    2.856729
 H   -1.975466   -2.100043    1.560034
