29 
4k9g_ligand_ani.xyz
 O    4.884227   -0.259302    0.718586
 C    3.574561   -0.313811    0.378169
 C    2.945646    0.778767   -0.219597
 F    3.718724    1.874358   -0.430512
 C    1.619801    0.769843   -0.584508
 C    0.869192   -0.386908   -0.343213
 C    1.482279   -1.490040    0.254045
 C    2.823298   -1.459611    0.614720
 C   -0.546304   -0.413117   -0.726698
 N   -1.073554    0.575931   -1.345446
 O   -2.409528    0.331298   -1.586262
 C   -2.825864   -0.889245   -0.934679
 C   -1.519227   -1.540125   -0.478598
 C   -3.794935   -0.536068    0.200622
 C   -3.140330    0.436184    1.172891
 O   -2.411197    0.039580    2.057383
 C   -3.423777    1.901753    0.964280
 H    5.217558    0.613486    0.465069
 H    1.174000    1.643485   -1.048336
 H    0.909673   -2.394849    0.444895
 H    3.302023   -2.314929    1.080099
 H   -3.354306   -1.468928   -1.696688
 H   -1.262517   -2.424090   -1.077041
 H   -1.538557   -1.839097    0.573863
 H   -4.083207   -1.441473    0.745155
 H   -4.694894   -0.088576   -0.234685
 H   -2.769583    2.496995    1.604509
 H   -4.469728    2.112717    1.219215
 H   -3.278149    2.166186   -0.085582
