29 
4k9g_ligand_dft.xyz
 O    4.810960   -0.568284    0.636139
 C    3.511316   -0.459590    0.281917
 C    2.947232    0.779308   -0.037313
 F    3.769722    1.851828    0.029959
 C    1.631466    0.924467   -0.402992
 C    0.813693   -0.214357   -0.458358
 C    1.362567   -1.458360   -0.139160
 C    2.698716   -1.585110    0.226895
 C   -0.593978   -0.096620   -0.851035
 N   -1.112764    1.036166   -1.151731
 O   -2.446553    0.871987   -1.496248
 C   -2.866638   -0.471468   -1.173559
 C   -1.561227   -1.245719   -0.976061
 C   -3.777964   -0.437718    0.065335
 C   -3.031630   -0.003721    1.321988
 O   -2.427367   -0.819148    1.989615
 C   -3.063416    1.465261    1.662947
 H    5.202410    0.315894    0.620291
 H    1.237203    1.905322   -0.642765
 H    0.742935   -2.348751   -0.169914
 H    3.126537   -2.550059    0.475237
 H   -3.444586   -0.828802   -2.028951
 H   -1.303008   -1.872768   -1.836712
 H   -1.581036   -1.870437   -0.078869
 H   -4.168272   -1.446743    0.233111
 H   -4.613509    0.236922   -0.146896
 H   -2.415646    1.668001    2.516927
 H   -4.091390    1.766462    1.898436
 H   -2.746924    2.050667    0.792910
