82 
4k9h_ligand_ani.xyz
 O    1.087447    2.955179    0.613884
 C    2.192782    3.435964    0.793771
 C    2.462789    4.839503    1.300003
 C    3.941277    5.059347    0.984465
 C    4.533241    3.647173    1.013886
 N    3.405195    2.803871    0.602937
 C    3.530253    1.497990    0.112579
 C    2.571860    0.965766   -0.707652
 C    4.705667    0.709692    0.497983
 O    5.614326    1.123816    1.207103
 N    4.732384   -0.600901   -0.009350
 C    5.908406   -1.436164    0.299816
 C    5.539230   -2.836792    0.842788
 C    5.983862   -3.844166   -0.234175
 C    7.200707   -3.169785   -0.876802
 C    6.784178   -1.692621   -0.951366
 C    3.750570   -1.106006   -0.811633
 C    2.657916   -0.366320   -1.152825
 C    1.473365   -0.924441   -1.885676
 O    1.210392   -0.635328   -3.050897
 N    0.625142   -1.666221   -1.122120
 C   -0.796063   -1.736088   -1.455148
 C   -1.463406   -2.878932   -0.672405
 C   -1.762240   -2.602934    0.783973
 C   -3.036399   -2.175360    1.164455
 C   -3.318463   -1.843522    2.485543
 C   -2.333443   -1.955018    3.462384
 C   -1.067777   -2.406108    3.102469
 C   -0.785660   -2.725906    1.776384
 C   -1.513823   -0.359553   -1.326509
 O   -1.305567    0.450051   -2.483868
 C   -1.109134    0.469379   -0.078018
 N   -1.307189    1.919112   -0.331148
 C   -2.597528    2.458913    0.172358
 C   -3.813255    1.834021   -0.486357
 C   -4.659945    1.000645    0.247495
 C   -4.109897    2.073916   -1.832623
 C   -5.240535    1.516712   -2.419924
 C   -6.087245    0.700493   -1.677402
 C   -5.790899    0.447304   -0.342683
 C   -6.660118   -0.495239    0.438182
 F   -6.279271   -1.779833    0.257551
 F   -6.607677   -0.253993    1.760749
 F   -7.951170   -0.419253    0.064989
 H    1.788787    5.552730    0.823040
 H    2.259365    4.850646    2.376606
 H    4.440148    5.728037    1.689259
 H    4.055622    5.477672   -0.020058
 H    5.365086    3.512092    0.324746
 H    4.874475    3.350426    2.009077
 H    1.721079    1.571396   -0.999865
 H    6.459166   -0.874244    1.051294
 H    4.474046   -2.900401    1.089908
 H    6.093884   -3.020898    1.770036
 H    6.200276   -4.833746    0.179652
 H    5.189645   -3.969707   -0.981552
 H    7.456286   -3.582515   -1.858161
 H    8.080205   -3.284822   -0.229801
 H    7.634141   -1.002879   -1.003158
 H    6.173871   -1.521880   -1.845152
 H    3.888816   -2.124589   -1.162031
 H    0.861702   -1.806431   -0.148768
 H   -0.834600   -1.990683   -2.518535
 H   -2.403272   -3.129724   -1.181640
 H   -0.813992   -3.756208   -0.776116
 H   -3.821220   -2.099727    0.413027
 H   -4.318335   -1.507208    2.754395
 H   -2.551404   -1.701999    4.495939
 H   -0.289042   -2.507614    3.854262
 H    0.208832   -3.086534    1.516295
 H   -2.595915   -0.555426   -1.283450
 H   -0.514443    0.127063   -2.954846
 H   -1.688860    0.160911    0.794946
 H   -0.054535    0.333072    0.172433
 H   -0.507695    2.450538    0.048307
 H   -1.298202    1.970602   -1.370488
 H   -2.653097    2.282091    1.252434
 H   -2.599303    3.542401    0.024392
 H   -4.433005    0.785800    1.288448
 H   -3.451790    2.702850   -2.430544
 H   -5.462437    1.719801   -3.464032
 H   -6.974376    0.264883   -2.125951
