63 
4k9y_ligand_ani.xyz
 C   -7.625853    1.595727    1.613744
 N   -6.460757    1.247624    1.082352
 C   -6.589646    0.243377    0.209675
 C   -7.782786   -0.376365   -0.138766
 C   -8.947763    0.100324    0.490514
 N   -8.848540    1.095827    1.378394
 N   -7.580553   -1.384750   -1.059773
 N   -5.610164   -0.418076   -0.517926
 C   -6.295011   -1.372610   -1.251523
 C   -2.287619    1.249096   -0.622325
 C   -1.426678    0.148693   -0.583951
 C   -1.964093   -1.138932   -0.522067
 C   -3.339977   -1.304769   -0.500925
 C   -4.200469   -0.206827   -0.526876
 C   -3.663242    1.079869   -0.584142
 N    4.584721    0.077524    0.062275
 C    3.396119   -0.582054   -0.070735
 C    3.659061   -1.926237    0.076309
 C    5.059669   -1.996926    0.257690
 N    5.612514   -0.793602    0.227531
 C    5.884731   -3.250114    0.426711
 C    4.870230    1.466905    0.036459
 C    6.086975    1.863952   -0.511538
 C    6.410027    3.210806   -0.571097
 C    5.547141    4.186694   -0.061946
 C    4.351589    3.765341    0.516461
 C    4.004595    2.419023    0.571235
 C    5.912286    5.647597   -0.127515
 N    2.224596    0.118557   -0.362477
 C    0.968252   -0.475704   -0.285879
 O    0.810556   -1.627495    0.066748
 N   -0.040253    0.397955   -0.633097
 C    5.831000   -4.066165   -0.876594
 C    7.334402   -2.888437    0.750137
 C    5.294150   -4.089902    1.570160
 N  -10.163019   -0.415853    0.202287
 H   -7.590540    2.403337    2.340168
 H   -5.765033   -2.020728   -1.941350
 H   -1.878562    2.255319   -0.674033
 H   -1.308166   -1.997222   -0.488840
 H   -3.753227   -2.308463   -0.436437
 H   -4.322900    1.941910   -0.590961
 H    2.924577   -2.712814    0.043496
 H    6.766710    1.101845   -0.882073
 H    7.357665    3.513206   -1.013492
 H    3.666035    4.503294    0.927693
 H    3.074738    2.116035    1.042751
 H    6.846897    5.847920    0.409422
 H    6.056048    5.976277   -1.163342
 H    5.132537    6.273544    0.315835
 H    2.339258    0.970633   -0.896882
 H    0.206911    1.370727   -0.739622
 H    4.794155   -4.311175   -1.130226
 H    6.263662   -3.502443   -1.710235
 H    6.390832   -5.001647   -0.765141
 H    7.777864   -2.295923   -0.054578
 H    7.391088   -2.303909    1.673276
 H    7.926564   -3.801614    0.880050
 H    5.342832   -3.545451    2.519380
 H    4.245764   -4.331341    1.368912
 H    5.848194   -5.028733    1.681395
 H  -10.217880   -1.245946   -0.366640
 H  -10.952831   -0.137311    0.761236
