63 
4k9y_ligand_dft.xyz
 C   -7.703902    1.859138    1.011971
 N   -6.502518    1.385656    0.695285
 C   -6.590675    0.193092    0.095136
 C   -7.759916   -0.502455   -0.192006
 C   -8.961927    0.119091    0.194818
 N   -8.908726    1.309536    0.805838
 N   -7.496218   -1.705159   -0.816925
 N   -5.571410   -0.617631   -0.365935
 C   -6.195700   -1.728700   -0.899831
 C   -2.286656    1.088388   -0.431106
 C   -1.409109    0.022538   -0.200503
 C   -1.931421   -1.259455   -0.007882
 C   -3.306968   -1.451515   -0.045584
 C   -4.171939   -0.390706   -0.296668
 C   -3.656155    0.889307   -0.487307
 N    4.626344    0.133303    0.106754
 C    3.462456   -0.582648    0.079706
 C    3.801125   -1.912877    0.115277
 C    5.219659   -1.913815    0.141070
 N    5.712632   -0.687218    0.122953
 C    6.121449   -3.127338    0.194382
 C    4.802073    1.535905    0.036611
 C    5.733788    2.064024   -0.857586
 C    5.909586    3.437127   -0.931988
 C    5.159503    4.314032   -0.139098
 C    4.239606    3.766746    0.753234
 C    4.066597    2.388217    0.857821
 C    5.359475    5.804417   -0.248130
 N    2.242003    0.080756   -0.019610
 C    1.014820   -0.559455    0.016172
 O    0.893132   -1.754980    0.199118
 N   -0.035557    0.319261   -0.169274
 C    5.806323   -4.039332   -1.004396
 C    7.595460   -2.709006    0.145140
 C    5.847588   -3.891281    1.502360
 N  -10.167355   -0.440044   -0.048545
 H   -7.716506    2.826684    1.508244
 H   -5.615240   -2.517861   -1.358969
 H   -1.894670    2.092284   -0.577177
 H   -1.266289   -2.088399    0.185576
 H   -3.705363   -2.443639    0.142892
 H   -4.325506    1.723528   -0.658415
 H    3.118575   -2.745429    0.112820
 H    6.315588    1.385506   -1.471228
 H    6.640943    3.841108   -1.627573
 H    3.662461    4.423094    1.399346
 H    3.389172    1.975347    1.599589
 H    6.396559    6.079384   -0.026922
 H    5.137127    6.159648   -1.260591
 H    4.713180    6.347170    0.447468
 H    2.293015    1.055410   -0.280356
 H    0.184386    1.298665   -0.270302
 H    4.762023   -4.369782   -0.992752
 H    5.985338   -3.516319   -1.949996
 H    6.442952   -4.931530   -0.979779
 H    7.821251   -2.165183   -0.777213
 H    7.849307   -2.055923    0.985038
 H    8.234193   -3.598629    0.188842
 H    6.062823   -3.261684    2.372250
 H    4.801610   -4.210399    1.565796
 H    6.479657   -4.785311    1.559942
 H  -10.214619   -1.390116   -0.379050
 H  -10.982231   -0.017639    0.366120
