13 
4kab_ligand_ani.xyz
 C   -0.050378   -0.445776   -0.002111
 C   -0.736478    0.808431    0.000015
 N    1.406081    1.251477   -0.001121
 N    0.070927    1.811822   -0.000269
 C    1.339695   -0.047822   -0.001660
 N   -2.159250   -0.922526    0.000574
 N   -0.830092   -1.469446   -0.002591
 C   -2.127196    0.366991    0.002298
 C    2.474606   -0.998143    0.002428
 H   -3.046089    0.947850    0.005915
 H    2.408264   -1.630269    0.892137
 H    2.397453   -1.651950   -0.870436
 H    3.425219   -0.467009   -0.009580
