13 
4kab_ligand_xtb.xyz
 C   -0.033395   -0.494289    0.136990
 C   -0.763325    0.797756    0.213137
 N    1.366078    1.227675   -0.088022
 N    0.090433    1.670169   -0.195687
 C    1.360227   -0.070150    0.014942
 N   -2.174857   -0.908277   -0.048355
 N   -0.901083   -1.357759   -0.246048
 C   -2.143223    0.375545    0.130743
 C    2.551909   -0.928847    0.082684
 H   -3.027968    0.962766    0.272904
 H    2.509787   -1.543321    0.982369
 H    2.571153   -1.604156   -0.772986
 H    3.449882   -0.318032    0.093525
