13 
4kab_ligand_dft.xyz
 C   -0.061699   -0.477427    0.001873
 C   -0.748121    0.797320    0.002199
 N    1.421142    1.223110   -0.001072
 N    0.046275    1.794514   -0.001378
 C    1.365661   -0.065179    0.000027
 N   -2.229794   -0.906770   -0.000867
 N   -0.846742   -1.480104   -0.001669
 C   -2.161158    0.376973    0.000719
 C    2.562505   -0.944123    0.000422
 H   -3.054531    0.987737    0.001457
 H    2.554023   -1.590351    0.884568
 H    2.549723   -1.597067   -0.878692
 H    3.471491   -0.340965   -0.003878
