45 
4kc1_ligand_dft.xyz
 O   -3.256587    2.354205   -0.297047
 C   -2.080366    2.094745   -0.476446
 N   -1.129408    2.443755    0.494841
 C    0.220012    2.187649    0.491265
 O    0.952150    2.579190    1.392707
 C   -1.493062    1.432526   -1.625954
 C   -0.177913    1.146184   -1.632193
 N    0.667746    1.457610   -0.590914
 C    2.116029    1.112422   -0.639124
 O    2.328052    0.222623   -1.692814
 C    2.604380    0.429733    0.662399
 O    3.337356    1.274819    1.500854
 C    3.530079   -0.669240    0.133422
 O    4.821574   -0.150395   -0.076926
 C    2.938343   -0.996891   -1.235379
 C    1.942394   -2.163955   -1.306007
 N    0.642387   -1.887676   -0.739081
 C    0.341097   -2.042217    0.570349
 O    1.131817   -2.435991    1.417638
 C   -1.053008   -1.589585    0.926479
 C   -1.353335   -1.297939    2.247403
 C   -2.618079   -0.782474    2.529181
 C   -3.519570   -0.594878    1.494065
 C   -3.135601   -0.941067    0.194945
 N   -1.926504   -1.423095   -0.076089
 C   -4.071630   -0.781312   -0.986837
 O   -3.447283   -1.083306   -2.206923
 H   -1.472029    2.944343    1.305186
 H   -2.144676    1.116097   -2.428831
 H    0.308823    0.637756   -2.453509
 H    2.673709    2.038849   -0.813920
 H    1.756264   -0.019148    1.188887
 H    2.717493    1.977668    1.761052
 H    3.539913   -1.538495    0.801335
 H    4.961240    0.506692    0.622148
 H    3.763744   -1.215451   -1.919015
 H    1.789733   -2.426360   -2.356465
 H    2.376153   -3.032599   -0.801110
 H   -0.105288   -1.558547   -1.332002
 H   -0.603523   -1.460202    3.012661
 H   -2.888754   -0.523266    3.548058
 H   -4.503888   -0.174061    1.672144
 H   -4.949929   -1.426746   -0.826198
 H   -4.420174    0.257380   -1.015208
 H   -2.653612   -1.589434   -1.971848
