45 
4kc4_ligand_ani.xyz
 O   -3.040037    2.907886    0.174123
 C   -1.891757    2.591366   -0.075986
 N   -0.863342    2.876454    0.827308
 C    0.447199    2.479856    0.761281
 O    1.262707    2.789395    1.621013
 C   -1.423841    1.921640   -1.281802
 C   -0.141110    1.531651   -1.377266
 N    0.764160    1.703499   -0.342173
 C    2.125239    1.164830   -0.422944
 O    2.225520    0.378015   -1.588362
 C    2.485697    0.241560    0.752868
 O    3.194940    0.903327    1.762667
 C    3.384040   -0.812249    0.106331
 O    4.719597   -0.364787    0.098320
 C    2.891397   -0.866567   -1.339839
 C    1.947019   -2.028579   -1.667138
 N    0.623079   -1.885631   -1.107540
 C    0.272549   -2.350438    0.111391
 O    1.035172   -2.962370    0.850822
 C   -1.137514   -2.012298    0.536327
 C   -1.540045   -2.368639    1.815318
 C   -2.821035   -2.015641    2.217906
 C   -3.641381   -1.322871    1.335267
 C   -3.151446   -1.008045    0.069991
 N   -1.926211   -1.362023   -0.331684
 C   -4.007120   -0.229198   -0.924609
 O   -3.481274   -0.248195   -2.227562
 H   -1.116045    3.397194    1.657257
 H   -2.150649    1.691327   -2.049345
 H    0.290349    1.052408   -2.245580
 H    2.833953    2.002669   -0.466418
 H    1.576493   -0.226472    1.146532
 H    2.699261    1.720866    1.961739
 H    3.284537   -1.780713    0.619201
 H    4.797013    0.223344    0.867288
 H    3.764663   -0.918217   -1.999381
 H    1.847537   -2.107926   -2.754236
 H    2.381221   -2.960842   -1.294033
 H   -0.076357   -1.367319   -1.615764
 H   -0.847950   -2.903291    2.458698
 H   -3.177251   -2.275029    3.212419
 H   -4.649691   -1.029213    1.618650
 H   -5.018287   -0.658324   -0.932135
 H   -4.103738    0.811855   -0.581097
 H   -2.639203   -0.722852   -2.155916
