57 
4kcx_ligand_ani.xyz
 C   -0.070317   -0.692847    0.051205
 N    2.109300    0.419674    0.038790
 C    2.888210   -0.807939    0.058015
 C    4.751869    0.345016    1.306106
 C    7.035181   -0.024551    0.640395
 C   -2.016507   -2.772062    0.777978
 C   -3.691949   -3.974092   -0.635680
 C   -3.730480   -1.431184   -0.400944
 C   -4.545848   -0.057528    1.620335
 C   -3.349224    4.258985    0.436108
 C   -2.759178    3.755338   -0.888311
 C   -1.420582    3.101059   -0.745794
 C   -0.123918    3.656762   -0.790219
 N    0.847881    2.782351   -0.562342
 N    0.174753    1.609300   -0.363686
 C   -1.191057    1.749704   -0.475575
 N   -2.024062    0.709164   -0.333382
 C   -1.481294   -0.488926   -0.056057
 C    0.759511    0.394179   -0.092539
 C    4.349945   -0.503539    0.277466
 C    6.112760    0.569717    1.479583
 N    6.636925   -0.846950   -0.370515
 C    5.301923   -1.080606   -0.538889
 O    7.483221   -1.388198   -1.141315
 N   -2.357668   -1.530325    0.093827
 C   -2.248079   -3.969347   -0.136894
 C   -4.031170   -2.638465   -1.299664
 C   -4.763464   -1.281013    0.728816
 O   -4.579080    1.150838    0.894484
 H    0.356521   -1.678526    0.179785
 H    2.539150    1.242693   -0.369282
 H    2.513457   -1.438613    0.875617
 H    2.770886   -1.387692   -0.872373
 H    4.011140    0.814752    1.948215
 H    8.108589    0.101180    0.703009
 H   -2.641705   -2.879084    1.676556
 H   -0.985384   -2.727100    1.128454
 H   -3.849396   -4.792802   -1.347068
 H   -4.376157   -4.159794    0.204983
 H   -3.778981   -0.530667   -1.018174
 H   -5.354886   -0.014553    2.358997
 H   -3.602202   -0.153890    2.179550
 H   -2.673358    4.974915    0.913897
 H   -4.307302    4.760217    0.263675
 H   -3.523967    3.434096    1.135374
 H   -3.457428    3.042538   -1.350833
 H   -2.683035    4.596251   -1.589769
 H    0.123725    4.692847   -0.983912
 H    6.475234    1.219634    2.268337
 H    5.087826   -1.747656   -1.365791
 H   -2.011650   -4.898358    0.396762
 H   -1.564204   -3.901432   -0.992871
 H   -5.084783   -2.604016   -1.603204
 H   -3.432473   -2.527381   -2.212285
 H   -4.779939   -2.184122    1.352327
 H   -5.756247   -1.198504    0.266211
 H   -3.724457    1.189480    0.416979
