19 
4keq_ligand_ani.xyz
 C    3.404647   -0.516968   -0.004602
 C    1.900763   -0.513095    0.000558
 N    1.284129   -1.700295    0.004391
 C   -0.049387   -1.754099    0.005166
 C   -0.806881   -0.592197    0.002381
 C   -2.270928   -0.379337   -0.002294
 O   -3.161038   -1.183040   -0.007603
 O   -2.490396    0.969230   -0.000848
 C   -1.262518    1.700273    0.005280
 C   -0.192063    0.640711    0.002541
 C    1.188728    0.702433    0.000329
 O    1.890864    1.870176   -0.002722
 H    3.775632   -1.049940    0.876773
 H    3.768975   -1.056455   -0.884815
 H    3.809722    0.495611   -0.009906
 H   -0.515322   -2.736518    0.007736
 H   -1.241681    2.329096    0.901350
 H   -1.238576    2.338955   -0.883561
 H    1.262746    2.604063   -0.005078
