19 
4keq_ligand_dft.xyz
 C    3.401545   -0.535672    0.000010
 C    1.897795   -0.509894    0.000041
 N    1.277746   -1.696645    0.000218
 C   -0.053125   -1.752359   -0.000094
 C   -0.808540   -0.591631    0.000105
 C   -2.273023   -0.383481    0.000392
 O   -3.168302   -1.179475   -0.000644
 O   -2.489277    0.971730    0.000195
 C   -1.265110    1.699232    0.000334
 C   -0.189204    0.644952   -0.000016
 C    1.194004    0.710926   -0.000159
 O    1.904230    1.870815   -0.000094
 H    3.758711   -1.075659    0.882216
 H    3.758656   -1.078590   -0.880417
 H    3.827870    0.467888   -0.001601
 H   -0.517143   -2.734385    0.000357
 H   -1.238616    2.336439    0.891763
 H   -1.238852    2.337192   -0.890576
 H    1.305896    2.626635   -0.002602
