21 
4kfq_ligand_xtb.xyz
 O    0.195844    3.555339   -0.000047
 C    0.289323    2.352835   -0.000552
 C   -0.814155    1.402594    0.002178
 N   -2.084922    1.692159    0.005514
 N   -2.765538    0.559518    0.004436
 C   -1.923322   -0.445323    0.000515
 S   -2.634153   -2.032637   -0.003692
 N   -0.626829    0.018352   -0.000681
 C    0.657625   -0.536630   -0.000683
 C    0.935825   -1.899409    0.002967
 C    2.237436   -2.361478    0.004285
 C    3.296742   -1.468111    0.002155
 C    3.044521   -0.113305   -0.001638
 C    1.736531    0.369001   -0.002868
 N    1.517506    1.727188   -0.005248
 H   -1.517516   -2.762523   -0.013392
 H    0.136289   -2.622237    0.005723
 H    2.420249   -3.424022    0.007588
 H    4.313130   -1.828254    0.003811
 H    3.858047    0.596407   -0.002971
 H    2.324808    2.338548   -0.007598
