21 
4kfq_ligand_ani.xyz
 O    0.185002    3.590221    0.013506
 C    0.288969    2.383314    0.002015
 C   -0.850935    1.427760    0.012706
 N   -2.120459    1.709073    0.007755
 N   -2.796890    0.540721    0.005475
 C   -1.929936   -0.448735    0.002783
 S   -2.447520   -2.133287    0.047190
 N   -0.649836    0.066598    0.016924
 C    0.651225   -0.513593    0.017327
 C    0.884315   -1.883954    0.056544
 C    2.185054   -2.366350    0.037220
 C    3.265045   -1.486576   -0.012835
 C    3.040063   -0.119633   -0.037354
 C    1.737584    0.373531   -0.017629
 N    1.511602    1.755296   -0.027808
 H   -2.433933   -2.360064   -1.277992
 H    0.058543   -2.582165    0.110481
 H    2.355483   -3.438723    0.062763
 H    4.282842   -1.866942   -0.028750
 H    3.874622    0.577456   -0.070491
 H    2.303523    2.384866   -0.040192
