20 
4kif_ligand_ani.xyz
 C   -2.879097   -0.221203   -0.049062
 O   -3.676890    0.620662   -0.698654
 O   -3.227575   -1.275852    0.409894
 C   -1.430880    0.313051    0.055115
 O   -1.197587    1.389625   -0.454415
 C   -0.434774   -0.538816    0.802685
 C    0.996333   -0.300480    0.386130
 C    1.708041   -1.275621   -0.308899
 C    3.029324   -1.055431   -0.689960
 C    3.652269    0.146806   -0.370388
 C    2.946336    1.127641    0.321798
 C    1.624462    0.906852    0.691298
 H   -3.128294    1.387269   -0.956597
 H   -0.730930   -1.585537    0.672470
 H   -0.569993   -0.323784    1.872883
 H    1.226000   -2.220434   -0.555767
 H    3.571961   -1.825960   -1.232469
 H    4.685286    0.320934   -0.661322
 H    3.426490    2.070742    0.570647
 H    1.063816    1.684503    1.203254
