20 
4kif_ligand_xtb.xyz
 C   -2.894681   -0.152623    0.037057
 O   -3.657555    0.688075   -0.642448
 O   -3.289668   -1.087711    0.672864
 C   -1.394207    0.227608   -0.092624
 O   -1.127825    1.190395   -0.774239
 C   -0.447414   -0.646835    0.661369
 C    0.993693   -0.354426    0.352665
 C    1.714942   -1.183474   -0.495234
 C    3.034391   -0.896954   -0.798756
 C    3.642271    0.225133   -0.262760
 C    2.926222    1.059709    0.578606
 C    1.608668    0.771036    0.885162
 H   -3.075634    1.352718   -1.073587
 H   -0.711954   -1.685169    0.443911
 H   -0.664752   -0.490697    1.723901
 H    1.242839   -2.058743   -0.918613
 H    3.587988   -1.550754   -1.456416
 H    4.671465    0.449183   -0.500376
 H    3.395204    1.937558    0.997684
 H    1.051924    1.424777    1.541177
