60 
4kio_ligand_xtb.xyz
 C    4.060386    1.797225    3.289816
 C    3.139882    2.215624    2.430442
 C    3.162414    1.774927    1.024023
 O    3.925500    0.864945    0.648385
 N    2.359825    2.391044    0.157530
 C    1.349379    3.393920    0.458765
 C    0.662315    3.658865   -0.883288
 C    0.902897    2.360155   -1.670565
 C    2.322235    2.016511   -1.244840
 N   -0.068483    1.352998   -1.303186
 C    0.011630    0.220707   -0.585148
 N    1.175712   -0.366769   -0.279736
 C    1.105414   -1.522997    0.383560
 C    2.415812   -2.179399    0.758625
 N    3.573434   -1.629231    0.038468
 C    4.852430   -2.121701    0.592558
 C    6.012921   -1.466315   -0.162327
 O    5.938058   -1.752115   -1.536283
 C    4.743564   -1.259959   -2.083977
 C    3.529459   -1.908017   -1.410889
 C   -0.080909   -2.115926    0.751915
 C   -1.253640   -1.415049    0.399720
 N   -2.483782   -1.884470    0.722258
 C   -3.664773   -1.254883    0.440079
 N   -4.791860   -1.771424    0.770916
 C   -5.829350   -0.966356    0.399847
 C   -7.189958   -1.189104    0.586118
 C   -8.063403   -0.222319    0.124722
 C   -7.563353    0.920301   -0.498210
 N   -6.275834    1.149831   -0.684915
 C   -5.445045    0.230445   -0.247546
 S   -3.703683    0.304733   -0.379801
 N   -1.186816   -0.270554   -0.254131
 H    4.850322    1.136571    2.970138
 H    4.067015    2.109383    4.318988
 H    2.357653    2.891237    2.734973
 H    0.633940    2.994968    1.184818
 H    1.803407    4.299353    0.867693
 H    1.137226    4.490017   -1.402736
 H   -0.394960    3.882764   -0.762673
 H    0.830335    2.522566   -2.750736
 H    2.551485    0.959906   -1.357261
 H    3.042150    2.616070   -1.811796
 H   -1.032471    1.619943   -1.458136
 H    2.578317   -2.027276    1.830436
 H    2.349997   -3.256100    0.574972
 H    3.574915   -0.557861    0.182013
 H    4.895102   -3.207696    0.472530
 H    4.909427   -1.866863    1.650722
 H    5.986311   -0.381184    0.008512
 H    6.964827   -1.868190    0.186095
 H    4.763380   -1.507345   -3.146059
 H    4.693403   -0.167461   -1.964633
 H    2.601911   -1.510232   -1.822187
 H    3.562016   -2.990936   -1.560475
 H   -0.118389   -3.050964    1.282613
 H   -2.570216   -2.766370    1.209756
 H   -7.530757   -2.088206    1.074487
 H   -9.127775   -0.345442    0.243320
 H   -8.225328    1.691051   -0.866209
