75 
4kju_ligand_xtb.xyz
 C    2.260128   -4.104766    0.254489
 O    2.251966   -2.699650    0.361911
 C    3.441241   -2.025606    0.300647
 C    4.643055   -2.641958   -0.091014
 C    5.802343   -1.924018   -0.123207
 C    5.826380   -0.564259    0.236697
 C    7.034517    0.163579    0.216696
 C    7.067171    1.481632    0.569543
 C    5.881681    2.120173    0.959430
 C    4.695404    1.441457    0.988617
 C    4.616031    0.075287    0.627203
 C    3.411766   -0.680197    0.639965
 C    2.092602   -0.085324    1.070916
 N    1.014243   -0.300801    0.090205
 C    0.067682   -1.196598    0.468478
 O   -0.091718   -1.526911    1.632417
 C   -0.813787   -1.914892   -0.582065
 C   -1.306259   -0.998123   -1.698084
 N   -1.925745   -2.427628    0.196824
 C   -3.107883   -2.806666   -0.272404
 O   -3.386983   -3.066643   -1.427316
 C   -4.260195   -2.802248    0.765340
 C   -4.785793   -4.208903    0.994267
 N   -5.264152   -1.930612    0.090863
 C   -6.502586   -1.653645    0.823943
 C    0.927852    0.658029   -0.937325
 C    2.076931    1.305381   -1.387198
 C    1.997735    2.401419   -2.226738
 C    0.768653    2.889596   -2.634644
 C   -0.381757    2.228278   -2.247021
 C   -0.309145    1.123348   -1.412990
 N   -1.464846    0.344353   -1.169608
 C   -2.625279    0.751933   -0.616556
 O   -3.616514    0.003197   -0.617279
 C   -2.669651    2.088583   -0.011606
 C   -3.842859    2.837457   -0.133685
 C   -3.940273    4.093075    0.414806
 C   -2.870881    4.637710    1.138702
 N   -2.975040    5.860057    1.718007
 C   -1.711376    3.865512    1.297585
 C   -1.611052    2.618448    0.729171
 H    2.505692   -4.432265   -0.761037
 H    2.956215   -4.558526    0.964588
 H    1.247193   -4.422056    0.500717
 H    4.653527   -3.683899   -0.365713
 H    6.724196   -2.399457   -0.422653
 H    7.936144   -0.349903   -0.082861
 H    7.993378    2.034671    0.553985
 H    5.909682    3.161972    1.241818
 H    3.811680    1.976139    1.300456
 H    2.175218    0.983404    1.260687
 H    1.769327   -0.580946    1.990395
 H   -0.217496   -2.739813   -0.993205
 H   -2.260559   -1.357936   -2.088756
 H   -0.586181   -0.966875   -2.516680
 H   -1.746394   -2.312931    1.196223
 H   -3.958926   -2.327475    1.701364
 H   -5.622627   -4.222011    1.686845
 H   -5.086687   -4.654958    0.048572
 H   -3.994272   -4.822447    1.416106
 H   -4.753096   -1.032305   -0.144720
 H   -5.451892   -2.378471   -0.818634
 H   -7.075163   -2.565377    0.979661
 H   -6.263044   -1.212297    1.789559
 H   -7.111256   -0.950193    0.260463
 H    3.044741    0.947280   -1.083098
 H    2.907811    2.878249   -2.554603
 H    0.704838    3.756704   -3.271848
 H   -1.351891    2.557228   -2.586744
 H   -4.669219    2.423900   -0.692951
 H   -4.844612    4.670219    0.293990
 H   -2.162191    6.291180    2.119870
 H   -3.753746    6.452516    1.492323
 H   -0.892260    4.261326    1.878989
 H   -0.717755    2.035644    0.893244
