74 
4kjv_ligand_ani.xyz
 C    2.645582   -5.736331   -1.692270
 O    1.857360   -4.740456   -1.080587
 C    2.435517   -3.538400   -0.802318
 C    3.775493   -3.252289   -1.143293
 C    4.296772   -2.025113   -0.831895
 C    3.526272   -1.064981   -0.135442
 C    4.090443    0.193351    0.200249
 C    3.382331    1.125860    0.912776
 C    3.958302    2.461619    1.220299
 O    5.299226    2.483923    1.258922
 O    3.293804    3.465485    1.411199
 C    2.077771    0.807404    1.354551
 C    1.518968   -0.412333    1.074163
 C    2.187852   -1.373576    0.242156
 C    1.607824   -2.600856   -0.200216
 C    0.138691   -2.995733   -0.130333
 N   -0.821686   -1.920665    0.090619
 C   -0.813246   -0.902497   -0.835042
 O   -0.277783   -1.018710   -1.922893
 C   -1.685993   -1.912461    1.212634
 C   -1.258811   -2.365101    2.460363
 C   -2.115019   -2.353344    3.558042
 C   -3.418201   -1.883475    3.412870
 C   -3.853779   -1.421340    2.175090
 C   -2.998368   -1.419464    1.078371
 O   -3.446116   -0.994560   -0.145241
 C   -2.993090    0.305475   -0.604821
 C   -3.367250    0.378428   -2.082395
 C   -4.882470    0.342071   -2.225533
 O   -5.489129    1.411519   -1.523559
 C   -5.228483    1.342238   -0.134838
 C   -3.732832    1.409341    0.153948
 C   -1.460019    0.404970   -0.385039
 N   -0.807622    1.487230   -1.087636
 C   -0.501693    2.640009   -0.440661
 O   -1.019917    2.960892    0.624781
 C    0.524218    3.608053   -1.065291
 C    1.616666    2.944581   -1.904516
 N    1.041663    4.381720    0.098336
 C    1.525930    5.726584   -0.219348
 H    1.998989   -6.607981   -1.800237
 H    3.512660   -6.001092   -1.073293
 H    2.995696   -5.419460   -2.683611
 H    4.385204   -3.987546   -1.655607
 H    5.322466   -1.780341   -1.102502
 H    5.107987    0.411227   -0.112566
 H    5.555561    3.400066    1.461168
 H    1.529632    1.534884    1.944633
 H    0.554439   -0.666557    1.497949
 H   -0.113193   -3.486755   -1.077578
 H   -0.017689   -3.749302    0.646952
 H   -0.231814   -2.703347    2.576280
 H   -1.763635   -2.712243    4.521547
 H   -4.096172   -1.871708    4.261397
 H   -4.865509   -1.045780    2.046591
 H   -2.898852   -0.448126   -2.627174
 H   -2.983315    1.316696   -2.498184
 H   -5.265675   -0.620879   -1.857234
 H   -5.175232    0.458602   -3.273308
 H   -5.750582    2.189810    0.318501
 H   -5.650447    0.413721    0.279195
 H   -3.337122    2.375717   -0.175361
 H   -3.536479    1.333793    1.229654
 H   -1.301010    0.555284    0.687618
 H   -0.245890    1.179735   -1.873631
 H   -0.040423    4.304670   -1.703360
 H    1.202794    2.530592   -2.829147
 H    2.372640    3.682104   -2.197256
 H    2.119896    2.136105   -1.360049
 H    0.242635    4.395852    0.759793
 H    1.791129    3.843327    0.563110
 H    1.744681    6.283794    0.694913
 H    0.774001    6.285865   -0.788570
 H    2.440300    5.690393   -0.824409
