30 
4km0_ligand_xtb.xyz
 N    2.898540   -1.547858   -0.261942
 C    3.583349   -0.442076    0.027498
 C    1.575113   -1.455578   -0.253710
 C    0.910024   -0.241794    0.040388
 C    1.731817    0.839446    0.344318
 N    3.057916    0.736005    0.340744
 C   -0.559557   -0.174254    0.031513
 C   -1.307565   -0.973235    0.895039
 C   -2.688952   -0.924496    0.890265
 C   -3.336217   -0.073335    0.009055
 C   -2.614347    0.725934   -0.862737
 C   -1.233514    0.671570   -0.847177
 N    0.890351   -2.602112   -0.511509
 N    4.934684   -0.519902   -0.043638
 C    1.197168    2.189282    0.728692
 C    1.529880    3.229871   -0.339952
Cl   -5.066820   -0.010060   -0.004879
 H   -0.797226   -1.628824    1.585088
 H   -3.262006   -1.539575    1.566363
 H   -3.130194    1.381835   -1.546658
 H   -0.668046    1.285763   -1.531565
 H    1.431955   -3.362292   -0.885825
 H   -0.077408   -2.535643   -0.775699
 H    5.344085   -1.436403   -0.072682
 H    5.458709    0.237748    0.356325
 H    1.678512    2.484761    1.663140
 H    0.119701    2.137510    0.889202
 H    2.604442    3.258707   -0.498474
 H    1.049292    2.982001   -1.283818
 H    1.190515    4.214498   -0.027199
