39 
4km2_ligand_xtb.xyz
 C    3.219801   -0.055477    1.451427
 N    4.322449    0.377732    0.853956
 C    4.418801    0.124611   -0.449206
 N    5.510696    0.605378   -1.095163
 N    3.513784   -0.514507   -1.190048
 C    2.413752   -0.940972   -0.579325
 N    1.527833   -1.641567   -1.339929
 C    2.210351   -0.736288    0.803373
 C    0.969988   -1.217358    1.502905
 C   -0.275002   -0.606290    0.910075
 C   -1.364923   -1.397045    0.579019
 C   -2.505349   -0.835192    0.013289
 O   -3.607039   -1.557065   -0.354329
 C   -3.598144   -2.949364   -0.161016
 C   -2.553729    0.545322   -0.221198
 O   -3.616935    1.163889   -0.835447
 C   -4.861660    1.073859   -0.173304
 C   -1.448137    1.342745    0.120124
 O   -1.586077    2.670122   -0.134352
 C   -0.492868    3.517359    0.118455
 C   -0.318488    0.760464    0.678282
 H    3.156187    0.156692    2.512647
 H    6.281666    0.904298   -0.524948
 H    5.695511    0.246761   -2.014902
 H    1.688081   -1.589112   -2.332831
 H    0.567672   -1.661309   -1.036274
 H    1.038883   -0.944198    2.559778
 H    0.910320   -2.307738    1.442590
 H   -1.316100   -2.458483    0.766129
 H   -2.798921   -3.431801   -0.732884
 H   -3.498416   -3.210140    0.897768
 H   -4.561502   -3.300843   -0.527688
 H   -5.219084    0.042730   -0.118773
 H   -4.798732    1.490253    0.838169
 H   -5.552687    1.669676   -0.766911
 H   -0.236546    3.540150    1.183036
 H    0.389046    3.223106   -0.459616
 H   -0.813888    4.509599   -0.194567
 H    0.539223    1.357299    0.943188
