52 
4kn1_ligand_ani.xyz
 C   -3.269215    1.234825   -0.152832
 N   -3.206423   -0.039962    0.335200
 O   -4.217177    1.656682   -0.797096
 N    2.911980   -2.306819   -0.411330
 O   -5.385070   -0.329686    2.010803
 C    3.945272   -2.789063    0.261748
 O   -6.200299   -2.018635    0.780552
 N    4.925095   -2.099625    0.892823
 C    4.850165   -0.782129    0.821318
 N    3.735135    1.224362    0.053413
 C    2.710378    1.744105   -0.612082
 C    1.743396    0.917989   -1.203639
 N    1.798462   -0.408618   -1.134775
 C    2.595200    3.258853   -0.670985
 C   -4.200266   -1.014893   -0.007978
 C   -3.581586   -2.399848   -0.259881
 C   -1.173915   -1.876893   -1.004306
 C   -2.545732   -2.412404   -1.388042
 C   -5.294215   -1.056679    1.056519
 N    1.744323    3.851225    0.373063
 C   -2.040290    2.046821    0.105875
 C   -1.613550    2.939696   -0.877435
 C   -0.391088    3.582030   -0.754767
 C    0.417001    3.355008    0.363261
 C   -0.078618    2.571660    1.413401
 C   -1.285110    1.901771    1.270807
 C    3.787446   -0.117142    0.114370
 C    2.830904   -0.962021   -0.479567
 N    4.056329   -4.144741    0.318044
 N    5.786981   -0.034388    1.423364
 O   -0.818606   -1.642470    0.137895
 O   -0.393707   -1.701908   -2.058219
 H   -2.326180   -0.388362    0.697277
 H   -6.863994   -1.967787    1.488083
 H    0.903706    1.356852   -1.731993
 H    3.593359    3.697284   -0.589484
 H    2.184666    3.548924   -1.644560
 H   -4.698387   -0.663760   -0.922698
 H   -3.117017   -2.769724    0.662281
 H   -4.394658   -3.085788   -0.509865
 H   -2.384509   -3.441048   -1.734919
 H   -2.895172   -1.849176   -2.261996
 H    2.163827    3.710666    1.285651
 H   -2.236962    3.094480   -1.752681
 H   -0.047655    4.261716   -1.533053
 H    0.518928    2.417900    2.311742
 H   -1.641178    1.261632    2.077155
 H    4.681993   -4.524209    1.010290
 H    3.236881   -4.673985    0.066707
 H    6.535196   -0.484132    1.926673
 H    5.719015    0.969582    1.368671
 H    0.486778   -1.323090   -1.728085
