31 
4kne_ligand_ani.xyz
 N    2.989746    0.882173   -0.446640
 C    3.682189   -0.262455   -0.126311
 N    2.847268   -1.351641    0.124809
 C    1.474782   -1.381892   -0.123289
 N    0.863107   -0.128840   -0.179379
 C    1.646488    1.103936    0.075927
 N    4.958037   -0.258113   -0.092085
 N    0.913908   -2.517730   -0.265559
 C    1.050610    2.265557   -0.709449
 C    1.678480    1.409082    1.575810
 C   -0.567065   -0.094203   -0.101758
 C   -1.316651    0.102487   -1.260509
 C   -2.706479    0.130749   -1.215386
 C   -3.347281   -0.044902    0.005236
 C   -2.620831   -0.257211    1.171341
 C   -1.231352   -0.285591    1.111440
Cl   -5.087003   -0.006126    0.073141
 H    3.596012    1.690676   -0.435633
 H    3.261197   -2.270485    0.147857
 H    5.316470   -1.176310    0.160283
 H   -0.082076   -2.406412   -0.443468
 H    0.032562    2.491375   -0.381600
 H    1.663574    3.161529   -0.568602
 H    1.033920    2.012049   -1.773084
 H    2.282445    2.302903    1.766508
 H    0.667263    1.591117    1.950405
 H    2.114532    0.566483    2.120954
 H   -0.792404    0.237810   -2.203643
 H   -3.287369    0.287766   -2.117976
 H   -3.135830   -0.402933    2.114946
 H   -0.653042   -0.475723    2.013320
