37 
4kni_ligand_ani.xyz
 C    0.868396    0.469345    1.201199
 C    2.860773    0.321462   -0.162773
 C    2.363966    1.338501   -0.978679
Cl    2.657289   -1.353916    2.004808
 C    2.102265   -0.110590    0.936079
 S    4.442728   -0.443475   -0.493045
 O    4.198921   -1.824776   -0.871971
 N    4.992259    0.349646   -1.859988
 O    5.346022   -0.093552    0.589476
 C    0.375269    1.472964    0.369375
 C    1.129080    1.908168   -0.718749
 C   -0.965129    2.057780    0.691815
 O   -1.336963    2.178788    1.836499
 C   -1.854178    2.463546   -0.481371
 S   -3.607077    2.118011   -0.208789
 C   -3.625068    0.357441   -0.283395
 N   -2.493151   -0.285546   -0.518772
 C   -2.563507   -1.626518   -0.557890
 C   -1.270945   -2.349136   -0.799663
 C   -3.768628   -2.288149   -0.387537
 C   -4.906050   -1.505536   -0.157633
 N   -4.837418   -0.178161   -0.098654
 C   -6.254256   -2.135907    0.035194
 H    0.281543    0.134348    2.051924
 H    2.948093    1.676793   -1.826568
 H    5.098660   -0.313459   -2.620900
 H    5.866168    0.822056   -1.651507
 H    0.752391    2.702163   -1.357308
 H   -1.529816    1.957878   -1.395535
 H   -1.785102    3.544694   -0.628891
 H   -0.856082   -2.063153   -1.770897
 H   -0.544386   -2.058076   -0.034102
 H   -1.397779   -3.435025   -0.772495
 H   -3.832146   -3.371935   -0.426147
 H   -6.531100   -2.743404   -0.833601
 H   -6.255850   -2.796086    0.909627
 H   -7.006508   -1.358295    0.178021
