31 
4knj_ligand_xtb.xyz
 O   -3.939215    1.248802    1.205836
 C    2.005465    1.650292    0.542983
 C    0.343367   -1.050786   -0.550484
 C   -1.611632    0.325309   -0.813105
Cl   -2.434477    1.667549   -1.479816
 C   -0.301189    0.029213   -1.150498
 C   -0.353772   -1.857201    0.346721
 C   -1.670984   -1.565996    0.662794
 C   -2.290593   -0.470459    0.096579
 S   -3.973967    0.007268    0.494425
 N   -4.416671   -1.197301    1.582943
 O   -4.794316   -0.126769   -0.669512
 C    1.772445   -1.270977   -0.942001
 O    2.196763   -0.895133   -2.010296
 C    2.613915   -2.143724   -0.017802
 S    4.279895   -1.418324    0.159267
 C    3.752695    0.207906    0.428531
 N    4.668948    1.137389    0.658294
 C    4.232499    2.369366    0.828822
 C    2.880647    2.698042    0.780974
 N    2.438999    0.414187    0.375037
 H    0.932771    1.784891    0.483528
 H    0.233957    0.626601   -1.871996
 H    0.109686   -2.725316    0.787349
 H   -2.229274   -2.177831    1.352710
 H   -4.642108   -0.809173    2.484848
 H   -5.176384   -1.752104    1.222288
 H    2.763689   -3.125516   -0.466640
 H    2.187829   -2.235178    0.977774
 H    4.996676    3.114048    1.007558
 H    2.532448    3.707134    0.917178
