60 
4knr_ligand_dft.xyz
 C   -5.915744   -3.952934    1.180159
 O   -6.607884   -2.806089    0.746207
 C   -5.872997   -1.752949    0.324861
 C   -4.501976   -1.696845    0.276279
 C   -3.840422   -0.528212   -0.181366
 C   -4.594541    0.601806   -0.558116
 C   -6.006850    0.525288   -0.506372
 C   -6.638358   -0.616152   -0.086208
 O   -7.981329   -0.752229   -0.014791
 N   -4.020535    1.776875   -0.953011
 C   -2.709036    1.790991   -0.982277
 N   -1.884443    0.762272   -0.689696
 C   -2.419724   -0.371915   -0.293348
 N   -1.579997   -1.410444    0.023386
 C   -0.168524   -1.362071    0.031428
 C    0.550610   -2.469318   -0.417975
 C    1.938606   -2.463357   -0.397290
 C    2.636702   -1.345322    0.064096
 C    1.917312   -0.244291    0.536242
 C    0.530884   -0.258867    0.523970
 N    4.045902   -1.391118    0.029016
 C    4.937056   -0.369954    0.233731
 O    4.621211    0.757837    0.580034
 C    6.378212   -0.744499    0.022805
 C    7.335020   -0.040025    0.755870
 C    8.685207   -0.331342    0.608357
 C    9.093237   -1.317159   -0.287761
 C    8.146553   -2.005587   -1.040500
 C    6.793197   -1.721554   -0.885673
 C   -2.012935    3.067014   -1.407425
 C   -0.856352    3.422666   -0.499297
 C   -1.073356    4.167269    0.661277
 C   -0.023328    4.453100    1.529505
 C    1.261380    3.996621    1.246245
 C    1.490143    3.254795    0.089887
 C    0.435610    2.969914   -0.772885
 H   -5.300734   -4.378521    0.375797
 H   -5.277914   -3.732873    2.046535
 H   -6.680449   -4.674179    1.469229
 H   -3.926492   -2.546412    0.624901
 H   -6.571807    1.403988   -0.805351
 H   -8.389578    0.073011   -0.304927
 H   -1.984747   -2.332582    0.034623
 H    0.025627   -3.338011   -0.807882
 H    2.480182   -3.331239   -0.766823
 H    2.442416    0.622074    0.910783
 H   -0.005762    0.609761    0.881073
 H    4.442026   -2.299360   -0.159276
 H    6.999434    0.736129    1.435586
 H    9.422102    0.214100    1.189935
 H   10.149034   -1.541319   -0.406841
 H    8.461266   -2.757957   -1.757204
 H    6.070054   -2.239582   -1.510760
 H   -2.758936    3.865343   -1.435938
 H   -1.645679    2.924517   -2.431546
 H   -2.076679    4.520240    0.888634
 H   -0.209646    5.033175    2.429013
 H    2.082058    4.216932    1.922591
 H    2.487277    2.884528   -0.132062
 H    0.610962    2.366348   -1.658852
