47 
4kot_ligand_ani.xyz
 C    0.534657   -2.358405    0.057608
 C   -0.886997   -2.220179    0.679766
 S    0.752389   -1.715519   -1.617671
 C    2.524373   -1.353804   -1.398738
 C    2.801856   -0.457577   -0.221876
 C    2.052215   -0.496960    0.901391
 N    1.072090   -1.482258    1.107487
 C   -0.175846   -1.346869    1.746062
 O   -0.494217   -0.723778    2.713544
 N   -1.848687   -1.490455   -0.098654
 C   -3.099738   -1.283637    0.438243
 O   -3.574006   -1.950904    1.331194
 C   -3.815225   -0.123882   -0.259101
 N   -4.964132   -0.238130   -0.817349
 O   -5.454654   -1.498027   -0.813119
 C   -6.743437   -1.507247   -1.425338
 C   -3.180057    1.204070   -0.318629
 N   -1.833799    1.358644   -0.031847
 C   -1.484705    2.610930   -0.077636
 N   -0.235977    3.079466    0.164732
 S   -2.782038    3.695404   -0.555982
 C   -3.853168    2.336380   -0.642847
 C    3.960481    0.471245   -0.409697
 O    5.054518   -0.309895   -0.924832
 C    6.208717    0.368254   -1.080104
 O    6.315684    1.551728   -0.864248
 C    7.312896   -0.542041   -1.548980
 C    2.138025    0.526234    1.986348
 O    2.365479   -0.021091    3.179701
 O    2.034447    1.723088    1.806688
 H    0.942717   -3.368361    0.128821
 H   -1.323864   -3.144537    1.056942
 H    2.868435   -0.877928   -2.321022
 H    3.076564   -2.294623   -1.294593
 H   -1.469891   -0.690606   -0.600695
 H   -7.053483   -2.552895   -1.411947
 H   -7.450315   -0.897247   -0.853648
 H   -6.686448   -1.142626   -2.455748
 H   -0.106043    4.062168    0.341703
 H    0.409865    2.463545    0.645431
 H   -4.891044    2.438994   -0.920460
 H    4.272389    0.966498    0.512412
 H    3.727373    1.248809   -1.147699
 H    7.033626   -1.023700   -2.491193
 H    8.223190    0.040737   -1.687503
 H    7.488057   -1.329520   -0.809278
 H    2.344484    0.704207    3.826097
