45 
4kov_ligand_xtb.xyz
 S    0.537496   -1.055352    0.243818
 C   -6.764884    1.713882   -0.719402
 N   -5.199431    0.060330   -0.443838
 O   -5.497667    1.380372   -0.191787
 C   -4.091237   -0.368513    0.022838
 N   -1.970957    0.717577    0.235826
 O   -2.494556   -2.149810    0.240965
 C   -3.694835   -1.730559   -0.227386
 N    1.131294    1.545751    0.446189
 O   -3.384201    0.799378    2.001880
 C   -4.323502   -2.763136   -0.884127
 N    6.265910   -2.470734    0.895368
 O   -0.134992    3.216033   -0.629706
 C   -3.448480   -3.865017   -0.807114
 O    5.240933   -0.648425    0.152739
 C   -2.356400   -3.431458   -0.113313
 O    4.840382   -2.636703   -0.859164
 C   -3.140923    0.441090    0.875069
 O    2.544570    3.729584    0.151742
 C   -0.889677    1.348002    0.915816
 O    3.825017    2.818547   -1.433219
 C    0.400572    0.520773    1.148581
 C    0.015263    2.273465    0.084533
 C    2.403474    1.420302   -0.101427
 C    3.002096    0.215270   -0.187603
 C    2.360577   -1.046525    0.308523
 C    4.376369    0.021558   -0.764629
 C    5.404762   -1.980860   -0.021876
 C    3.005362    2.703199   -0.558340
 H   -6.802876    1.522328   -1.794559
 H   -7.556777    1.148423   -0.222205
 H   -6.885423    2.776702   -0.522723
 H   -1.794059    0.331164   -0.678868
 H   -5.284358   -2.715750   -1.350986
 H    6.774269   -1.841045    1.489699
 H    6.558678   -3.428135    0.817794
 H   -3.606987   -4.843945   -1.210314
 H   -1.446792   -3.919950    0.174277
 H    2.890319    4.567821   -0.193466
 H   -1.295905    1.798638    1.826395
 H    0.721107    0.367516    2.181233
 H    2.651411   -1.249432    1.343313
 H    2.676148   -1.889223   -0.307489
 H    4.297785   -0.585267   -1.676254
 H    4.848687    0.974690   -1.000223
