47 
4kp0_ligand_xtb.xyz
 O   -2.183176   -1.678332    1.611536
 C   -2.125688   -2.661807    0.929103
 O   -0.999118   -3.403869    0.907282
 C   -3.296654   -3.192472    0.119011
 C   -3.973329   -2.066915   -0.668050
 C   -3.195029   -1.703610   -1.923352
 S   -1.452649   -1.322929   -1.541605
 C   -1.702005    0.194217   -0.724559
 N   -2.723929    0.974124   -0.938229
 C   -2.523394    2.049980   -0.110481
 C   -3.292224    3.191144    0.081916
 C   -2.829024    4.126363    0.983557
 C   -1.634085    3.945626    1.682435
 C   -0.855972    2.818595    1.507009
 C   -1.317222    1.872482    0.607618
 N   -0.814687    0.661448    0.195474
 C    0.366717    0.002617    0.670955
 C    1.608860    0.428276   -0.061104
 C    1.600513    1.399089   -1.002563
 S    3.142241    1.715145   -1.709786
 C    3.864547    0.492133   -0.705952
 C    5.208127    0.150162   -0.718214
 C    5.628211   -0.841256    0.138774
 C    4.717516   -1.468592    0.984083
 C    3.374010   -1.139972    1.010323
 C    2.922444   -0.128301    0.140955
 C    2.469601   -1.866664    1.959133
 H   -1.052594   -4.149343    0.295769
 H   -4.008580   -3.603692    0.839180
 H   -2.982093   -3.992480   -0.556137
 H   -4.051079   -1.187617   -0.025594
 H   -4.980570   -2.367867   -0.961856
 H   -3.610626   -0.817276   -2.398302
 H   -3.159888   -2.531552   -2.631660
 H   -4.212769    3.330526   -0.461678
 H   -3.401725    5.025757    1.155574
 H   -1.311008    4.707866    2.375724
 H    0.071284    2.684705    2.043350
 H    0.218495   -1.074091    0.553682
 H    0.461252    0.220772    1.739295
 H    0.761486    1.974584   -1.343555
 H    5.891336    0.654183   -1.383297
 H    6.666657   -1.135077    0.159372
 H    5.075952   -2.242670    1.647401
 H    3.044343   -2.582328    2.542309
 H    1.988762   -1.177041    2.649375
 H    1.691039   -2.410791    1.428455
