31 
4kp5_ligand_xtb.xyz
 O   -4.716151   -0.761970    1.481113
 C    6.161183   -1.048160    0.590006
 C   -0.057245    0.050920   -0.682340
 C   -2.113274    0.744934    0.339444
Cl   -3.025812    1.809611    1.316757
 C   -0.756911    0.945298    0.124040
 C   -0.727120   -1.032163   -1.256443
 C   -2.079646   -1.221261   -1.038837
 C   -2.769405   -0.329671   -0.241476
 S   -4.529138   -0.481966    0.090957
 N   -4.913753   -1.868570   -0.775516
 O   -5.208023    0.622018   -0.514338
 C    1.398109    0.191897   -0.991444
 O    1.996101   -0.657728   -1.599623
 C    2.052732    1.471503   -0.514856
 S    3.808938    1.530573   -0.991839
 C    4.414323    0.251254    0.022815
 N    3.583973   -0.286541    0.908035
 C    4.070738   -1.264359    1.651859
 C    5.379815   -1.705989    1.533259
 N    5.685959   -0.075176   -0.161659
 H    7.200236   -1.302646    0.425806
 H   -0.277906    1.788781    0.591380
 H   -0.163322   -1.712596   -1.876527
 H   -2.611973   -2.048790   -1.478545
 H   -5.245796   -2.602041   -0.170193
 H   -5.571004   -1.672495   -1.513200
 H    1.997723    1.540173    0.570873
 H    1.578504    2.338448   -0.973482
 H    3.378430   -1.695325    2.364257
 H    5.768644   -2.506366    2.139481
