31 
4kp8_ligand_ani.xyz
 O    4.065050    1.676696   -0.064129
 S    3.386429    0.622804    0.674061
 O    2.730717    0.866039    1.950055
 N    4.503110   -0.596560    0.924151
 C    2.193981   -0.118500   -0.407326
 C    2.344001   -0.016524   -1.786030
 C    1.393987   -0.610665   -2.613075
 C    0.307535   -1.278029   -2.058779
 C    1.113217   -0.779757    0.161883
 C    0.155807   -1.350883   -0.672982
 C   -1.064482   -2.037980   -0.134049
 O   -1.661299   -2.849195   -0.805860
 C   -1.566357   -1.687890    1.262227
 S   -3.274170   -1.081977    1.237592
 C   -3.013531    0.466357    0.440991
 N   -4.121106    1.159975    0.171294
 C   -3.931950    2.331814   -0.427050
 C   -2.669466    2.818389   -0.754235
 C   -1.599849    2.004361   -0.415733
 N   -1.756857    0.822247    0.186277
 H    5.409773   -0.319330    0.563121
 H    4.539417   -0.839870    1.908512
 H    3.191914    0.525146   -2.196336
 H    1.498801   -0.548976   -3.692809
 H   -0.443366   -1.748929   -2.687799
 H    1.039079   -0.853205    1.243052
 H   -0.938094   -0.941272    1.746699
 H   -1.586402   -2.597240    1.867471
 H   -4.832027    2.900692   -0.651673
 H   -2.529150    3.776201   -1.243934
 H   -0.575228    2.301433   -0.630386
