31 
4kp8_ligand_dft.xyz
 O    4.799921    0.400682   -1.647521
 S    4.011438    0.869900   -0.520003
 O    3.306328    2.142486   -0.543429
 N    5.042220    0.848901    0.800742
 C    2.816478   -0.388548   -0.116091
 C    3.169784   -1.728695   -0.243077
 C    2.231078   -2.703983    0.074562
 C    0.962212   -2.335268    0.505478
 C    1.549134   -0.005314    0.301600
 C    0.608766   -0.988128    0.617538
 C   -0.783876   -0.665075    1.081751
 O   -1.542607   -1.550503    1.404456
 C   -1.173072    0.811181    1.133348
 S   -2.894205    1.115635    1.577731
 C   -3.698887    0.546925    0.111384
 N   -5.032020    0.607200    0.171169
 C   -5.678713    0.188669   -0.913050
 C   -5.021155   -0.283930   -2.044852
 C   -3.635315   -0.288138   -1.987530
 N   -2.959892    0.127356   -0.914404
 H    6.005099    0.807829    0.480808
 H    4.878555    1.648614    1.404440
 H    4.160091   -1.998495   -0.594698
 H    2.489812   -3.753566   -0.019409
 H    0.217384   -3.082562    0.757923
 H    1.318837    1.052708    0.360759
 H   -0.955755    1.278853    0.169457
 H   -0.570651    1.319405    1.895490
 H   -6.764657    0.234732   -0.869778
 H   -5.559971   -0.626042   -2.920028
 H   -3.034356   -0.633728   -2.825564
