26 
4kpz_ligand_dft.xyz
 C   -1.961297    2.281791   -0.570011
 C   -0.622943    1.911313   -0.487203
 C   -0.267871    0.613274   -0.119687
 C   -1.258230   -0.326203    0.155169
 C   -2.583117    0.067255    0.048824
 C   -2.961476    1.355130   -0.305432
 N   -3.632692   -0.921784    0.342130
 O   -3.279790   -2.032628    0.702465
 O   -4.793514   -0.566451    0.211564
 N    1.112986    0.285476   -0.000364
 C    1.907873    0.951112    1.033668
 C    3.355505    1.078679    0.585043
 C    3.909365   -0.259321    0.147853
 O    5.077386   -0.570145    0.193369
 N    2.944616   -1.122112   -0.349405
 C    1.588280   -0.864710   -0.591835
 O    0.928918   -1.617756   -1.276596
 H   -2.225357    3.293994   -0.856828
 H    0.157885    2.629011   -0.721330
 H   -1.013624   -1.343664    0.427676
 H   -4.011788    1.608669   -0.372117
 H    1.845641    0.387675    1.975301
 H    1.476099    1.936780    1.213636
 H    3.990018    1.467194    1.383852
 H    3.428168    1.763953   -0.268464
 H    3.278056   -1.988753   -0.753000
