53 
4kql_ligand_xtb.xyz
 C   -3.179495    4.770162    0.128268
 O   -4.161892    3.776020    0.291387
 C   -3.822650    2.476831    0.095354
 C   -4.866284    1.558034    0.226539
 C   -4.648475    0.202537    0.031952
 C   -3.364493   -0.234881   -0.292854
 C   -2.317353    0.666545   -0.389295
 C   -2.540681    2.029516   -0.202218
 C   -0.971045    0.110534   -0.724928
 O   -0.838304   -0.872049   -1.425301
 N    0.059561    0.788475   -0.139962
 C    1.428839    0.514368   -0.193621
 C    2.274222    1.228670    0.653424
 C    3.634612    1.000227    0.662178
 C    4.180692    0.042296   -0.187674
 C    3.338143   -0.659944   -1.046983
 C    1.977657   -0.431470   -1.055236
 N    5.546424   -0.261277   -0.210292
 C    6.552833    0.263610    0.547965
 O    6.423135    1.120608    1.390288
 C    7.876327   -0.392544    0.250867
 C    8.028155   -1.768148    0.417731
 C    9.277357   -2.324314    0.197256
 C   10.317885   -1.495308   -0.190866
 C   10.057088   -0.140028   -0.335168
 N    8.872765    0.399522   -0.117001
 C   -5.743695   -0.767379    0.164988
 C   -5.527591   -2.011675    0.650181
 N   -6.517149   -2.939738    0.769310
 C   -7.825851   -2.701220    0.401631
 O   -8.693418   -3.530571    0.509788
 N   -8.028883   -1.436080   -0.086884
 C   -7.103835   -0.403934   -0.244546
 O   -7.469841    0.656465   -0.692697
 H   -2.373972    4.666578    0.863363
 H   -2.757291    4.758676   -0.881556
 H   -3.691118    5.717151    0.291250
 H   -5.846622    1.935469    0.462247
 H   -3.161921   -1.274289   -0.497425
 H   -1.732040    2.731837   -0.335931
 H   -0.191275    1.530609    0.498543
 H    1.859985    1.972247    1.320166
 H    4.276771    1.555109    1.324422
 H    3.753720   -1.398762   -1.717995
 H    1.335389   -0.986730   -1.717202
 H    5.808227   -0.957984   -0.894963
 H    7.194741   -2.378640    0.733147
 H    9.435241   -3.385459    0.326840
 H   11.305537   -1.888920   -0.373340
 H   10.831765    0.551274   -0.639300
 H   -4.549976   -2.325171    0.984807
 H   -6.319218   -3.858173    1.140621
 H   -8.978583   -1.219826   -0.371276
