66 
4kqo_ligand_xtb.xyz
 S   -2.165413   -0.853951    1.696071
 O   -1.764151   -3.092102   -2.267310
 O   -5.605868   -1.931385   -1.220022
 O   -6.515005   -0.177069   -0.164788
 O   -1.583314    0.331875   -1.888513
 O    2.679451    1.128708   -2.697520
 O    2.405620   -0.627606    0.712697
 O    4.486293   -2.322852    1.241684
 N   -3.121857   -1.312639   -0.725773
 N   -0.067193   -0.644012   -0.521794
 N    1.626423    1.455806   -0.711636
 N    3.730734    0.475494   -0.764663
 N    5.922543   -0.734376    0.484239
 C   -2.118419   -1.900318    0.200587
 C   -3.992579   -0.649310    1.499842
 C   -4.138352   -0.488379   -0.032849
 C   -0.716684   -1.940300   -0.430231
 C   -0.770637   -2.614729   -1.805458
 C   -4.714264   -1.875931    2.041850
 C   -4.435367    0.613922    2.219117
 C   -5.564788   -0.827471   -0.473948
 C   -0.515830    0.367685   -1.264785
 C    0.298019    1.655172   -1.234209
 C   -0.505981    2.610438   -0.373169
 C    2.643003    1.045935   -1.500048
 C   -1.097123    3.736426   -0.927689
 C   -0.688217    2.330442    0.977003
 C    5.057639    0.562317   -1.358722
 C    6.076467    0.513642   -0.231570
 C    3.510740   -0.423091    0.229076
 C   -1.855831    4.582018   -0.135737
 C   -1.446035    3.179353    1.764977
 C    4.704076   -1.256694    0.707708
 C    7.105974   -1.405737    0.991747
 C   -2.031766    4.305298    1.209699
 C    7.769110   -0.617749    2.114829
 H   -6.513294   -2.141903   -1.496465
 H   -2.536599   -0.649260   -1.402570
 H   -3.565587   -2.045580   -1.294987
 H    0.835630   -0.557427   -0.033073
 H    1.723937    1.415059    0.292596
 H   -2.409603   -2.921924    0.463763
 H   -3.963119    0.565906   -0.279528
 H   -0.073885   -2.558018    0.208661
 H    0.196487   -2.614145   -2.329499
 H   -5.788369   -1.702304    2.044549
 H   -4.403249   -2.059056    3.067445
 H   -4.510232   -2.770592    1.457660
 H   -4.345185    0.483682    3.294106
 H   -5.475915    0.822892    1.980048
 H   -3.827172    1.465430    1.920194
 H    0.376636    2.033270   -2.259065
 H   -0.962876    3.952950   -1.976221
 H   -0.248648    1.448308    1.421180
 H    5.215055   -0.266613   -2.058204
 H    5.115547    1.498165   -1.915881
 H    7.086975    0.558137   -0.641001
 H    5.933941    1.370063    0.440583
 H   -2.308324    5.458902   -0.571475
 H   -1.577444    2.958201    2.813307
 H    7.806417   -1.552077    0.163980
 H    6.779582   -2.380599    1.358127
 H   -2.623112    4.965279    1.825111
 H    7.070582   -0.466888    2.933927
 H    8.623000   -1.174080    2.489373
 H    8.117758    0.351344    1.765646
