66 
4kqo_ligand_ani.xyz
 S   -2.132828   -1.655517    1.556061
 O   -1.724185   -3.573572   -2.600951
 O   -5.816823   -0.955484   -1.054400
 O   -6.175824    0.683371    0.442692
 O   -1.590018    0.310258   -2.167457
 O    2.548184    0.993801   -2.623989
 O    2.477806   -0.488162    1.082425
 O    4.773171   -1.556484    2.142683
 N   -3.286929   -1.116275   -0.770651
 N   -0.206471   -0.842018   -0.799931
 N    1.526084    1.305011   -0.623137
 N    3.644167    0.274174   -0.740848
 N    5.993622   -0.694804    0.427957
 C   -2.312699   -2.083046   -0.199570
 C   -3.817750   -0.966437    1.673695
 C   -3.970607   -0.302353    0.275151
 C   -0.936103   -2.094254   -0.897597
 C   -1.098795   -2.575618   -2.335592
 C   -4.840580   -2.081696    1.908896
 C   -3.879953    0.060099    2.796143
 C   -5.424016   -0.096884   -0.083329
 C   -0.586212    0.275128   -1.446520
 C    0.234403    1.550576   -1.231165
 C   -0.581429    2.552678   -0.437562
 C    2.544231    0.868441   -1.412093
 C   -0.728855    3.856310   -0.906186
 C   -1.158839    2.204610    0.785541
 C    4.846846    0.063605   -1.556734
 C    6.061443    0.258667   -0.668933
 C    3.534925   -0.350404    0.483644
 C   -1.419671    4.807188   -0.160977
 C   -1.838195    3.156986    1.539646
 C    4.831553   -0.924342    1.104732
 C    7.233136   -1.184373    1.016082
 C   -1.970261    4.460689    1.067976
 C    7.872426   -0.189670    1.978036
 H   -6.762724   -0.787329   -1.202697
 H   -2.802309   -0.489478   -1.468699
 H   -4.014795   -1.624432   -1.302753
 H    0.556596   -0.788961   -0.133179
 H    1.572183    1.147267    0.372234
 H   -2.713635   -3.092926   -0.284788
 H   -3.486796    0.674056    0.313766
 H   -0.332385   -2.847853   -0.382791
 H   -0.595436   -1.973265   -3.115176
 H   -5.846640   -1.658876    1.989849
 H   -4.606632   -2.611122    2.836229
 H   -4.835021   -2.811169    1.091377
 H   -3.712961   -0.427220    3.760604
 H   -4.861467    0.545095    2.804225
 H   -3.111134    0.827718    2.669710
 H    0.413193    1.952988   -2.232923
 H   -0.293412    4.134515   -1.864799
 H   -1.085764    1.175463    1.148167
 H    4.835545   -0.942872   -1.989858
 H    4.818184    0.785837   -2.369897
 H    6.982233    0.072045   -1.230973
 H    6.087417    1.296500   -0.302649
 H   -1.523399    5.820936   -0.539835
 H   -2.260095    2.885154    2.505010
 H    7.918904   -1.425459    0.194624
 H    6.987456   -2.114687    1.532013
 H   -2.506995    5.200719    1.655521
 H    7.192841    0.024087    2.809519
 H    8.800830   -0.599325    2.389377
 H    8.109675    0.753037    1.470336
