67 
4kqr_ligand_ani.xyz
 S   -3.030595   -2.322315    0.515101
 O   -4.693186   -1.714281   -2.841560
 O    1.490386   -3.232703    1.505099
 O    1.580778   -2.425970   -0.596877
 O   -0.170671    0.161864   -1.369756
 O    1.434880    3.327173   -1.475859
 O    1.930290    0.074755    0.921843
 O    4.076959   -1.508371   -0.047840
 N   -0.883357   -2.337212   -1.051291
 N   -2.388499    0.405003   -1.068141
 N    0.482764    2.202553    0.263536
 N    2.728893    1.787236   -0.387986
 N    5.198037    0.423732   -0.394744
 C   -2.335499   -2.132234   -1.163082
 C   -1.434527   -2.624176    1.362096
 C   -0.527164   -3.078558    0.197442
 C   -2.728726   -0.787001   -1.830221
 C   -4.208045   -0.850764   -2.155231
 C   -0.957468   -1.332500    2.028346
 C   -1.601625   -3.730919    2.397802
 C    0.954561   -2.918576    0.464731
 C   -1.118801    0.839074   -0.962867
 C   -0.850065    2.221984   -0.314533
 C   -1.925788    2.691492    0.643228
 C    1.512293    2.496920   -0.588609
 C   -2.835591    3.663799    0.218133
 C   -2.051826    2.173499    1.933396
 C    3.879007    2.301994   -1.146513
 C    5.157389    1.879160   -0.442286
 C    2.800750    0.541123    0.196020
 C   -3.859541    4.101168    1.054219
 C   -3.078121    2.606837    2.770318
 C    4.087784   -0.274708   -0.094806
 C    6.460164   -0.303855   -0.490410
 C   -3.983617    3.570014    2.334306
 C    7.024007   -0.688649    0.871249
 O   -4.930804    0.142292   -1.606280
 H    2.511262   -2.214833   -0.326799
 H   -0.356099   -1.423656   -1.107417
 H   -0.548197   -2.879432   -1.862620
 H   -3.150544    0.923521   -0.651156
 H    0.678494    1.431130    0.892030
 H   -2.780323   -2.908771   -1.785629
 H   -0.712744   -4.144248    0.032847
 H   -2.219746   -0.745632   -2.803608
 H   -0.008816   -1.499849    2.544663
 H   -1.705486   -0.994520    2.752869
 H   -0.821787   -0.546779    1.278924
 H   -2.302706   -3.412887    3.174838
 H   -0.634734   -3.951076    2.861547
 H   -1.994677   -4.643099    1.938071
 H   -0.810793    2.942960   -1.140687
 H   -2.741344    4.081960   -0.782726
 H   -1.346876    1.427817    2.303994
 H    3.786306    3.385270   -1.192424
 H    3.855539    1.910092   -2.168218
 H    5.191084    2.311311    0.567228
 H    6.030691    2.232243   -0.998579
 H   -4.558318    4.856737    0.704418
 H   -3.165897    2.191624    3.771037
 H    6.275443   -1.197568   -1.091724
 H    7.162263    0.332030   -1.040613
 H   -4.780780    3.907120    2.991363
 H    7.184708    0.199124    1.493146
 H    7.981734   -1.206046    0.752318
 H    6.333692   -1.358619    1.390807
 H   -5.853067   -0.006878   -1.875647
