39 
4krs_ligand_ani.xyz
 C   -4.904315   -1.533489    0.979418
 C   -2.431857    0.985680   -0.136896
 C   -0.363128   -0.316117   -0.337114
 C    1.116697   -0.221107   -0.178349
 C    1.724231    0.609517    0.764385
 C    3.106604    0.672506    0.854218
 C    3.928035   -0.082357    0.006314
 C    3.303753   -0.933585   -0.911043
 C    1.920893   -1.010471   -0.996967
 C    5.447378    0.045409    0.134277
 C    5.886610   -0.424114    1.533770
 S   -5.957088   -0.327725    0.078407
 C   -3.459295   -1.355023    0.474825
 N   -3.383396    0.050880    0.127374
 C   -4.553550    0.688057   -0.173377
 N   -4.352964    1.905919   -0.571248
 N   -2.980957    2.098989   -0.536959
 N   -1.068278    0.804770    0.068713
 O   -0.903894   -1.298613   -0.812113
 C    5.866297    1.514731   -0.061979
 C    6.194675   -0.795960   -0.907317
 H   -5.286997   -2.537764    0.794015
 H   -4.971244   -1.323414    2.049950
 H    1.120239    1.186526    1.459392
 H    3.543997    1.336132    1.597387
 H    3.902697   -1.550761   -1.573700
 H    1.448532   -1.684538   -1.705293
 H    5.392770    0.146886    2.327107
 H    5.642108   -1.482375    1.682738
 H    6.969424   -0.303156    1.654188
 H   -3.253889   -1.971162   -0.403153
 H   -2.721265   -1.591742    1.240662
 H   -0.561947    1.681131    0.094868
 H    5.581283    1.869923   -1.059249
 H    5.401122    2.178163    0.674180
 H    6.953182    1.614488    0.038651
 H    5.982299   -1.865220   -0.790942
 H    5.928280   -0.498991   -1.928642
 H    7.274968   -0.657609   -0.789929
