45 
4ks1_ligand_ani.xyz
 C   -2.210675   -2.831878    2.133957
 C   -3.008844   -2.218945    0.987026
 C   -2.129437   -1.589400   -0.087968
 C   -2.941057   -0.995447   -1.243827
 C   -3.646538   -2.042641   -2.104233
 O   -1.364512   -0.561222    0.539487
 C   -0.109159   -0.278493   -0.061683
 C    0.967253   -1.248579    0.410982
 C    2.315563   -0.843422   -0.116779
 C    3.316199   -1.938099   -0.193805
 O    3.082334   -3.093953    0.080680
 O    4.540572   -1.543643   -0.610807
 C    2.594991    0.417731   -0.460381
 C    1.599162    1.550334   -0.391512
 N    2.248851    2.716999    0.301074
 C    0.274036    1.157212    0.311348
 N   -0.845335    2.021773   -0.071585
 C   -0.938756    3.355066    0.150436
 O    0.003862    4.057353    0.522837
 C   -2.293295    3.979724   -0.098714
 H   -2.874679   -3.310345    2.860625
 H   -1.511149   -3.591363    1.764577
 H   -1.629824   -2.062857    2.651279
 H   -3.682640   -1.444112    1.375499
 H   -3.642228   -2.985186    0.522698
 H   -1.454645   -2.363817   -0.491631
 H   -3.675395   -0.291068   -0.830317
 H   -2.268624   -0.402046   -1.878113
 H   -4.405049   -2.594769   -1.539861
 H   -2.931043   -2.769964   -2.504049
 H   -4.150731   -1.570316   -2.952824
 H   -0.194025   -0.339976   -1.158658
 H    0.977716   -1.267912    1.510129
 H    0.751414   -2.273084    0.090967
 H    5.077728   -2.352610   -0.614415
 H    3.583150    0.682205   -0.826542
 H    1.359020    1.886310   -1.404809
 H    2.668331    2.400480    1.198726
 H    2.988842    3.102490   -0.312570
 H    1.513051    3.453250    0.481623
 H    0.429337    1.195092    1.398266
 H   -1.721806    1.523623   -0.156549
 H   -3.047810    3.277896   -0.466104
 H   -2.646113    4.430698    0.833524
 H   -2.172147    4.788717   -0.824555
