45 
4ks1_ligand_dft.xyz
 C   -1.777386   -3.077482    1.976814
 C   -2.760557   -2.457720    0.986832
 C   -2.074875   -1.671185   -0.121805
 C   -3.030863   -1.048751   -1.139366
 C   -3.785843   -2.070213   -1.989417
 O   -1.321288   -0.615161    0.513559
 C   -0.094648   -0.303505   -0.081425
 C    1.033721   -1.222443    0.373023
 C    2.356185   -0.720648   -0.130196
 C    3.455778   -1.735742   -0.214696
 O    3.285934   -2.902558    0.035366
 O    4.630952   -1.210333   -0.586930
 C    2.550303    0.541767   -0.519654
 C    1.487342    1.602867   -0.445050
 N    2.063877    2.815478    0.241461
 C    0.220426    1.153371    0.304630
 N   -0.967187    1.941416    0.002709
 C   -1.124664    3.264745    0.205743
 O   -0.176188    4.025518    0.465797
 C   -2.517539    3.815203    0.084700
 H   -2.305927   -3.668258    2.729668
 H   -1.071196   -3.744128    1.467957
 H   -1.205017   -2.303493    2.496164
 H   -3.456393   -1.789756    1.509761
 H   -3.364667   -3.245473    0.524490
 H   -1.371249   -2.335900   -0.644981
 H   -3.740941   -0.409261   -0.597671
 H   -2.449981   -0.392310   -1.803135
 H   -4.467321   -2.675652   -1.385312
 H   -3.093145   -2.748629   -2.499651
 H   -4.382766   -1.566829   -2.754626
 H   -0.177053   -0.348663   -1.180853
 H    1.035391   -1.289676    1.468167
 H    0.872540   -2.241177    0.010175
 H    5.273901   -1.937752   -0.623440
 H    3.514804    0.844520   -0.919937
 H    1.208198    1.946715   -1.447416
 H    2.494529    2.562997    1.134459
 H    2.774246    3.279345   -0.328705
 H    1.215304    3.480692    0.416518
 H    0.414407    1.179847    1.388282
 H   -1.802246    1.365174   -0.025820
 H   -3.250851    3.070832   -0.231294
 H   -2.813575    4.225417    1.054456
 H   -2.507373    4.641844   -0.629585
