49 
4ks2_ligand_xtb.xyz
 C   -5.526140   -0.319868   -0.262620
 C   -4.160039   -0.134957   -0.909189
 C   -2.994358   -0.372725    0.056194
 C   -2.927219   -1.800076    0.622354
 C   -2.805546   -2.864329   -0.462063
 O   -1.811490   -0.058588   -0.673408
 C   -0.701109    0.367483    0.094229
 C   -0.690707    1.858172    0.230097
 C    0.399928    2.613666    0.108353
 C    0.347151    4.084019    0.250388
 O   -0.875569    4.559456    0.537292
 O    1.299631    4.814084    0.122006
 C    1.754275    2.054034   -0.209095
 C    1.829089    0.542609    0.001648
 N    3.038541    0.048324   -0.613313
 C    3.717301   -1.095214   -0.231491
 N    3.675387   -1.726370    0.864009
 N    4.542303   -1.588581   -1.234708
 C    0.576587   -0.147096   -0.590569
 N    0.681843   -1.589791   -0.470196
 C    0.673033   -2.259413    0.707909
 O    0.446621   -1.723633    1.775681
 C    0.983621   -3.729672    0.573369
 H   -6.309005   -0.034462   -0.961215
 H   -5.689112   -1.355244    0.023768
 H   -5.616621    0.301374    0.625952
 H   -4.067957    0.887167   -1.282110
 H   -4.050259   -0.802364   -1.763209
 H   -3.097143    0.325227    0.902378
 H   -3.810550   -1.978928    1.235963
 H   -2.057371   -1.862615    1.279230
 H   -2.029191   -2.578440   -1.167774
 H   -2.541664   -3.821966   -0.019425
 H   -3.740728   -2.985038   -1.002985
 H   -0.739882   -0.067245    1.103464
 H   -1.649230    2.314179    0.429645
 H   -0.834673    5.525567    0.615949
 H    1.984778    2.287558   -1.254138
 H    2.507887    2.559488    0.397588
 H    1.865395    0.315990    1.071356
 H    3.112479    0.270966   -1.596470
 H    3.011782   -1.385735    1.547785
 H    5.000967   -0.891356   -1.802435
 H    5.181195   -2.282879   -0.875154
 H    0.497600    0.087746   -1.657179
 H    0.944934   -2.101795   -1.295685
 H    2.066519   -3.831978    0.505728
 H    0.641426   -4.252779    1.461414
 H    0.523146   -4.157869   -0.312640
