58 
4ks3_ligand_dft.xyz
 C    2.231752   -3.115947   -1.995304
 C    2.869612   -3.405265   -0.638085
 C    3.269520   -2.168994    0.170651
 C    4.064712   -2.551517    1.418961
 C    4.492234   -1.357438    2.266967
 O    2.111790   -1.448586    0.593823
 C    1.772449   -0.296634   -0.143675
 C    0.326858    0.051809    0.232601
 N   -0.573722   -1.085668    0.200296
 C   -1.046384   -1.692985   -0.923621
 C   -1.837431   -2.960569   -0.675215
 O   -0.882589   -1.230377   -2.048338
 C    2.677590    0.892601    0.194452
 C    2.092140    2.209778   -0.246725
 C    3.033245    3.359448   -0.239412
 O    2.478782    4.524346   -0.625429
 O    4.197509    3.273077    0.082461
 C    0.809938    2.370745   -0.586668
 C   -0.154370    1.222883   -0.642718
 N   -1.496314    1.613030   -0.251062
 C   -2.656642    1.203018   -0.809591
 N   -1.715892    2.217515    0.924687
 N   -3.001014    2.218325    1.126495
 C   -3.622773    1.598566    0.083753
 C   -5.089346    1.300761    0.078503
 C   -5.354469   -0.212016    0.008619
 C   -4.749861   -0.967506    1.181134
 O   -4.917527   -2.357234    0.935795
 H    2.893068   -2.502700   -2.619252
 H    2.039445   -4.048176   -2.536090
 H    1.278733   -2.589345   -1.902561
 H    2.186416   -4.003210   -0.021021
 H    3.771100   -4.013488   -0.786838
 H    3.894538   -1.515020   -0.457441
 H    3.452734   -3.235120    2.021759
 H    4.947642   -3.117951    1.098661
 H    5.072805   -0.638670    1.677057
 H    5.113048   -1.678688    3.109128
 H    3.618292   -0.837772    2.668637
 H    1.815213   -0.504173   -1.222330
 H    0.324317    0.404874    1.269963
 H   -0.613387   -1.617974    1.055084
 H   -2.817374   -2.729860   -0.237795
 H   -1.990305   -3.463828   -1.630117
 H   -1.305329   -3.633609    0.005801
 H    2.832458    0.913557    1.280121
 H    3.671130    0.768032   -0.247256
 H    3.182955    5.188368   -0.564891
 H    0.428753    3.346495   -0.869161
 H   -0.239499    0.869478   -1.674163
 H   -2.678834    0.650667   -1.736514
 H   -5.583117    1.790927   -0.768085
 H   -5.522367    1.725530    0.990586
 H   -6.432070   -0.405425   -0.025902
 H   -4.929151   -0.620772   -0.916575
 H   -3.683056   -0.717498    1.279361
 H   -5.249367   -0.666974    2.114504
 H   -4.646549   -2.834348    1.728164
