58 
4ks5_ligand_xtb.xyz
 C   -6.172177    0.674645   -0.158805
 C   -5.254300   -0.469193    0.308017
 C   -5.408580   -1.688846   -0.599571
 O   -5.609147   -0.874271    1.617694
 C   -3.838587    0.032399    0.310420
 C   -2.809847   -0.102472   -0.596397
 N   -3.375344    0.782991    1.336761
 N   -2.157251    1.103682    1.117921
 N   -1.785940    0.589609   -0.046851
 C   -0.440047    0.717939   -0.541072
 C    0.515094   -0.107288    0.341566
 N    0.155838   -1.511029    0.311099
 C    0.002802   -2.239947   -0.819581
 O    0.070448   -1.762916   -1.935696
 C   -0.316166   -3.694754   -0.558774
 C   -0.014956    2.148807   -0.599885
 C    1.229732    2.543120   -0.334888
 C    1.627363    3.967138   -0.435622
 O    2.742010    4.375093   -0.224863
 O    0.625565    4.782622   -0.793883
 C    2.318224    1.608391    0.094320
 C    1.958658    0.134746   -0.135085
 O    2.808344   -0.715951    0.600841
 C    4.005204   -1.114022   -0.064786
 C    3.773130   -2.415389   -0.851331
 C    3.499744   -3.613477    0.050492
 C    5.105192   -1.246032    0.991515
 C    5.535173    0.109863    1.537443
 H   -6.046882    1.536966    0.492939
 H   -5.929727    0.964688   -1.178023
 H   -7.207725    0.347440   -0.115144
 H   -4.724461   -2.472965   -0.285626
 H   -6.424286   -2.064388   -0.514490
 H   -5.207674   -1.425467   -1.633727
 H   -5.291797   -0.194581    2.225886
 H   -2.721480   -0.609092   -1.533054
 H   -0.425120    0.289050   -1.552650
 H    0.419602    0.232594    1.376675
 H    0.196300   -2.000863    1.189348
 H   -1.220237   -3.773765    0.041330
 H    0.501972   -4.170007   -0.023466
 H   -0.467721   -4.203796   -1.506156
 H   -0.770648    2.864608   -0.886045
 H    0.948214    5.696891   -0.832715
 H    3.242910    1.868349   -0.424734
 H    2.505853    1.754510    1.162296
 H    2.008870   -0.105049   -1.205910
 H    4.299197   -0.330911   -0.778576
 H    2.916874   -2.263040   -1.513095
 H    4.645964   -2.608678   -1.477004
 H    3.136022   -4.452078   -0.539058
 H    4.402856   -3.927175    0.567128
 H    2.750879   -3.349692    0.793579
 H    5.960422   -1.753434    0.542562
 H    4.725260   -1.857736    1.809164
 H    4.685269    0.619290    1.982909
 H    5.937190    0.736094    0.743842
 H    6.301283   -0.014913    2.298710
