56 
4ksq_ligand_xtb.xyz
 F   -2.850344   -4.847058   -0.043099
 C   -1.931917   -3.847678    0.064381
 C   -0.590682   -4.155130    0.058647
 C    0.338296   -3.136123    0.171846
 C   -0.100994   -1.820992    0.287233
 O    0.753621   -0.772858    0.481509
 C    1.992208   -0.769523   -0.090750
 C    2.236025   -1.286051   -1.366488
 C    3.482981   -1.197744   -1.945858
 C    4.517578   -0.576693   -1.251865
 N    5.796126   -0.412421   -1.702380
 C    6.510466    0.210276   -0.835705
 N    7.827937    0.511888   -1.039610
 C    8.570889    1.193842   -0.102942
 O    8.075110    1.533974    0.950263
 C    9.971113    1.459706   -0.494336
 C   11.004952    1.470962    0.608949
 C   10.584941    2.753535   -0.008128
 S    5.727356    0.686831    0.667527
 C    4.280120   -0.041437    0.031723
 C    3.020097   -0.137007    0.623396
 C    2.786302    0.375637    1.917720
 N    2.616221    0.776755    2.977760
 C   -1.459715   -1.519963    0.296318
 C   -2.399026   -2.535150    0.184172
 N   -3.776472   -2.336908    0.192795
 C   -4.454903   -1.138379    0.138202
 O   -3.924306   -0.059163    0.062781
 N   -5.820827   -1.340910    0.178609
 C   -6.832783   -0.386911    0.121860
 C   -8.150152   -0.825777    0.268461
 C   -9.201374    0.066887    0.213152
 C   -8.965837    1.415861    0.007348
 C   -7.656733    1.848467   -0.143509
 C   -6.586926    0.967023   -0.085669
 C   -7.356672    3.305813   -0.358038
 F   -8.448737    4.031754   -0.645494
 F   -6.805315    3.876340    0.729283
 F   -6.493805    3.509907   -1.366755
 H   -0.281562   -5.184184   -0.027648
 H    1.392720   -3.363779    0.186213
 H    1.420564   -1.746180   -1.904128
 H    3.667781   -1.592021   -2.931610
 H    8.220774    0.220920   -1.923450
 H   10.266689    1.088940   -1.466793
 H   11.979856    1.069388    0.380247
 H   10.647660    1.250162    1.602894
 H    9.942359    3.401902    0.567283
 H   11.260594    3.264974   -0.675870
 H   -1.775443   -0.495355    0.392962
 H   -4.309897   -3.195488    0.167668
 H   -6.152371   -2.287680    0.300033
 H   -8.347356   -1.876715    0.427729
 H  -10.213056   -0.288937    0.330701
 H   -9.782497    2.118107   -0.038954
 H   -5.576509    1.323008   -0.200475
