23 
4kw6_ligand_ani.xyz
 O   -0.547278    2.383230   -0.000783
 N   -0.500931    1.118683   -0.000496
 C   -1.640519    0.382023   -0.000462
 C   -2.897565    1.197210   -0.000860
 C   -1.524799   -1.015264    0.000148
 C   -2.780962   -1.857001    0.002304
 C    0.738014    0.490166   -0.000090
 C    1.909387    1.266056    0.001601
 C    3.124652    0.621869    0.001799
 C    3.177864   -0.788970   -0.000199
 C    2.026399   -1.541766   -0.001865
 C    0.762661   -0.911787   -0.001155
 N   -0.375978   -1.663067   -0.000900
 H   -2.903348    1.851792    0.875162
 H   -2.901330    1.853838   -0.875333
 H   -3.795890    0.579698   -0.002526
 H   -3.394144   -1.657924    0.889520
 H   -3.401108   -1.652622   -0.878783
 H   -2.499014   -2.911980   -0.001740
 H    1.797716    2.343582    0.002701
 H    4.046725    1.196709    0.003482
 H    4.145598   -1.285244   -0.000333
 H    2.050596   -2.628211   -0.003443
