29 
4kwf_ligand_ani.xyz
 O    0.207399    2.839473   -0.585795
 C    0.772484    1.785860   -0.405487
 C    2.059669    1.519473    0.423430
 O    2.696817    2.371482    0.990695
 C    2.265040    0.067399    0.331316
 N    0.397561    0.554607   -0.909611
 C    1.245072   -0.459682   -0.467053
 C    1.181851   -1.825462   -0.740894
 C    2.160418   -2.638902   -0.185292
 C    3.182100   -2.114990    0.618998
 C    3.239076   -0.752600    0.880909
 C   -0.882211    0.360174   -1.575727
 C   -2.006867    0.012433   -0.618136
 C   -2.605922    1.011639    0.150593
 C   -3.622513    0.697243    1.046902
 C   -4.048220   -0.619546    1.190478
 C   -3.452420   -1.622875    0.433514
 C   -2.437116   -1.304861   -0.463714
 H    0.403296   -2.244056   -1.371961
 H    2.135531   -3.707410   -0.383012
 H    3.933268   -2.778117    1.037381
 H    4.023203   -0.323872    1.499687
 H   -0.760952   -0.421357   -2.331711
 H   -1.093104    1.297641   -2.094133
 H   -2.275996    2.042325    0.043507
 H   -4.085326    1.486105    1.634418
 H   -4.842668   -0.863228    1.891659
 H   -3.779817   -2.654333    0.538192
 H   -1.976740   -2.095403   -1.054986
