72 
4kx8_ligand_ani.xyz
 N    2.043673   -0.412746    0.958649
 C    2.153645   -1.748466    0.297759
 C    3.629314   -2.070201    0.030142
 C    4.531133   -2.214703    1.264984
 C    4.077246   -3.336092    2.202552
 C    5.975448   -2.451333    0.818469
 C    1.318946   -1.835794   -1.000064
 O    1.653058   -0.873220   -1.987991
 C   -0.198073   -1.773020   -0.739068
 O   -0.687464   -2.178975    0.317000
 N   -0.904058   -1.284650   -1.780647
 C   -2.361840   -1.095605   -1.827162
 C   -2.756493    0.026323   -0.846986
 O   -3.035204    1.150080   -1.249301
 C   -3.155777   -2.410437   -1.671511
 C   -2.765235   -3.410473   -2.760532
 C   -4.658627   -2.124538   -1.704534
 N   -2.737711   -0.309368    0.474237
 C   -2.588478    0.753299    1.463528
 C   -1.137424    1.263691    1.355486
 O   -0.217035    0.773834    2.012055
 C   -2.992589    0.291951    2.870415
 C   -4.515402    0.172784    2.946183
 C   -2.327585   -1.015804    3.308803
 N   -0.936945    2.231028    0.426706
 C    0.383572    2.680017    0.064403
 C    0.499534    4.188156    0.206861
 O    1.792717    4.553137    0.134385
 C    0.776435    2.260715   -1.375012
 C    2.271800    2.257719   -1.566310
 O    3.018875    1.473746   -0.993341
 O    2.717037    3.153972   -2.432091
 O   -0.407691    4.969721    0.332940
 H    1.056777   -0.200751    1.206358
 H    2.570779   -0.420818    1.847665
 H    2.435155    0.334829    0.351461
 H    1.719304   -2.485095    0.975182
 H    3.681559   -3.002996   -0.549029
 H    4.047813   -1.286313   -0.619061
 H    4.519018   -1.267594    1.824990
 H    4.080833   -4.301422    1.679838
 H    3.069068   -3.174049    2.598081
 H    4.755333   -3.419704    3.059213
 H    6.058205   -3.393956    0.263138
 H    6.329413   -1.645018    0.166096
 H    6.650469   -2.510855    1.679502
 H    1.513045   -2.828851   -1.433804
 H    2.328182   -0.272649   -1.637290
 H   -0.339457   -0.909369   -2.530916
 H   -2.576229   -0.671906   -2.812640
 H   -2.898757   -2.847377   -0.700623
 H   -3.353341   -4.328704   -2.658226
 H   -1.706353   -3.678836   -2.702126
 H   -2.962250   -2.999045   -3.758720
 H   -4.939896   -1.637901   -2.647262
 H   -5.229714   -3.055361   -1.622679
 H   -4.960969   -1.469624   -0.880668
 H   -2.216910   -1.161511    0.671985
 H   -3.256723    1.562619    1.152418
 H   -2.668561    1.081816    3.561600
 H   -4.830441   -0.127330    3.951114
 H   -5.004988    1.124963    2.712220
 H   -4.879073   -0.579432    2.236100
 H   -2.634453   -1.862145    2.679752
 H   -1.238716   -0.936502    3.273282
 H   -2.625007   -1.252720    4.337041
 H   -1.709719    2.464531   -0.190170
 H    1.085377    2.216478    0.767590
 H    1.813759    5.522369    0.201503
 H    0.434128    1.234241   -1.532173
 H    0.309755    2.909133   -2.122558
 H    3.687229    3.079498   -2.450482
