41 
4kyk_ligand_xtb.xyz
 C    0.548358    0.217973   -0.665562
 C    1.924288    0.442873   -0.439715
 C    2.415679    1.736231   -0.320216
 C    1.535510    2.804991   -0.446607
 C    0.183582    2.569675   -0.717871
 C   -0.314970    1.284962   -0.841086
 C    1.270094    5.175175   -0.428621
 C    2.559021   -0.845402   -0.416012
 C    1.593772   -1.784554   -0.626107
 C   -0.846734   -1.820296   -1.001305
 C   -2.062095   -1.170388   -0.443587
 C   -3.251269   -1.221864   -1.165333
 C   -4.413178   -0.691711   -0.638630
 C   -4.389785   -0.133696    0.631509
 C   -3.219362   -0.107521    1.377475
 C   -2.057490   -0.623433    0.838081
 C    1.733648   -3.260375   -0.655653
 C    4.010862   -1.083312   -0.150118
 C    4.258502   -1.235065    1.348459
 N    0.352611   -1.158013   -0.761690
 O    2.091392    4.039398   -0.304258
 O   -0.892458   -2.881294   -1.579476
 O    4.832184   -2.163272    1.837333
 O    3.773629   -0.236022    2.098720
Cl   -5.836723    0.527057    1.298902
 H    3.462817    1.947309   -0.164881
 H   -0.496463    3.395123   -0.849812
 H   -1.357166    1.143319   -1.076695
 H    0.829168    5.245946   -1.427954
 H    0.474584    5.181057    0.323194
 H    1.925632    6.028863   -0.264370
 H   -3.250204   -1.674258   -2.145336
 H   -5.333020   -0.715936   -1.201110
 H   -3.222522    0.311704    2.370955
 H   -1.147303   -0.610346    1.418779
 H    1.629357   -3.635302   -1.673306
 H    2.704083   -3.549301   -0.262092
 H    0.955802   -3.732010   -0.058022
 H    4.596248   -0.232242   -0.507699
 H    4.366284   -1.983129   -0.650500
 H    3.310147    0.429248    1.566181
