27 
4kz0_ligand_ani.xyz
 O   -4.049066   -1.681433    0.019347
 C   -4.476521   -0.544881   -0.007885
 C   -5.943257   -0.182277   -0.040324
 N   -3.628014    0.545939   -0.011516
 C   -2.239906    0.492510    0.002698
 N   -1.550795    1.582781   -0.004357
 S   -1.367429   -1.025789    0.027028
 C    0.107182   -0.090108    0.020670
 C   -0.197838    1.284485    0.005639
 C    0.834469    2.228768   -0.000757
 C    2.141820    1.785357    0.002326
 C    1.421363   -0.537411    0.023154
 C    2.435528    0.412875    0.011064
 C    3.871420    0.029624    0.002202
 O    4.791282    0.816949    0.006990
 O    4.050950   -1.302189   -0.015629
 C    5.416444   -1.719268   -0.038386
 H   -6.175990    0.405574   -0.933889
 H   -6.531080   -1.099356   -0.047339
 H   -6.212039    0.414721    0.836874
 H   -3.997280    1.486420   -0.032208
 H    0.588899    3.286414   -0.009824
 H    2.970147    2.486024   -0.003446
 H    1.666944   -1.593718    0.033200
 H    5.921430   -1.327682   -0.924448
 H    5.940242   -1.363281    0.851711
 H    5.389705   -2.808196   -0.060045
