27 
4kz0_ligand_dft.xyz
 O   -4.055445   -1.673925   -0.000217
 C   -4.474347   -0.532985   -0.000111
 C   -5.948277   -0.198755    0.000028
 N   -3.621884    0.551109    0.000233
 C   -2.240892    0.494433    0.000008
 N   -1.550748    1.588895   -0.000103
 S   -1.364046   -1.027202    0.000184
 C    0.111197   -0.082066    0.000049
 C   -0.200582    1.290400   -0.000086
 C    0.831339    2.235926   -0.000211
 C    2.140535    1.794803   -0.000186
 C    1.426158   -0.531116    0.000046
 C    2.442215    0.421498   -0.000066
 C    3.877780    0.030608    0.000047
 O    4.801330    0.813704    0.000514
 O    4.047819   -1.302722   -0.000417
 C    5.403936   -1.742087   -0.000030
 H   -6.407704   -0.655064   -0.880584
 H   -6.406750   -0.651479    0.883009
 H   -6.157422    0.873904   -0.001988
 H   -3.988875    1.492839    0.000016
 H    0.587565    3.292711   -0.000336
 H    2.964991    2.499404   -0.000235
 H    1.666920   -1.587929    0.000117
 H    5.925559   -1.379406   -0.889167
 H    5.925110   -1.379292    0.889323
 H    5.359748   -2.830893    0.000010
