32 
4kz6_ligand_ani.xyz
 C   -0.788476    1.198356    1.907381
 C   -0.573891    1.425789    0.408066
 C   -1.676565    2.292888   -0.212226
 C   -2.970083    1.518919   -0.444162
 C   -2.691260    0.317516   -1.340257
 C   -1.615101   -0.575189   -0.734483
 N   -0.425279    0.179036   -0.358262
 C    0.790805   -0.393954   -0.649921
 O    0.876528   -1.413538   -1.317979
 C    2.047677    0.292498   -0.124977
 C    3.273561   -0.589357   -0.306949
 S    4.804678    0.183441    0.285095
 C   -2.180498   -1.432690    0.395667
 O   -3.355110   -1.682774    0.530080
 O   -1.239276   -1.936164    1.215277
 H   -1.767669    0.756378    2.119903
 H   -0.734046    2.157788    2.434749
 H   -0.024345    0.534262    2.323077
 H    0.363012    1.978120    0.283369
 H   -1.311124    2.677827   -1.172858
 H   -1.847885    3.162577    0.435459
 H   -3.719889    2.168702   -0.907057
 H   -3.393590    1.176144    0.509596
 H   -3.593940   -0.280213   -1.495645
 H   -2.338428    0.661708   -2.319426
 H   -1.274385   -1.298942   -1.483434
 H    2.180591    1.240059   -0.666810
 H    1.924635    0.550457    0.932940
 H    3.373589   -0.895926   -1.349462
 H    3.166943   -1.504089    0.282931
 H    4.858978    1.154448   -0.640282
 H   -1.714491   -2.496453    1.851403
