28 
4kz7_ligand_xtb.xyz
 C   -0.287167    2.191569    0.401363
 C    0.117238    0.733137    0.560182
 C    0.067587    0.361283    2.040797
 C    1.441207    0.323816   -0.125275
 C    2.747164    0.903728    0.365806
 C    1.142073    0.544043   -1.628958
 C   -0.343926    0.162787   -1.757096
 C   -0.685173   -0.271321   -0.320233
 C   -2.144621   -0.426615    0.025806
 O   -2.607235   -1.255078    0.754651
 O   -2.886495    0.529003   -0.553207
 O    0.013662   -1.500193   -0.106877
 C    1.323341   -1.193584    0.001091
 O    2.192520   -2.002836    0.123764
 H    0.367009    2.811180    1.010666
 H   -1.308246    2.332443    0.748462
 H   -0.228585    2.538720   -0.623760
 H    0.761648    0.982073    2.602711
 H    0.328087   -0.681833    2.202854
 H   -0.933774    0.523433    2.434829
 H    2.880388    0.702342    1.425374
 H    3.572335    0.440921   -0.170037
 H    2.775771    1.978427    0.199950
 H    1.328624    1.580880   -1.906241
 H    1.784287   -0.087874   -2.242332
 H   -0.501337   -0.674125   -2.436582
 H   -0.973978    0.990787   -2.072814
 H   -3.818186    0.422390   -0.300617
