24 
4kza_ligand_xtb.xyz
 C   -0.658567   -1.991274   -0.411918
 C   -1.899561   -2.293456    0.060493
 S   -2.786808   -0.897336    0.497893
 C   -1.470677    0.131301    0.052891
 C   -0.407728   -0.605060   -0.409580
 S    1.119378   -0.005539   -1.098946
 O    0.837658    0.825758   -2.226372
 O    2.007016   -1.115962   -1.266097
 N    1.664439    1.083609    0.075389
 C    2.162125    0.628884    1.347018
 C    1.969341   -0.782905    1.798492
 C    3.342800   -0.291459    1.449401
 C   -1.745467    1.578174    0.219202
 O   -2.864131    1.946474    0.469030
 O   -0.731952    2.425233    0.104224
 H    0.066898   -2.703881   -0.759272
 H   -2.339166   -3.265038    0.168278
 H    2.296615    1.735240   -0.374796
 H    2.061265    1.410307    2.093636
 H    1.514999   -1.482896    1.118107
 H    1.719965   -0.947363    2.835771
 H    4.059837   -0.124509    2.237685
 H    3.763594   -0.654920    0.524718
 H    0.141470    1.996545   -0.037284
