29 
4kzb_ligand_xtb.xyz
 C   -1.869471   -0.766244    2.049951
 C   -1.067273   -1.068570    0.787681
 C   -1.941747   -1.235974   -0.449425
 O   -3.197320   -1.554859   -0.180145
 O   -1.504597   -1.161996   -1.571717
 N   -0.104120   -0.014928    0.540690
 C    1.252489   -0.274056    0.306474
 C    2.175358    0.724953    0.615190
 C    3.525204    0.513204    0.406899
 C    3.976989   -0.694153   -0.101338
 C    3.062710   -1.683140   -0.418513
 C    1.707700   -1.476962   -0.227539
 S   -0.742512    1.403030   -0.101187
 C   -0.077881    1.512797   -1.777913
 O   -2.164201    1.216870   -0.162904
 O   -0.262242    2.523245    0.648800
 H   -2.542123   -1.590749    2.268651
 H   -2.449637    0.139523    1.904614
 H   -1.186586   -0.622934    2.883258
 H   -0.519054   -2.007605    0.929802
 H   -3.719321   -1.593742   -0.997827
 H    1.813957    1.658173    1.015499
 H    4.229655    1.293672    0.652806
 H    5.032526   -0.861161   -0.252695
 H    3.402389   -2.622729   -0.828506
 H    1.007546   -2.246283   -0.514780
 H    0.998014    1.605315   -1.717570
 H   -0.378091    0.614233   -2.301563
 H   -0.517856    2.393087   -2.228606
