36 
4kzc_ligand_ani.xyz
 F    3.497452   -2.463143    1.003865
 C    4.300394   -1.624139    0.332582
 F    4.714056   -2.266639   -0.773992
 F    5.408524   -1.443605    1.100324
 C    3.614573   -0.327875    0.025109
 C    4.336129    0.758392   -0.517188
 N    5.677062    0.651862   -0.775930
 N    3.734908    1.900462   -0.847988
 C    2.424488    2.014559   -0.634546
 C    2.252677   -0.191990    0.221880
 C    1.619244    1.007408   -0.105376
 C    0.160834    1.194863    0.076855
 C   -0.712563    0.182256   -0.204305
 C   -0.364039    2.436948    0.551789
 C   -1.701188    2.623544    0.734221
 C   -2.598379    1.567710    0.431296
 N   -2.058702    0.369980   -0.037178
 C   -3.117791   -0.487123   -0.253824
 N   -3.923110    1.501073    0.513700
 C   -4.228804    0.249679    0.096035
 N   -5.577357   -0.118887    0.072321
 C   -6.055670   -1.357109   -0.283163
 O   -5.317924   -2.255504   -0.637506
 C   -7.563464   -1.480889   -0.202418
 H    6.207293    0.008044   -0.209377
 H    6.129540    1.529142   -0.984998
 H    1.982542    2.964717   -0.930336
 H    1.698633   -1.014620    0.662519
 H   -0.410605   -0.787345   -0.581772
 H    0.322075    3.244191    0.799855
 H   -2.111398    3.557023    1.098834
 H   -2.998314   -1.493158   -0.617973
 H   -6.213793    0.605088    0.370638
 H   -8.033908   -0.901203   -1.003406
 H   -7.834065   -2.529970   -0.317435
 H   -7.943154   -1.106253    0.753567
