36 
4kzc_ligand_xtb.xyz
 F    3.503145   -2.553489    0.829095
 C    4.305248   -1.607633    0.331267
 F    4.921333   -2.157174   -0.738465
 F    5.287003   -1.424775    1.244743
 C    3.592952   -0.337376   -0.004021
 C    4.315319    0.766371   -0.513431
 N    5.642716    0.734842   -0.745602
 N    3.693151    1.907334   -0.812819
 C    2.396071    2.007847   -0.625347
 C    2.228729   -0.215163    0.187954
 C    1.590360    0.985197   -0.121274
 C    0.149236    1.169494    0.074071
 C   -0.728725    0.148700   -0.189429
 C   -0.356497    2.410548    0.537508
 C   -1.697315    2.596688    0.721258
 C   -2.578663    1.547604    0.437352
 N   -2.054092    0.334497   -0.015631
 C   -3.108912   -0.499163   -0.217469
 N   -3.896861    1.486262    0.519876
 C   -4.227023    0.238682    0.120449
 N   -5.558307   -0.126307    0.094208
 C   -6.043726   -1.341700   -0.295553
 O   -5.334314   -2.250628   -0.659129
 C   -7.552554   -1.419450   -0.222518
 H    6.221957   -0.036404   -0.471422
 H    6.072473    1.587155   -1.057553
 H    1.967881    2.959680   -0.909806
 H    1.670114   -1.044098    0.596134
 H   -0.415960   -0.815215   -0.561497
 H    0.337645    3.203262    0.766637
 H   -2.105010    3.526500    1.080284
 H   -3.020656   -1.504626   -0.566409
 H   -6.189686    0.604530    0.389739
 H   -7.996718   -0.672512   -0.877103
 H   -7.875692   -2.407749   -0.535374
 H   -7.888416   -1.236831    0.795931
