27 
4kzl_ligand_ani.xyz
 C    0.443597    1.595952   -0.051081
 C    1.891466    1.740970   -0.026395
 O    2.459760    2.822828   -0.027062
 C    2.615900    0.449831    0.002431
 C    4.013412    0.402969    0.043987
 C    4.677479   -0.810462    0.062495
 C    3.942654   -2.001745    0.037399
 C    2.558087   -1.976853   -0.000980
 C    1.905045   -0.742963   -0.014018
 O    0.538478   -0.776910   -0.042659
 C   -0.167256    0.390799   -0.040661
 C   -1.632904    0.152584   -0.026420
 C   -2.141513   -1.154382   -0.070323
 C   -3.507822   -1.388983   -0.044936
 C   -4.367131   -0.302823    0.023464
 F   -5.691102   -0.523019    0.050666
 C   -3.902913    1.002022    0.065072
 C   -2.532549    1.221782    0.039575
 H   -0.124744    2.515261   -0.077599
 H    4.548688    1.348579    0.060591
 H    5.762521   -0.838124    0.095592
 H    4.460649   -2.956911    0.048681
 H    1.967296   -2.886901   -0.019816
 H   -1.452207   -1.989690   -0.123555
 H   -3.914794   -2.395279   -0.075095
 H   -4.609593    1.823985    0.117278
 H   -2.177116    2.246718    0.078045
