36 
4l0i_ligand_dft.xyz
 C    7.203103    1.321376   -0.506726
 C    6.518841    0.026648   -0.124005
 O    5.103536    0.267504   -0.144062
 C    4.327924   -0.778084    0.170949
 O    4.761389   -1.871054    0.459403
 C    2.874633   -0.441222    0.125981
 C    1.960335   -1.448642    0.434151
 C    0.598493   -1.188986    0.406076
 C    2.413769    0.831103   -0.216674
 C    1.051575    1.091220   -0.244784
 C    0.130872    0.087629    0.075104
 C   -1.319312    0.368768    0.068655
 O   -2.050004   -0.752820   -0.131920
 C   -3.413389   -0.681529   -0.149249
 C   -4.097026   -1.880503   -0.351479
 C   -5.480846   -1.859706   -0.381831
 C   -6.183552   -0.658829   -0.213837
 C   -5.490862    0.521071   -0.015489
 C   -4.091161    0.525152    0.018691
 C   -3.328691    1.774837    0.235183
 O   -3.866452    2.862147    0.388676
 C   -1.882527    1.581743    0.257827
 H    6.899229    1.640880   -1.507731
 H    6.955692    2.116530    0.202447
 H    8.288226    1.180688   -0.503416
 H    6.805212   -0.308663    0.877296
 H    6.748859   -0.782024   -0.824131
 H    2.334840   -2.432299    0.696403
 H   -0.109311   -1.973755    0.647175
 H    3.122970    1.610573   -0.469818
 H    0.702043    2.075145   -0.540005
 H   -3.534024   -2.798389   -0.481231
 H   -6.023486   -2.786898   -0.538375
 H   -7.268334   -0.658262   -0.240143
 H   -5.999549    1.470268    0.118745
 H   -1.263197    2.447710    0.454750
