36 
4l0i_ligand_xtb.xyz
 C    7.056212   -0.086120    1.182880
 C    6.491848    0.501501   -0.102559
 O    5.071614    0.632588   -0.039565
 C    4.349584   -0.458001   -0.321713
 O    4.829347   -1.520853   -0.633481
 C    2.888597   -0.206406   -0.226405
 C    2.016493   -1.239916   -0.559969
 C    0.652948   -1.046526   -0.495497
 C    2.374762    1.021374    0.184272
 C    1.010275    1.214731    0.247895
 C    0.132212    0.187075   -0.100004
 C   -1.323672    0.378848   -0.055528
 O   -2.003107   -0.776823    0.097810
 C   -3.359343   -0.747051    0.136561
 C   -4.019220   -1.965943    0.298123
 C   -5.395702   -1.994060    0.345163
 C   -6.132194   -0.817497    0.233814
 C   -5.483288    0.385447    0.074570
 C   -4.088732    0.439707    0.023923
 C   -3.382557    1.722242   -0.149455
 O   -3.956160    2.793266   -0.256558
 C   -1.935827    1.578470   -0.181671
 H    6.757991    0.517946    2.036564
 H    6.687838   -1.099719    1.320300
 H    8.140608   -0.110433    1.125655
 H    6.751077   -0.135678   -0.954677
 H    6.861404    1.515627   -0.268688
 H    2.431429   -2.186787   -0.870744
 H   -0.021960   -1.845430   -0.761010
 H    3.051585    1.816282    0.454428
 H    0.621814    2.162014    0.587285
 H   -3.432713   -2.867201    0.384019
 H   -5.905146   -2.937695    0.469444
 H   -7.209987   -0.852934    0.272861
 H   -6.023087    1.315946   -0.015060
 H   -1.358784    2.475380   -0.332432
