68 
4l0l_ligand_xtb.xyz
 C    3.474385   -2.568958    0.647289
 C    5.351990   -1.355093   -0.286172
 C   -3.257109    0.364455    0.208791
 C   -4.639400    0.307541   -0.226041
 O   -1.406636    1.531593    0.784826
 C   -0.962963    3.436836   -0.677623
 C   -0.812956    2.830236    0.721612
 C   -1.383982    3.744516    1.801385
 C    4.664942    0.911352    0.596328
 O    3.630080   -2.077583    1.744324
 N    4.370931   -2.415373   -0.375832
 C    4.736362    0.014995   -0.435082
 N    4.205336    0.336866   -1.629313
 O    4.144391   -0.600055   -2.635237
 C    3.618167    1.532773   -1.862444
 C    3.526732    2.461073   -0.874245
 O    2.960732    3.670173   -1.087989
 C    4.004796    2.155251    0.457885
 O    3.798534    2.977748    1.394280
 N    2.447336   -3.447948    0.358486
 C    1.304118   -3.419539    1.236587
 C    0.358553   -2.264322    0.840656
 N   -0.035324   -2.467348   -0.541697
 S    0.464816   -1.322680   -1.594530
 O   -0.150667    0.027722   -1.149641
 O    1.904949   -1.242805   -1.480200
 O   -0.026551   -1.661180   -2.881552
 C   -0.892054   -2.154023    1.750512
 C   -0.497374   -2.017381    3.207438
 O   -0.683101   -1.024647    3.849011
 N   -1.693247   -1.005222    1.406417
 C   -2.551006   -0.952415    0.369976
 O   -2.718695   -1.883122   -0.400872
 N   -2.719314    1.513657    0.356051
 C    0.678896    2.538138    0.928649
 O    1.338063    3.499218    1.474650
 O    1.170499    1.483351    0.547089
 N   -5.370706   -0.821965    0.006817
 C   -6.564195   -0.724574   -0.448390
 N   -7.531849   -1.656569   -0.302537
 S   -6.919003    0.828338   -1.236828
 C   -5.308459    1.306764   -0.875407
 H    6.098837   -1.515651   -1.067222
 H    5.820224   -1.421556    0.697332
 H   -0.387651    4.355334   -0.748924
 H   -0.610252    2.728035   -1.424197
 H   -2.013225    3.647714   -0.861692
 H   -0.889549    4.709905    1.770857
 H   -2.449832    3.872046    1.628122
 H   -1.234790    3.302718    2.783789
 H    5.054563    0.643735    1.564521
 H    4.055288   -2.648279   -1.304313
 H    3.248162   -1.011060   -2.540347
 H    3.225608    1.694437   -2.853033
 H    3.069333    4.177106   -0.261750
 H    2.203779   -3.541859   -0.617381
 H    0.778819   -4.374127    1.166418
 H    1.694740   -3.265230    2.243802
 H    0.928079   -1.327875    0.898471
 H   -1.033122   -2.615194   -0.681012
 H    0.368188    0.551003   -0.464908
 H   -1.486370   -3.068126    1.613782
 H   -0.025968   -2.914057    3.638953
 H   -1.551351   -0.197804    2.001187
 H    2.381458    3.304376    1.532590
 H   -8.330047   -1.606610   -0.912256
 H   -7.214459   -2.575924   -0.040883
 H   -4.935086    2.264680   -1.168669
