68 
4l0l_ligand_dft.xyz
 C    3.503216   -2.617499    0.718629
 C    5.388683   -1.334017   -0.112965
 C   -3.296644    0.343545    0.168394
 C   -4.695960    0.237927   -0.278453
 O   -1.489470    1.529716    0.630274
 C   -1.028959    3.554003   -0.652703
 C   -0.922042    2.845160    0.699315
 C   -1.553611    3.635515    1.837373
 C    4.620390    0.946735    0.709010
 O    3.550395   -2.056023    1.803731
 N    4.469093   -2.443889   -0.247072
 C    4.764744    0.031578   -0.307982
 N    4.333683    0.366789   -1.544200
 O    4.370109   -0.571977   -2.551212
 C    3.768499    1.569806   -1.851878
 C    3.606345    2.491730   -0.867792
 O    3.044150    3.692647   -1.091329
 C    4.000159    2.201512    0.493217
 O    3.754618    3.076889    1.377827
 N    2.508698   -3.523414    0.390315
 C    1.301939   -3.469423    1.184094
 C    0.429080   -2.260209    0.806903
 N    0.004773   -2.406921   -0.596958
 S    0.514034   -1.338689   -1.741540
 O   -0.088590    0.078374   -1.386319
 O    1.969967   -1.265671   -1.594043
 O   -0.069494   -1.733644   -2.994032
 C   -0.820410   -2.104146    1.715389
 C   -0.387245   -1.933188    3.168676
 O   -0.487067   -0.882933    3.751352
 N   -1.614869   -0.957271    1.364811
 C   -2.547017   -0.958437    0.389940
 O   -2.800115   -1.939073   -0.302116
 N   -2.810533    1.529078    0.253976
 C    0.554349    2.518742    0.947546
 O    1.197337    3.461522    1.576965
 O    1.074019    1.482003    0.545699
 N   -5.512985   -0.716755    0.291689
 C   -6.704422   -0.643019   -0.213271
 N   -7.759999   -1.418225    0.201220
 S   -6.925126    0.609230   -1.426778
 C   -5.258857    1.036631   -1.221686
 H    6.194288   -1.476471   -0.837140
 H    5.817577   -1.364340    0.888897
 H   -0.473329    4.495208   -0.625931
 H   -0.620467    2.921820   -1.446009
 H   -2.078671    3.763908   -0.870369
 H   -1.088227    4.619179    1.924184
 H   -2.620636    3.759083    1.634418
 H   -1.432303    3.108660    2.788006
 H    4.925976    0.674004    1.711432
 H    4.244392   -2.713248   -1.192636
 H    3.453948   -0.932533   -2.532900
 H    3.470849    1.708486   -2.881701
 H    3.138269    4.153830   -0.233803
 H    2.341944   -3.665175   -0.597230
 H    0.737828   -4.395466    1.033310
 H    1.612772   -3.412082    2.228440
 H    1.038970   -1.355671    0.919001
 H   -0.999208   -2.580481   -0.715721
 H    0.355441    0.535049   -0.607059
 H   -1.434743   -3.010916    1.632975
 H    0.036656   -2.825500    3.662903
 H   -1.387040   -0.090337    1.833954
 H    2.193402    3.257516    1.602619
 H   -8.460493   -1.640058   -0.491163
 H   -7.464666   -2.216942    0.746830
 H   -4.790375    1.815756   -1.803623
