68 
4l0l_ligand_ani.xyz
 C    3.399883   -2.570371    1.079663
 C    5.404524   -1.245027    0.666481
 C   -3.491337    0.350689    0.087900
 C   -4.925750    0.284995   -0.231414
 O   -1.715023    1.526061    0.719778
 C   -1.240457    3.523076   -0.622258
 C   -1.150555    2.847712    0.746295
 C   -1.824368    3.681239    1.829624
 C    4.672684    1.182633    0.915958
 O    3.174940   -1.991491    2.134674
 N    4.582885   -2.412635    0.394424
 C    4.898877    0.083121    0.130968
 N    4.680766    0.189321   -1.211741
 O    4.826964   -0.895940   -2.030423
 C    4.400606    1.384970   -1.819738
 C    4.213982    2.509482   -1.082509
 O    3.947786    3.692890   -1.660198
 C    4.239534    2.451266    0.377444
 O    3.887373    3.444511    1.033463
 N    2.511892   -3.465259    0.511210
 C    1.163925   -3.510260    1.045032
 C    0.281602   -2.336218    0.593770
 N    0.082253   -2.395725   -0.860657
 S    0.876212   -1.358583   -1.865067
 O    0.288662    0.072027   -1.538171
 O    2.286086   -1.377587   -1.493097
 O    0.475825   -1.677738   -3.205264
 C   -1.093469   -2.327537    1.307749
 C   -0.930654   -2.446286    2.815010
 O   -0.915898   -1.474231    3.532451
 N   -1.810451   -1.097157    1.057806
 C   -2.632768   -0.905332    0.005970
 O   -2.732207   -1.693357   -0.930059
 N   -3.050240    1.524821    0.382259
 C    0.334479    2.582110    1.035108
 O    0.902474    3.540988    1.762829
 O    0.974859    1.641563    0.600835
 N   -5.614527   -0.911030   -0.220568
 C   -6.860652   -0.707282   -0.514209
 N   -7.804253   -1.703876   -0.538582
 S   -7.293936    0.960217   -0.818467
 C   -5.647551    1.402036   -0.509764
 H    6.405906   -1.442335    0.273820
 H    5.479945   -1.151237    1.749703
 H   -0.730363    4.489938   -0.572512
 H   -0.760656    2.917274   -1.395741
 H   -2.284411    3.688400   -0.895274
 H   -1.333897    4.653196    1.895182
 H   -2.877357    3.825204    1.579610
 H   -1.751279    3.187420    2.802827
 H    4.790573    1.110647    1.988716
 H    4.666768   -2.837565   -0.516190
 H    3.901456   -1.246060   -2.115190
 H    4.333044    1.357788   -2.901083
 H    3.815383    4.326374   -0.939539
 H    2.585447   -3.594581   -0.489212
 H    0.700262   -4.452714    0.737201
 H    1.257569   -3.499883    2.130581
 H    0.807725   -1.404090    0.831701
 H   -0.878572   -2.512241   -1.182071
 H    0.627993    0.455220   -0.697218
 H   -1.677234   -3.178407    0.935216
 H   -0.830669   -3.463465    3.242394
 H   -1.690296   -0.365960    1.748532
 H    1.853899    3.344667    1.834751
 H   -8.566912   -1.600175   -1.191781
 H   -7.394476   -2.628340   -0.527852
 H   -5.304477    2.423915   -0.546131
