29 
4l0t_ligand_xtb.xyz
 C   -1.150631    1.615668    0.008728
 C   -2.604394    1.717713    0.000671
 O   -3.197924    2.781827   -0.004064
 C   -3.279884    0.409435   -0.002796
 C   -4.673286    0.314804   -0.014981
 C   -5.290175   -0.915215   -0.017069
 C   -4.522565   -2.077130   -0.005316
 C   -3.146550   -2.008547    0.006137
 C   -2.518963   -0.762418    0.006280
 O   -1.161187   -0.752395    0.014216
 C   -0.503554    0.426900    0.012664
 C    0.958108    0.263837    0.011892
 C    1.825036    1.360802    0.006113
 C    3.191156    1.175155   -0.000223
 C    3.707896   -0.115291   -0.000296
 N    5.137247   -0.309841   -0.009197
 O    5.838143    0.678734   -0.009908
 O    5.547562   -1.450409   -0.015578
 C    2.865251   -1.219763    0.007082
 C    1.500430   -1.026214    0.013205
 H   -0.611450    2.547121    0.009607
 H   -5.237143    1.235159   -0.022711
 H   -6.366949   -0.983164   -0.027417
 H   -5.007095   -3.041642   -0.005763
 H   -2.538336   -2.899330    0.014685
 H    1.436843    2.365413    0.005766
 H    3.870618    2.013740   -0.005749
 H    3.292847   -2.210710    0.007908
 H    0.839938   -1.878168    0.018180
