31 
4l10_ligand_ani.xyz
 C   -6.212640    0.274440    0.302411
 O   -5.289283   -0.718609   -0.087392
 C   -3.971879   -0.395371   -0.053145
 C   -3.477188    0.847640    0.339588
 C   -2.104592    1.072221    0.329460
 C   -3.086896   -1.407668   -0.443202
 C   -1.726141   -1.175135   -0.439463
 C   -1.212063    0.075214   -0.059306
 C    0.245046    0.334317   -0.082124
 O    0.978284   -0.813180   -0.038838
 C    2.341688   -0.735851    0.039352
 C    3.025418   -1.945436    0.171312
 C    4.407946   -1.927097    0.254830
 C    5.110175   -0.717065    0.201911
 C    4.415848    0.471515    0.063172
 C    3.019582    0.475615   -0.019821
 C    2.262812    1.740136   -0.169034
 O    2.803646    2.831708   -0.265194
 C    0.819262    1.553732   -0.179680
 H   -6.053507    0.584175    1.343791
 H   -6.150709    1.157605   -0.347131
 H   -7.200815   -0.177314    0.205944
 H   -4.142186    1.645719    0.650568
 H   -1.737171    2.041171    0.658793
 H   -3.499323   -2.367829   -0.740905
 H   -1.037416   -1.960651   -0.734738
 H    2.456770   -2.868825    0.206881
 H    4.950570   -2.862475    0.361985
 H    6.194026   -0.710869    0.268530
 H    4.926073    1.429809    0.014498
 H    0.214248    2.442892   -0.294402
