35 
4l19_ligand_ani.xyz
 O   -4.213826    2.508511   -0.147588
 C   -3.518822    1.510680   -0.116361
 C   -3.927866    0.132048   -0.013643
 C   -3.000260   -0.863868    0.017235
 C   -3.654106   -2.213337    0.121381
 C   -5.323903   -0.394562    0.058183
 C   -5.110292   -1.860747    0.514602
 N   -2.114275    1.616259   -0.179176
 C   -1.263773    0.546722   -0.144950
 N   -1.643222   -0.687673   -0.048076
 S    0.442458    0.998165   -0.251918
 C    1.244274   -0.640811   -0.105465
 C    2.738665   -0.458081   -0.031834
 C    3.318963    0.161880    1.076652
 C    4.693481    0.342310    1.149995
 C    5.534139   -0.090683    0.119899
 C    7.026553    0.111693    0.205505
 C    4.951031   -0.710742   -0.983277
 C    3.572266   -0.892714   -1.058953
 H   -3.156165   -2.859811    0.850828
 H   -3.612666   -2.729147   -0.847875
 H   -5.813995   -0.344373   -0.924123
 H   -5.952524    0.183537    0.744097
 H   -5.215667   -1.916525    1.602703
 H   -5.839547   -2.547738    0.077098
 H   -1.755928    2.562373   -0.250203
 H    0.951653   -1.244333   -0.968438
 H    0.848759   -1.129249    0.790418
 H    2.686020    0.515104    1.888856
 H    5.124668    0.829330    2.022947
 H    7.279400    1.176170    0.273961
 H    7.443521   -0.379165    1.092468
 H    7.537013   -0.295846   -0.671815
 H    5.583184   -1.058904   -1.798551
 H    3.143938   -1.378981   -1.934034
