35 
4l19_ligand_dft.xyz
 O   -4.245081    2.503360    0.023154
 C   -3.540706    1.509934    0.008617
 C   -3.927874    0.124604   -0.024909
 C   -2.978874   -0.849673   -0.051671
 C   -3.603933   -2.217159   -0.125133
 C   -5.319063   -0.435945   -0.074337
 C   -5.084203   -1.939400    0.224484
 N   -2.128893    1.638125    0.029926
 C   -1.254710    0.593388   -0.002752
 N   -1.623938   -0.652091   -0.046634
 S    0.452000    1.047412    0.018512
 C    1.228352   -0.613503   -0.032479
 C    2.723909   -0.445216   -0.018685
 C    3.423661   -0.384564    1.188829
 C    4.802629   -0.223884    1.200352
 C    5.525544   -0.115479    0.008478
 C    7.023491    0.055652    0.035271
 C    4.821645   -0.172399   -1.194451
 C    3.439660   -0.333152   -1.209660
 H   -3.120531   -2.926234    0.553541
 H   -3.486213   -2.615434   -1.141608
 H   -5.761741   -0.280243   -1.066785
 H   -5.989564    0.039903    0.647497
 H   -5.241494   -2.122558    1.292454
 H   -5.772996   -2.587331   -0.323170
 H   -1.788612    2.592157    0.060794
 H    0.879374   -1.118870   -0.934772
 H    0.869043   -1.177205    0.830449
 H    2.880919   -0.465098    2.127501
 H    5.329472   -0.183084    2.150716
 H    7.307180    0.958618    0.587255
 H    7.508823   -0.793811    0.528800
 H    7.435247    0.136590   -0.974738
 H    5.360711   -0.091315   -2.134874
 H    2.911668   -0.373017   -2.159254
