27 
4l2g_ligand_ani.xyz
 C   -0.415677    1.593204   -0.047530
 C    1.020386    1.829171   -0.042605
 O    1.522084    2.942411   -0.063865
 C    1.827024    0.586838   -0.009358
 C    3.223875    0.640181   -0.001364
 C    3.939225   -0.536811    0.022176
 F    5.281788   -0.495028    0.028901
 C    3.308664   -1.780306    0.038129
 C    1.925444   -1.835389    0.031747
 C    1.191581   -0.647898    0.009006
 O   -0.170538   -0.769217    0.002010
 C   -0.947856    0.351986   -0.013429
 C   -2.397458    0.021132   -0.001421
 C   -2.818852   -1.312854   -0.092904
 C   -4.171800   -1.624126   -0.085184
 C   -5.123890   -0.612516    0.014376
 C   -4.713747    0.713762    0.107285
 C   -3.360183    1.029834    0.100166
 H   -1.041657    2.473765   -0.087393
 H    3.725291    1.602682   -0.014686
 H    3.910929   -2.682473    0.054835
 H    1.396419   -2.782254    0.043214
 H   -2.075307   -2.099261   -0.169931
 H   -4.485357   -2.663073   -0.156017
 H   -6.182295   -0.858503    0.020576
 H   -5.450341    1.509466    0.185421
 H   -3.066563    2.072116    0.184170
