30 
4l2k_ligand_ani.xyz
 C    2.035625    0.917077    0.064402
 C    3.349809    0.527338    0.052488
 O    4.469583    1.311080    0.114468
 C    5.556896    0.402946    0.248832
 O    5.086754   -0.896723   -0.091497
 C    3.723925   -0.806187   -0.073328
 C    2.795665   -1.814256   -0.193779
 C    1.451536   -1.435192   -0.177358
 C    1.062211   -0.094812   -0.053062
 C   -0.379052    0.256678   -0.051257
 O   -1.176749   -0.850145   -0.001168
 C   -2.536052   -0.708069    0.031774
 C   -3.284426   -1.885216    0.092488
 C   -4.666674   -1.799689    0.128965
 C   -5.305675   -0.554312    0.106181
 C   -4.548116    0.601415    0.041911
 C   -3.151253    0.536391    0.000715
 C   -2.327181    1.763538   -0.084546
 O   -2.808485    2.885965   -0.128913
 C   -0.895304    1.504481   -0.110739
 H    1.774879    1.964386    0.176390
 H    5.910625    0.404917    1.290025
 H    6.357063    0.690114   -0.437303
 H    3.094708   -2.853138   -0.295658
 H    0.685135   -2.197037   -0.265279
 H   -2.767581   -2.839268    0.108676
 H   -5.258176   -2.710105    0.175098
 H   -6.389581   -0.495342    0.136663
 H   -5.007317    1.586107    0.019495
 H   -0.260175    2.375163   -0.193360
