45 
4l4m_ligand_xtb.xyz
 C   -1.015504   -0.431434   -0.058984
 C   -0.017682    0.270827    0.591211
 C    0.142444    1.635631    0.363708
 C    1.266094    2.367364    1.052590
 C    6.436408    0.964812   -0.816819
 C    7.990046   -0.955729   -0.964261
 C   -4.614768   -1.595833    0.421287
 C   -6.435138   -0.384917    1.464962
 C   -5.296997    0.547412   -0.459312
 C   -0.702205    2.288144   -0.526137
 C   -1.706709    1.589620   -1.174542
 C   -1.849178    0.237370   -0.935667
 N    2.558741    1.913061    0.582503
 C    3.279677    0.991571    1.275904
 O    2.919644    0.562626    2.354277
 C    4.546686    0.558517    0.625098
 C    5.274886    1.397078   -0.258167
 N    6.892925   -0.279535   -0.543377
 C    7.938614   -2.183061   -0.340809
 N    6.856226   -2.286730    0.446016
 C    6.214080   -1.137900    0.333288
 C    5.030831   -0.692455    0.927135
 S   -3.178737   -0.658275   -1.739001
 O   -3.611005    0.080133   -2.892918
 O   -2.800969   -2.034668   -1.893713
 C   -4.485241   -0.569280   -0.492807
 C   -5.598506   -1.486133    1.390481
 C   -6.267553    0.619205    0.526001
 F   -7.069099    1.692751    0.581122
 F   -5.748239   -2.469044    2.288930
 H   -1.148423   -1.491312    0.087612
 H    0.644305   -0.229974    1.281432
 H    1.245150    2.157770    2.126281
 H    1.184672    3.445363    0.888761
 H    7.032999    1.572186   -1.481416
 H    8.700549   -0.539212   -1.648103
 H   -3.979777   -2.464065    0.357586
 H   -7.196875   -0.315123    2.224492
 H   -5.187942    1.323461   -1.198652
 H   -0.577330    3.345154   -0.710415
 H   -2.366867    2.068947   -1.879783
 H    2.787232    2.099244   -0.380502
 H    4.938063    2.400176   -0.464512
 H    8.634127   -2.994760   -0.426004
 H    4.507634   -1.336001    1.614646
