39 
4l4v_ligand_xtb.xyz
 O   -0.783686   -3.226091    0.130752
 C   -1.328154   -2.027196    0.157264
 C   -2.722389   -1.869165    0.042288
 C   -3.604934   -3.067873   -0.062207
 N   -3.270841   -0.669650    0.000528
 C   -2.510302    0.403773    0.043023
 C   -3.100649    1.754160   -0.058313
 O   -4.276369    2.008549   -0.150220
 N   -2.140358    2.748417   -0.044924
 C   -0.757986    2.597159    0.044981
 O   -0.025685    3.567269   -0.030480
 N   -0.273633    1.344717    0.200513
 C   -1.099262    0.329815    0.186891
 N   -0.553117   -0.929596    0.308658
 C    0.864351   -1.020661    0.619334
 C    1.708569   -1.364569   -0.617488
 O    1.695228   -2.771512   -0.811077
 C    3.186753   -0.921864   -0.493751
 O    3.810762   -1.776645    0.439778
 C    3.436842    0.541618   -0.098197
 O    3.139917    0.683296    1.274696
 C    2.648226    1.598858   -0.903417
 O    2.656004    2.783872   -0.144435
 H    0.176824   -3.199455   -0.128925
 H   -3.479807   -3.707852    0.808861
 H   -3.343871   -3.651703   -0.943012
 H   -4.636144   -2.738828   -0.132703
 H   -2.478390    3.700820   -0.133248
 H    1.150907   -0.043111    1.010973
 H    1.013709   -1.783090    1.390073
 H    1.258946   -0.914216   -1.507864
 H    2.499039   -3.110534   -0.379444
 H    3.658166   -1.117876   -1.465049
 H    3.797582   -1.313684    1.290201
 H    4.514118    0.731346   -0.237898
 H    2.970691    1.639432    1.379117
 H    3.137205    1.762459   -1.871452
 H    1.623358    1.264117   -1.069769
 H    1.747547    3.150718   -0.097845
