54 
4l52_ligand_ani.xyz
 O    8.538773   -2.399524   -0.602936
 C    8.323535   -1.444795    0.128910
 C    8.990874   -1.336579    1.487363
 N    7.479772   -0.427383   -0.236242
 C    7.073832    0.685802    0.606786
 C    5.580077    0.617975    0.916666
 C    4.767351    0.536743   -0.383959
 C    5.252713   -0.638176   -1.244511
 C    6.754095   -0.530732   -1.495853
 N    3.333870    0.451116   -0.117102
 C    2.394007    1.373137   -0.415949
 C    1.181299    0.897065    0.051815
 C    1.528272   -0.343376    0.636422
 N    2.824965   -0.603326    0.531983
 C   -0.109320    1.572527   -0.012615
 C   -0.162087    2.958574   -0.050351
 N   -1.273613    3.703647   -0.068258
 C   -2.448664    3.088757   -0.053936
 N   -3.596623    3.823051   -0.111135
 C   -2.494622    1.687864   -0.028251
 C   -1.357796    0.902022   -0.021991
 O   -3.629164    0.946065   -0.018600
 C   -3.219417   -0.356308   -0.034218
 C   -1.860616   -0.443656   -0.044741
 C   -4.262524   -1.365332   -0.034444
 C   -5.629289   -1.018629    0.029166
 S   -6.435292    0.491728    0.111869
 N   -7.969498   -0.264345    0.152461
 N   -7.912754   -1.522745    0.108504
 C   -6.611944   -2.015029    0.037052
 C   -6.273800   -3.372178   -0.022620
 C   -4.936253   -3.708186   -0.087866
 C   -3.945748   -2.716691   -0.092598
 H    8.251788   -1.342905    2.295271
 H    9.644702   -2.201575    1.596817
 H    9.587733   -0.423048    1.574404
 H    7.292536    1.625235    0.077278
 H    7.661476    0.693823    1.525929
 H    5.276666    1.496519    1.495055
 H    5.363437   -0.270197    1.522927
 H    4.905299    1.467671   -0.947408
 H    4.708443   -0.654510   -2.194572
 H    5.034105   -1.576561   -0.720672
 H    7.141186   -1.407836   -2.016392
 H    6.971071    0.358928   -2.106187
 H    2.652283    2.273540   -0.962720
 H    0.881418   -1.038048    1.158042
 H    0.770976    3.521118   -0.046311
 H   -3.507590    4.808111    0.087731
 H   -4.451497    3.375015    0.179694
 H   -1.297717   -1.366831   -0.084513
 H   -7.060658   -4.119826   -0.016062
 H   -4.644049   -4.753277   -0.135159
 H   -2.900499   -3.010231   -0.143921
