46 
4l70_ligand_ani.xyz
 C    1.478175    1.511296    0.827576
 C    0.662894    2.632048    0.708144
 C    0.892265    3.550411   -0.313781
 C    1.936512    3.339355   -1.206451
 C    2.750954    2.216584   -1.083503
 C    2.527484    1.286805   -0.067136
 C    3.335566   -0.000259    0.072152
 C    4.775419    0.112301   -0.431885
 C    5.658638   -1.046019    0.021010
 N    2.661237   -1.134454   -0.564831
 C    1.712194   -1.851534    0.095656
 O    1.575315   -1.781989    1.315736
 C    0.844820   -2.752330   -0.772254
 C   -0.504145   -3.106624   -0.126805
 C   -1.458066   -1.948697    0.016732
 N   -2.486915   -1.850328   -0.752148
 C   -3.318398   -0.750686   -0.548057
 C   -4.455438   -0.601130   -1.364905
 C   -5.299120    0.475453   -1.189290
 C   -5.042253    1.439269   -0.196977
 C   -3.930581    1.304076    0.610189
 C   -3.070823    0.215310    0.438294
 C   -1.886197    0.078407    1.293640
 O   -1.561568    0.864191    2.168311
 N   -1.137778   -1.049260    1.016246
 H    1.307387    0.795234    1.630402
 H   -0.152445    2.776913    1.410134
 H    0.258716    4.428551   -0.414811
 H    2.125345    4.052796   -2.004928
 H    3.571689    2.080252   -1.785137
 H    3.349462   -0.249129    1.138848
 H    5.191043    1.062555   -0.074623
 H    4.771640    0.165882   -1.529484
 H    6.679879   -0.926522   -0.354324
 H    5.269661   -2.002657   -0.341644
 H    5.708682   -1.095348    1.115069
 H    2.614761   -1.124881   -1.574357
 H    0.689963   -2.288359   -1.754822
 H    1.407700   -3.679198   -0.944437
 H   -0.322023   -3.534779    0.862578
 H   -1.013084   -3.854135   -0.737518
 H   -4.637185   -1.354718   -2.125387
 H   -6.174966    0.582294   -1.825377
 H   -5.716922    2.281569   -0.071939
 H   -3.690132    2.022164    1.389698
 H   -0.264365   -1.182012    1.530727
