59 
4l7b_ligand_xtb.xyz
 C    4.922268   -1.928697    1.064021
 C    5.064947   -1.437727   -0.224358
 C   -5.791678   -1.322015    0.318716
 C   -4.979454   -2.148841    1.077288
 C    3.680997   -2.330518    1.548126
 C    3.970391   -1.323520   -1.075685
 C   -5.221127   -0.374997   -0.509497
 C   -3.605982   -2.024965    0.994722
 C    2.597066   -2.217309    0.703783
 C    2.739349   -1.714037   -0.592112
 C   -3.840888   -0.243577   -0.601983
 C   -3.025192   -1.083626    0.151560
 C    1.169068   -2.552211    0.911122
 C    1.400040   -1.692839   -1.226658
 C   -0.076028    0.916143   -0.141250
 C   -0.779127    3.373560    1.097107
 C   -3.228967    0.805076   -1.484803
 C    2.769166    1.955799   -0.881902
 C    2.929082    3.165076    0.032113
 C    1.502103    2.082158   -1.720641
 C    1.746685    3.239694    0.990800
 C   -1.817913    0.373666   -1.872560
 C   -1.520229   -0.990066    0.103998
 C    0.254893    2.230574   -0.840563
 C    0.441537    3.348980    0.202871
 C   -0.889797   -2.288392   -0.448581
 N    0.541738   -2.241988   -0.291683
 N   -1.060697    0.153660   -0.663644
 O    0.614617   -3.027737    1.867345
 O    1.076312   -1.306366   -2.324075
 O    0.522511    0.551530    0.861689
 O   -1.868040    2.967043    0.776200
 O   -0.555643    3.930634    2.287587
 H    5.789627   -2.000201    1.703428
 H    6.041391   -1.135057   -0.572313
 H   -6.866137   -1.412036    0.378418
 H   -5.416041   -2.884307    1.736230
 H    3.562783   -2.714184    2.549342
 H    4.073046   -0.939202   -2.078484
 H   -5.850142    0.279857   -1.095412
 H   -2.972620   -2.654354    1.602766
 H   -3.169159    1.743942   -0.925852
 H   -3.843619    0.967392   -2.371572
 H    3.634353    1.860898   -1.541338
 H    2.707935    1.057050   -0.267341
 H    3.856222    3.080711    0.601639
 H    2.983112    4.078181   -0.567569
 H    1.582278    2.962353   -2.364981
 H    1.388782    1.202965   -2.359042
 H    1.717151    2.335531    1.598029
 H    1.841907    4.101232    1.653046
 H   -1.857924   -0.571318   -2.425057
 H   -1.330838    1.101402   -2.516766
 H   -1.137674   -0.857019    1.124749
 H   -0.592483    2.528487   -1.459426
 H    0.444720    4.306931   -0.336272
 H   -1.109833   -2.405290   -1.512233
 H   -1.265291   -3.150522    0.105206
 H   -1.364150    3.909685    2.824314
