59 
4l7b_ligand_ani.xyz
 C    5.363097   -1.061578    0.796259
 C    5.383403   -1.262166   -0.595548
 C   -5.565710   -2.073072    0.201453
 C   -4.795571   -2.581786    1.243689
 C    4.191116   -1.228521    1.527933
 C    4.232301   -1.629130   -1.284566
 C   -4.970459   -1.273174   -0.766081
 C   -3.439162   -2.289606    1.300727
 C    3.048536   -1.595864    0.828558
 C    3.066435   -1.786031   -0.544507
 C   -3.608191   -0.966595   -0.715035
 C   -2.832241   -1.486116    0.328962
 C    1.671720   -1.869360    1.325497
 C    1.697753   -2.169381   -0.981954
 C   -0.360000    0.987142    0.017781
 C   -1.548586    3.674471    0.420835
 C   -2.995833   -0.052990   -1.761020
 C    2.413846    2.198646   -0.604027
 C    2.326894    3.569906    0.070184
 C    1.269647    2.001311   -1.603349
 C    0.989383    3.747144    0.788891
 C   -1.492620   -0.277638   -1.843532
 C   -1.334060   -1.208020    0.417956
 C   -0.096619    2.163445   -0.926132
 C   -0.170054    3.506145   -0.186880
 C   -0.488952   -2.485680    0.204266
 N    0.935753   -2.211496    0.189315
 N   -0.914938   -0.160135   -0.511566
 O    1.244417   -1.845935    2.459312
 O    1.277527   -2.396457   -2.097325
 O   -0.059321    1.047578    1.199900
 O   -2.533047    3.065757    0.069777
 O   -1.607459    4.629896    1.368471
 H    6.279703   -0.774448    1.305480
 H    6.316009   -1.129383   -1.138463
 H   -6.628015   -2.297331    0.145032
 H   -5.249943   -3.206213    2.008169
 H    4.153836   -1.081265    2.603476
 H    4.228162   -1.792911   -2.358552
 H   -5.571461   -0.871688   -1.580234
 H   -2.841961   -2.690899    2.118430
 H   -3.201344    0.992164   -1.487796
 H   -3.459958   -0.229765   -2.738327
 H    3.377785    2.081669   -1.111835
 H    2.360438    1.416352    0.166682
 H    3.156074    3.700227    0.775775
 H    2.439855    4.356642   -0.690982
 H    1.355270    2.751982   -2.401392
 H    1.344528    1.020964   -2.089695
 H    0.911752    3.024191    1.604209
 H    0.900848    4.752566    1.213229
 H   -1.284326   -1.289725   -2.209563
 H   -0.999331    0.412979   -2.533350
 H   -1.100114   -0.832082    1.418446
 H   -0.895321    2.175265   -1.671366
 H   -0.110662    4.293972   -0.957256
 H   -0.717368   -2.944870   -0.758672
 H   -0.689107   -3.205778    1.000525
 H   -2.534429    4.653074    1.660539
