60 
4l7f_ligand_xtb.xyz
 F   -8.140658   -2.514780   -2.468849
 C   -7.399029   -1.884921   -1.532088
 C   -6.022588   -1.883824   -1.647388
 C   -5.272313   -1.242146   -0.679747
 C   -8.035595   -1.256730   -0.478097
 C   -7.271411   -0.617744    0.479421
 C   -5.880661   -0.601942    0.396634
 C   -5.056048    0.084544    1.431431
 C   -5.511635    0.098091    2.871480
 C   -5.561358    1.356884    2.070815
 N   -3.639618   -0.002008    1.240561
 C   -2.946035    0.854647    0.443055
 O   -3.464593    1.808394   -0.101688
 C   -1.491429    0.556363    0.312439
 C   -0.934804   -0.717838    0.479153
 C    0.416328   -0.916435    0.338455
 C   -0.664125    1.615361   -0.030225
 C    0.701480    1.425874   -0.171074
 N    1.574431    2.445969   -0.501231
 C    2.922618    2.208161   -0.612495
 N    3.584776    3.304758   -0.927961
 C    2.647198    4.270499   -1.026246
 C    1.396010    3.767840   -0.766879
 C    3.416304    0.881369   -0.380585
 N    2.609118   -0.104262   -0.074976
 C    1.278179    0.145710    0.025336
 N    4.737431    0.685105   -0.508694
 C    5.399711   -0.560337   -0.206217
 C    6.056210   -0.512624    1.178351
 C    6.758750   -1.830024    1.481436
 C    6.449965   -0.870024   -1.273163
 C    7.152851   -2.188141   -0.965757
 C    7.809116   -2.145372    0.417986
 O    8.399501   -3.382695    0.757711
 H   -5.551787   -2.376404   -2.483311
 H   -4.197666   -1.233114   -0.776011
 H   -9.112320   -1.270238   -0.416502
 H   -7.775863   -0.125935    1.296249
 H   -4.747498    0.009260    3.629692
 H   -6.431580   -0.408391    3.118673
 H   -6.513605    1.741235    1.743134
 H   -4.829193    2.122318    2.271623
 H   -3.157103   -0.763335    1.690520
 H   -1.564780   -1.570027    0.692403
 H    0.852398   -1.894809    0.462023
 H   -1.111643    2.585476   -0.183078
 H    2.920636    5.275612   -1.278198
 H    0.437808    4.242455   -0.758126
 H    5.294186    1.508814   -0.681489
 H    4.618534   -1.326097   -0.210112
 H    5.292660   -0.316615    1.932179
 H    6.779242    0.306548    1.204822
 H    6.036508   -2.647160    1.500082
 H    7.243712   -1.790923    2.457099
 H    7.184855   -0.061101   -1.296574
 H    5.973158   -0.921778   -2.253194
 H    7.910126   -2.390651   -1.728328
 H    6.430489   -3.006784   -0.981116
 H    8.579305   -1.354281    0.425273
 H    9.016971   -3.637039    0.063636
