38 
4l7g_ligand_ani.xyz
 C   -0.573404    0.346070    0.026059
 C    0.609562    1.044942    0.274099
 C    0.503277    2.362011    0.735180
 C    1.995066    0.382576    0.107772
 C    3.033429    1.411148   -0.357298
 C   -3.051061    0.160795   -0.115037
 C   -5.247004   -1.276910   -0.640833
 C   -4.172095    0.706527   -0.741760
 C   -0.740541    2.960024    0.916795
 C   -1.905448    2.260494    0.633460
 C   -1.826782    0.940864    0.184967
 C    4.309487    0.768120   -0.873771
 O    4.023972   -0.163878   -1.894524
 C    3.322533   -1.262734   -1.364371
 C    1.949233   -0.861317   -0.823471
 O    1.497428   -1.916808    0.046540
 C    1.856999   -1.588475    1.331846
 N    2.415271   -0.316783    1.328099
 N    1.708891   -2.323056    2.347677
 C   -3.161309   -1.189793    0.213555
 N   -4.250648   -1.914632   -0.030083
 N   -5.266184    0.000006   -1.017885
 H   -0.533689   -0.680732   -0.326162
 H    1.393842    2.947379    0.944476
 H    2.587890    2.010012   -1.160197
 H    3.282623    2.084647    0.470344
 H   -6.139739   -1.861025   -0.855015
 H   -4.178613    1.750544   -1.058671
 H   -0.796534    3.986524    1.269026
 H   -2.877187    2.724155    0.784911
 H    4.840438    0.270822   -0.046462
 H    4.971645    1.522146   -1.309966
 H    3.212903   -1.999252   -2.164905
 H    3.893268   -1.727278   -0.546992
 H    1.239525   -0.748134   -1.646873
 H    2.313385    0.171958    2.209035
 H    1.294280   -3.209105    2.067430
 H   -2.338185   -1.701960    0.716090
