41 
4l7h_ligand_dft.xyz
 C   -2.792278   -0.934303    0.242800
 C   -4.223005   -2.554434    1.048903
 C   -0.532391   -0.944550    1.178035
 C    1.139747    0.845549    0.431849
 C    2.412041    0.051505    0.141354
 C    4.833982   -1.334753   -0.189319
 C    3.890811   -1.370615   -1.197960
 C    2.703999   -0.674342   -1.010034
 C   -5.322958   -2.060365    0.359119
 C   -5.134413   -0.905433   -0.383978
 C   -3.874503   -0.307736   -0.438453
 N   -3.003557   -2.027359    0.987239
 N   -1.509661   -0.431153    0.226737
 C    0.360305    0.211648    1.613137
 C    0.171181    1.094298   -0.754082
 C   -0.881310    0.027324   -1.004131
 O   -0.467283    2.320915   -0.393691
 C    0.347914    3.020271    0.440822
 N    1.471644    2.246369    0.697938
 N    0.133711    4.171892    0.915424
 C    3.409228    0.042050    1.127717
 C    4.612346   -0.631159    0.985607
 F    1.822261   -0.739114   -2.026816
 F    5.983519   -1.997005   -0.352661
 C   -3.765603    0.956076   -1.100858
 N   -3.728254    1.981103   -1.643011
 H   -4.319241   -3.433758    1.682452
 H    0.058520   -1.758088    0.726839
 H   -1.059202   -1.365480    2.032355
 H    4.064271   -1.917537   -2.116436
 H   -6.290625   -2.542744    0.425503
 H   -5.961109   -0.433852   -0.905748
 H    1.059750   -0.126337    2.384487
 H   -0.280586    0.979643    2.059139
 H    0.733096    1.262122   -1.676321
 H   -1.614230    0.442743   -1.693232
 H   -0.395688   -0.821838   -1.502047
 H    1.941379    2.483162    1.561362
 H   -0.734235    4.547945    0.539214
 H    3.238264    0.586635    2.052081
 H    5.368148   -0.616996    1.761720
