41 
4l7h_ligand_ani.xyz
 C   -2.785500   -0.926777    0.312566
 C   -4.053461   -2.751647    0.876767
 C   -0.555247   -0.761837    1.289823
 C    1.144019    0.906898    0.387427
 C    2.386754    0.060312    0.112957
 C    4.735822   -1.461350   -0.160612
 C    3.774754   -1.518804   -1.152351
 C    2.629979   -0.752008   -0.995135
 C   -5.171744   -2.281802    0.203581
 C   -5.087833   -1.033154   -0.397253
 C   -3.891619   -0.321297   -0.333652
 N   -2.899047   -2.087893    0.954059
 N   -1.547877   -0.288439    0.329373
 C    0.372232    0.391685    1.628021
 C    0.161282    1.118144   -0.784804
 C   -0.931230    0.075406   -0.949899
 O   -0.427505    2.404229   -0.504073
 C    0.440915    3.125943    0.266752
 N    1.508382    2.311832    0.584444
 N    0.289915    4.325432    0.636177
 C    3.404267    0.074690    1.077382
 C    4.572630   -0.666532    0.961177
 F    1.732049   -0.836564   -2.007281
 F    5.853605   -2.191772   -0.292408
 C   -3.824728    1.030873   -0.825092
 N   -3.779929    2.119147   -1.224030
 H   -4.081242   -3.711157    1.390357
 H    0.014695   -1.607658    0.873198
 H   -1.070315   -1.117477    2.182520
 H    3.904468   -2.136243   -2.034253
 H   -6.085528   -2.864988    0.167953
 H   -5.938039   -0.601101   -0.917944
 H    1.079351    0.099224    2.411369
 H   -0.235977    1.213947    2.018280
 H    0.725623    1.224243   -1.713665
 H   -1.676182    0.493931   -1.624853
 H   -0.499132   -0.807774   -1.438190
 H    2.035325    2.575770    1.405633
 H   -0.576372    4.698610    0.254674
 H    3.280432    0.690453    1.965190
 H    5.344168   -0.641593    1.723414
