41 
4l7j_ligand_xtb.xyz
 C   -2.306433   -0.324650   -0.757577
 C   -2.727711   -2.583000   -0.915513
 C   -1.564265    1.935464   -0.138142
 C    0.506579    1.355791    1.177901
 C    2.240915   -0.139028    0.022741
 C    4.943708   -0.623638   -0.416618
 C    4.411048    0.593465   -0.800666
 C    3.066335    0.810060   -0.571343
 C   -4.087120   -2.431470   -0.699905
 C   -4.568417   -1.144303   -0.541499
 C   -3.691438   -0.061787   -0.583959
 N   -1.872695   -1.578883   -0.935546
 N   -1.365743    0.653600   -0.794107
 C   -0.255909    2.466870    0.452275
 C    0.768985    0.124874    0.258051
 C    0.006462    0.308320   -1.075674
 N    0.155517   -0.940112    1.022807
 C   -0.595258   -0.421487    2.064488
 O   -0.270967    0.869777    2.259705
 N   -1.442080   -0.987584    2.801132
 C    2.823778   -1.345196    0.394914
 C    4.166084   -1.598172    0.181617
 F    2.555498    2.004142   -0.944359
 F    6.248512   -0.856631   -0.630298
 C   -4.257037    1.227166   -0.528935
 N   -4.796851    2.240741   -0.527322
 H   -2.286360   -3.559841   -1.069127
 H   -2.283586    1.807425    0.676654
 H   -1.973256    2.667126   -0.844491
 H    1.442154    1.752969    1.589719
 H    5.021131    1.353019   -1.261160
 H   -4.744264   -3.284118   -0.669017
 H   -5.622922   -0.957901   -0.398286
 H    0.384189    2.897472   -0.315812
 H   -0.496521    3.248417    1.172317
 H    0.454726    1.099573   -1.678260
 H    0.023899   -0.627422   -1.635997
 H   -0.245112   -1.701374    0.489081
 H   -1.591539   -1.966276    2.588886
 H    2.208830   -2.090137    0.872956
 H    4.611397   -2.534756    0.475134
