41 
4l7j_ligand_ani.xyz
 C   -2.365332   -0.274199   -0.747949
 C   -2.875944   -2.512027   -1.026625
 C   -1.535543    1.919758    0.090852
 C    0.545633    1.204654    1.325380
 C    2.289955   -0.173661    0.028698
 C    5.010168   -0.520213   -0.516997
 C    4.403760    0.669987   -0.883781
 C    3.057212    0.808762   -0.595827
 C   -4.241291   -2.308906   -0.875976
 C   -4.675124   -1.004166   -0.691279
 C   -3.749906    0.039211   -0.642736
 N   -1.970519   -1.535544   -0.977856
 N   -1.378245    0.674654   -0.670971
 C   -0.197171    2.369850    0.678882
 C    0.813608    0.034030    0.326524
 C   -0.001566    0.290638   -0.975213
 N    0.232622   -1.095935    1.053002
 C   -0.595521   -0.643004    2.074832
 O   -0.274699    0.643991    2.358565
 N   -1.515458   -1.224210    2.720189
 C    2.961870   -1.345697    0.383050
 C    4.311638   -1.534124    0.115628
 F    2.473361    1.980107   -0.944408
 F    6.314833   -0.689330   -0.781047
 C   -4.249751    1.384818   -0.569424
 N   -4.701004    2.451722   -0.517148
 H   -2.488550   -3.514670   -1.201554
 H   -2.245137    1.764861    0.907288
 H   -1.925104    2.710225   -0.557524
 H    1.470149    1.546915    1.799784
 H    4.957924    1.461037   -1.375411
 H   -4.936792   -3.139147   -0.920400
 H   -5.730246   -0.766522   -0.586321
 H    0.437874    2.807614   -0.096078
 H   -0.384914    3.141839    1.430427
 H    0.469031    1.077735   -1.566011
 H   -0.030528   -0.627588   -1.560650
 H   -0.191848   -1.805286    0.464510
 H   -1.634942   -2.183641    2.398600
 H    2.401309   -2.121948    0.891521
 H    4.823687   -2.449417    0.393630
