47 
4l7l_ligand_ani.xyz
 C   -1.522546    2.188885    0.753848
 C   -0.170991    2.507966    0.719884
 C    0.531686    2.438831   -0.481062
 C   -0.123009    2.042524   -1.642863
 C   -1.477896    1.725252   -1.602472
 C   -2.195612    1.799896   -0.406347
 C   -3.655898    1.413429   -0.347819
 C   -3.896119    0.075046    0.386659
 C   -5.363503   -0.327713    0.329877
 O   -5.658935   -0.647180   -1.021799
 N   -3.096905   -0.996633   -0.171658
 C   -1.922250   -1.406715    0.371681
 O   -1.569731   -1.055425    1.495668
 C   -1.107866   -2.340093   -0.515826
 C    0.202421   -2.831175    0.115522
 C    1.315072   -1.816512    0.165465
 N    2.254220   -1.844539   -0.717763
 C    3.282986   -0.918230   -0.562467
 C    4.332123   -0.905928   -1.502626
 C    5.374542   -0.014827   -1.368284
 C    5.412881    0.895201   -0.296267
 C    4.387312    0.896626    0.628497
 C    3.325133   -0.002632    0.498663
 C    2.218291    0.032834    1.466373
 O    2.135691    0.806611    2.403905
 N    1.239464   -0.912918    1.206828
 H   -2.064482    2.233303    1.698342
 H    0.333876    2.807775    1.635223
 H    1.587130    2.704193   -0.514775
 H    0.415821    1.991276   -2.587342
 H   -1.989301    1.418281   -2.513947
 H   -4.229277    2.193762    0.172199
 H   -4.067663    1.338349   -1.360504
 H   -3.587201    0.177114    1.429685
 H   -5.529829   -1.194603    0.985662
 H   -5.990898    0.503938    0.688664
 H   -6.597697   -0.858619   -1.084122
 H   -3.379695   -1.332311   -1.082121
 H   -0.908249   -1.841263   -1.473759
 H   -1.734640   -3.212427   -0.744702
 H   -0.000427   -3.189367    1.128609
 H    0.579980   -3.670153   -0.472176
 H    4.287152   -1.616054   -2.323133
 H    6.179542   -0.014557   -2.100057
 H    6.241693    1.591076   -0.202673
 H    4.368954    1.585083    1.469317
 H    0.371018   -0.884205    1.744960
