48 
4l7n_ligand_ani.xyz
 C    0.123972   -3.084256   -0.393757
 C   -1.222809   -2.768707   -0.529204
 C   -1.747568   -1.714661    0.211286
 S   -3.443756   -1.243353   -0.032231
 O   -3.708590   -0.128607    0.858933
 O   -4.252448   -2.450425   -0.019153
 N   -3.551910   -0.670668   -1.589165
 C   -0.958336   -1.013385    1.119175
 C    0.386217   -1.336213    1.241637
 C    0.946131   -2.364188    0.477370
 C    2.414242   -2.755931    0.638460
 C    2.624729   -3.624741    1.873436
 N    3.294625   -1.598136    0.711991
 C    3.451989   -0.780000   -0.361299
 O    3.035421   -1.090055   -1.471916
 C    4.160891    0.540352   -0.098122
 C    3.608317    1.667944   -0.984210
 C    2.162854    1.976163   -0.703586
 N    1.843159    2.902204    0.131863
 C    0.481323    3.108844    0.346698
 C    0.090419    4.117278    1.250015
 C   -1.243352    4.333950    1.515203
 C   -2.234800    3.551912    0.897212
 C   -1.865646    2.564609    0.004428
 C   -0.515375    2.350063   -0.289256
 C   -0.116604    1.312425   -1.250474
 O   -0.884811    0.604908   -1.884131
 N    1.253079    1.188271   -1.387744
 H    0.543622   -3.898998   -0.980623
 H   -1.863714   -3.337873   -1.198935
 H   -2.769441   -0.062715   -1.835691
 H   -3.677155   -1.429868   -2.248799
 H   -1.406874   -0.221101    1.710119
 H    1.001534   -0.777376    1.945378
 H    2.695622   -3.309976   -0.262613
 H    2.308957   -3.082606    2.773892
 H    2.030277   -4.541375    1.808431
 H    3.678650   -3.902813    1.974893
 H    3.643085   -1.313167    1.615348
 H    4.078983    0.813197    0.961655
 H    5.227366    0.399866   -0.316642
 H    3.716885    1.387362   -2.034720
 H    4.176493    2.582793   -0.805561
 H    0.871739    4.703641    1.724538
 H   -1.533606    5.115104    2.214580
 H   -3.284386    3.719595    1.120788
 H   -2.614768    1.933307   -0.467374
 H    1.608017    0.389653   -1.911522
