40 
4l7r_ligand_dft.xyz
 C   -5.215225   -0.478732   -1.594511
 C   -4.156417   -1.389691   -0.976309
 C   -3.327232   -0.712841    0.116785
 C   -2.352919   -1.680819    0.790183
 O   -1.392050   -2.102930   -0.149062
 N   -2.614495    0.427651   -0.455447
 C   -2.064051    1.392087    0.308185
 O   -2.196089    1.432619    1.531462
 C   -1.243622    2.452636   -0.419643
 C    0.043464    2.787665    0.353146
 C    1.024976    1.648116    0.328226
 N    2.110548    1.732962   -0.361955
 C    2.935555    0.615917   -0.390726
 C    4.148475    0.694738   -1.095213
 C    4.985945   -0.402208   -1.157547
 C    4.640109   -1.609285   -0.528851
 C    3.449083   -1.706477    0.162228
 C    2.597053   -0.596690    0.239150
 C    1.337070   -0.684455    0.971007
 O    0.882846   -1.693969    1.502574
 N    0.654985    0.516735    1.023333
 H   -5.916764   -0.121164   -0.832455
 H   -4.765323    0.401522   -2.065448
 H   -5.790195   -1.011050   -2.358538
 H   -3.477305   -1.776400   -1.746736
 H   -4.638798   -2.266926   -0.530283
 H   -3.993539   -0.314628    0.890227
 H   -2.928683   -2.531871    1.188667
 H   -1.881227   -1.178445    1.642840
 H   -0.572692   -2.264503    0.344716
 H   -2.275653    0.319122   -1.400174
 H   -1.860995    3.355974   -0.478458
 H   -1.005174    2.152880   -1.446021
 H   -0.228080    3.030730    1.385648
 H    0.538278    3.649935   -0.095631
 H    4.398766    1.632289   -1.580122
 H    5.923778   -0.330243   -1.700502
 H    5.309092   -2.461840   -0.587715
 H    3.149870   -2.623728    0.658666
 H   -0.213867    0.531371    1.553363
