49 
4l7u_ligand_ani.xyz
 C   -2.786537    2.438854    0.422134
 C   -2.450495    3.513819   -0.394571
 C   -1.161663    3.621422   -0.908084
 C   -0.211122    2.654583   -0.598339
 C   -0.548684    1.580116    0.220765
 C   -1.842418    1.457944    0.735009
 C   -2.224418    0.268807    1.586235
 C   -2.891134   -0.876891    0.781773
 C   -4.280803   -0.451721    0.340053
 O   -5.106771   -0.013344    1.106807
 O   -4.497373   -0.591831   -0.976322
 C   -5.800909   -0.198776   -1.411776
 N   -2.091855   -1.344495   -0.323984
 C   -0.985316   -2.097029   -0.120396
 O   -0.670651   -2.489929    1.002470
 C   -0.189368   -2.421692   -1.375397
 C    1.239529   -2.902966   -1.089933
 C    2.150620   -1.824746   -0.568230
 N    2.937733   -1.196099   -1.370123
 C    3.753473   -0.217398   -0.804039
 C    4.635712    0.491285   -1.640502
 C    5.458002    1.466061   -1.117246
 C    5.431044    1.770974    0.255513
 C    4.570344    1.082833    1.086828
 C    3.735061    0.090171    0.565096
 C    2.816583   -0.633777    1.456533
 O    2.697265   -0.444503    2.652102
 N    2.052957   -1.582873    0.790192
 H   -3.795780    2.351783    0.822517
 H   -3.194211    4.270890   -0.628674
 H   -0.896811    4.459773   -1.547764
 H    0.798129    2.742847   -0.993824
 H    0.202306    0.831586    0.467837
 H   -1.336902   -0.153378    2.067905
 H   -2.925151    0.564608    2.374564
 H   -3.027437   -1.712722    1.479210
 H   -6.565105   -0.818426   -0.936509
 H   -5.810546   -0.338565   -2.492767
 H   -5.983137    0.847669   -1.156216
 H   -2.318673   -1.009318   -1.248179
 H   -0.173656   -1.544864   -2.036545
 H   -0.732741   -3.210688   -1.912943
 H    1.207443   -3.726549   -0.372394
 H    1.684861   -3.267659   -2.017070
 H    4.642673    0.242494   -2.697635
 H    6.136500    2.007071   -1.773383
 H    6.084092    2.543089    0.652550
 H    4.512425    1.284724    2.153388
 H    1.315107   -2.054459    1.314310
