49 
4l7u_ligand_xtb.xyz
 C   -2.216369    2.421336    0.707628
 C   -2.005544    3.504966   -0.126669
 C   -0.916734    3.524384   -0.982397
 C   -0.040770    2.452870   -1.001790
 C   -0.258750    1.367866   -0.171855
 C   -1.343168    1.340433    0.696065
 C   -1.593102    0.143976    1.569115
 C   -2.348738   -0.958333    0.782662
 C   -3.681586   -0.366743    0.350591
 O   -4.597992   -0.160870    1.097793
 O   -3.690003   -0.056232   -0.950293
 C   -4.853277    0.600851   -1.439250
 N   -1.584521   -1.437978   -0.342699
 C   -0.847057   -2.563873   -0.286229
 O   -0.790814   -3.265459    0.705653
 C   -0.058208   -2.880133   -1.548690
 C    1.397047   -3.211999   -1.177831
 C    2.026403   -2.012081   -0.538194
 N    2.691984   -1.187017   -1.259446
 C    3.182569   -0.048417   -0.668488
 C    3.904954    0.860276   -1.448577
 C    4.371402    2.028215   -0.889965
 C    4.131036    2.322288    0.451601
 C    3.425820    1.438339    1.236033
 C    2.950060    0.246492    0.688280
 C    2.178553   -0.693544    1.497779
 O    1.857188   -0.549666    2.658430
 N    1.787392   -1.826647    0.792628
 H   -3.064388    2.412448    1.377850
 H   -2.690433    4.340316   -0.105316
 H   -0.750314    4.373267   -1.628753
 H    0.816584    2.458648   -1.659195
 H    0.429963    0.537041   -0.191582
 H   -0.652052   -0.269892    1.933923
 H   -2.205824    0.420693    2.427595
 H   -2.526968   -1.807525    1.451494
 H   -5.747108    0.177289   -0.978521
 H   -4.864357    0.451425   -2.515956
 H   -4.797889    1.665544   -1.205035
 H   -1.580592   -0.853017   -1.163252
 H   -0.083295   -2.043496   -2.246914
 H   -0.511215   -3.752139   -2.024060
 H    1.402432   -4.054270   -0.484655
 H    1.956908   -3.466988   -2.076135
 H    4.078459    0.619814   -2.485608
 H    4.927628    2.727762   -1.496923
 H    4.499256    3.245575    0.872512
 H    3.223124    1.638931    2.277084
 H    1.221814   -2.505134    1.296480
