24 
4lar_ligand_ani.xyz
 N    1.739063   -0.755879    1.228282
 C    2.034498    0.306179    0.200226
 C    3.498012    0.239953   -0.225977
 C    1.065612    0.129337   -0.982380
 C   -0.380520    0.092051   -0.543158
 C   -1.005581    1.243447   -0.054344
 C   -1.111119   -1.096805   -0.579948
 C   -2.327463    1.207817    0.377945
 C   -2.434224   -1.138185   -0.145711
 C   -3.045923    0.016047    0.333272
 H    2.247060   -0.560537    2.108427
 H    0.722261   -0.772003    1.419020
 H    2.033210   -1.681207    0.853019
 H    1.838142    1.274191    0.668882
 H    3.729072   -0.722635   -0.700765
 H    4.169526    0.369531    0.631161
 H    3.727181    1.027990   -0.950120
 H    1.223543    0.956121   -1.685573
 H    1.311527   -0.797775   -1.517352
 H   -0.443787    2.175913   -0.006339
 H   -0.630344   -2.003041   -0.945058
 H   -2.797398    2.113375    0.754874
 H   -2.984530   -2.074970   -0.179829
 H   -4.078660   -0.012847    0.672134
