41 
4lc7_ligand_dft.xyz
 C    2.272128    0.149432   -0.415478
 C    2.494385    0.552645    1.068221
 C    3.461352   -0.305786    1.858822
 C    4.779297   -0.535884    1.122869
 C    4.514479   -1.166726   -0.243467
 C    3.605179   -0.266733   -1.089694
 N    1.839051    1.462553   -0.894671
 C    2.528691    2.442764   -0.196218
 O    2.980911    1.899804    0.969515
 C    1.143970   -0.870144   -0.544203
 C    1.350286   -2.188764   -0.948292
 C    0.286754   -3.086985   -1.004650
 C   -0.995734   -2.683383   -0.663447
 C   -1.229132   -1.361963   -0.266374
 C   -0.155365   -0.473819   -0.215459
 C   -2.593914   -0.908289    0.093623
 N    2.703017    3.632501   -0.589250
 C   -3.446138   -1.709673    0.860946
 N   -4.682248   -1.362535    1.214774
 C   -5.136552   -0.175169    0.819805
 C   -4.362493    0.700193    0.062814
 C   -3.077707    0.337233   -0.310878
Cl   -5.019117    2.239329   -0.422166
 H    1.522622    0.586473    1.575463
 H    3.625519    0.164305    2.833869
 H    2.966628   -1.268610    2.043857
 H    5.431270   -1.179785    1.722306
 H    5.298043    0.421943    0.995339
 H    5.455486   -1.324940   -0.781591
 H    4.066308   -2.156925   -0.095461
 H    3.392405   -0.721596   -2.064115
 H    4.158861    0.656760   -1.296999
 H    1.778212    1.617944   -1.892324
 H    2.337480   -2.533894   -1.232672
 H    0.463456   -4.107873   -1.329055
 H   -1.823141   -3.383627   -0.732494
 H   -0.325345    0.555552    0.086726
 H    3.195121    4.167131    0.123520
 H   -3.100677   -2.676025    1.222516
 H   -6.148306    0.093688    1.111734
 H   -2.471901    1.001126   -0.919535
