41 
4lc7_ligand_ani.xyz
 C    2.253968    0.139796   -0.403556
 C    2.503597    0.553646    1.073823
 C    3.518943   -0.274632    1.841438
 C    4.813829   -0.483384    1.059342
 C    4.511981   -1.135867   -0.289963
 C    3.572118   -0.250687   -1.116092
 N    1.799844    1.446925   -0.887593
 C    2.431003    2.453609   -0.179029
 O    2.923822    1.924876    0.980738
 C    1.147045   -0.900475   -0.525491
 C    1.348710   -2.212604   -0.960020
 C    0.289390   -3.116010   -0.994320
 C   -0.989550   -2.725890   -0.617137
 C   -1.221569   -1.408479   -0.215308
 C   -0.147842   -0.522139   -0.168689
 C   -2.583686   -0.937268    0.134260
 N    2.542955    3.656122   -0.556690
 C   -3.463229   -1.713280    0.894070
 N   -4.692247   -1.328415    1.233122
 C   -5.114330   -0.139538    0.808101
 C   -4.316633    0.705393    0.041772
 C   -3.030838    0.314226   -0.290573
Cl   -4.937191    2.239157   -0.479310
 H    1.539363    0.542382    1.600685
 H    3.712144    0.211056    2.804154
 H    3.056621   -1.247595    2.054496
 H    5.506946   -1.100901    1.642233
 H    5.303174    0.486056    0.899087
 H    5.438135   -1.308321   -0.850285
 H    4.056325   -2.119872   -0.116642
 H    3.331024   -0.713943   -2.080729
 H    4.099792    0.683772   -1.346242
 H    1.760555    1.595448   -1.886792
 H    2.331993   -2.546495   -1.277019
 H    0.468366   -4.135250   -1.324178
 H   -1.815836   -3.431019   -0.665188
 H   -0.313216    0.499634    0.163683
 H    3.037793    4.193044    0.151909
 H   -3.146771   -2.686664    1.267273
 H   -6.122632    0.159959    1.084545
 H   -2.393408    0.953101   -0.896252
