84 
4lge_ligand_ani.xyz
 N   -3.978833    1.745072    0.082578
 C   -5.289711    2.326068   -0.204297
 C   -2.889832    2.712890    0.444848
 C   -2.682000    2.891652    1.955791
 C   -1.649091    2.170033   -0.295168
 O   -1.828686    1.352551   -1.197566
 N   -0.424460    2.648280    0.053180
 C    0.766346    1.899650   -0.311524
 C    0.988415    0.777632    0.730400
 O    0.589266    0.929892    1.877643
 C    2.020468    2.792039   -0.425556
 C    2.323569    3.586562    0.852277
 C    3.615261    4.392239    0.699271
 C    3.523388    5.343800   -0.496166
 C    3.188154    4.584669   -1.782778
 C    1.919215    3.742011   -1.625227
 N    1.696402   -0.340099    0.352816
 C    2.017807   -1.319324    1.414976
 C    3.327063   -1.992844    1.048082
 C    3.857132   -3.128545    1.924589
 C    4.679957   -3.972580    0.956931
 C    5.618522   -3.248858    0.028005
 C    4.244427   -3.624810   -0.435480
 N    3.171908   -2.633273   -0.308421
 C    2.982516   -1.603829   -1.350644
 C    1.666952   -0.883065   -1.025774
 C    0.487777   -1.881881   -1.141265
 O    0.654064   -3.080260   -0.907884
 N   -0.730393   -1.362135   -1.423558
 C   -1.946571   -2.123264   -1.213729
 C   -2.911307   -1.943487   -2.384748
 C   -4.190744   -2.705398   -2.086294
 O   -4.847573   -2.198093   -0.932491
 C   -4.068193   -1.893746    0.143984
 C   -4.750729   -1.675728    1.346143
 C   -4.063902   -1.237030    2.465267
 C   -2.689641   -1.007033    2.388901
 C   -2.009198   -1.266799    1.202922
 C   -2.675618   -1.741360    0.068236
 H   -4.066203    1.057274    0.861726
 H   -3.582625    1.240769   -0.743064
 H   -5.774007    2.723300    0.698462
 H   -5.950484    1.574906   -0.643633
 H   -5.202180    3.156901   -0.915005
 H   -3.147237    3.679434   -0.002236
 H   -2.134564    2.053602    2.406570
 H   -2.122356    3.807911    2.164345
 H   -3.650442    2.982431    2.460330
 H   -0.372252    3.067189    0.973115
 H    0.561378    1.481664   -1.297740
 H    2.868708    2.111643   -0.599483
 H    2.373690    2.915537    1.718737
 H    1.499591    4.289133    1.049676
 H    3.825511    4.950342    1.619321
 H    4.456798    3.699939    0.552763
 H    4.457653    5.906278   -0.615047
 H    2.734749    6.085431   -0.300900
 H    4.027657    3.920897   -2.037384
 H    3.078106    5.281812   -2.622165
 H    1.048241    4.396997   -1.483319
 H    1.735161    3.171795   -2.545656
 H    1.215513   -2.065858    1.516204
 H    2.087434   -0.770090    2.354179
 H    4.082519   -1.202488    0.956773
 H    4.444239   -2.750106    2.767980
 H    3.033023   -3.726536    2.333456
 H    4.898600   -5.002362    1.219814
 H    5.841380   -2.199863    0.205280
 H    6.442497   -3.819429   -0.386628
 H    4.111226   -4.370682   -1.210127
 H    2.256897   -3.163396   -0.305595
 H    3.815968   -0.891394   -1.337635
 H    2.935913   -2.056020   -2.344180
 H    1.517855   -0.055615   -1.716665
 H   -0.861283   -0.355403   -1.497604
 H   -1.646524   -3.177082   -1.147958
 H   -3.134936   -0.875046   -2.511762
 H   -2.451976   -2.315130   -3.305082
 H   -3.971774   -3.774027   -1.938263
 H   -4.918163   -2.612585   -2.896903
 H   -5.824467   -1.838583    1.359560
 H   -4.599099   -1.067241    3.396389
 H   -2.145431   -0.630069    3.251623
 H   -0.935844   -1.091796    1.172114
