84 
4lge_ligand_xtb.xyz
 N   -4.264880    1.261137    0.172996
 C   -5.615599    1.772554   -0.099004
 C   -3.233008    2.272882    0.520299
 C   -3.105565    2.449751    2.025776
 C   -1.942287    1.753586   -0.147103
 O   -2.037980    0.813246   -0.934156
 N   -0.810022    2.374175    0.136519
 C    0.459156    1.853057   -0.336958
 C    0.953262    0.861903    0.722820
 O    0.663571    1.037353    1.886286
 C    1.503217    2.971347   -0.550520
 C    1.726678    3.836675    0.691559
 C    2.840226    4.847794    0.420691
 C    2.474193    5.733782   -0.765920
 C    2.206299    4.886948   -2.005675
 C    1.109224    3.859051   -1.734139
 N    1.773288   -0.164117    0.343868
 C    2.298657   -1.015206    1.415450
 C    3.704216   -1.453191    1.046382
 C    4.431209   -2.419040    1.981687
 C    5.374545   -3.161103    1.049741
 C    6.149655   -2.340036    0.063154
 C    4.860670   -2.980471   -0.352156
 N    3.632203   -2.187657   -0.247848
 C    3.233338   -1.265094   -1.319835
 C    1.817679   -0.760865   -0.985719
 C    0.819043   -1.949265   -0.958682
 O    1.217119   -3.069616   -0.647759
 N   -0.447187   -1.641665   -1.188382
 C   -1.551352   -2.578900   -1.025534
 C   -2.357124   -2.664226   -2.324054
 C   -3.672768   -3.378302   -2.041226
 O   -4.465696   -2.653357   -1.116367
 C   -3.834860   -2.169171   -0.028490
 C   -4.646510   -1.680503    1.000929
 C   -4.083773   -1.149915    2.150620
 C   -2.701287   -1.115870    2.293862
 C   -1.900652   -1.588157    1.271338
 C   -2.443294   -2.104502    0.101474
 H   -4.305166    0.521561    0.913022
 H   -3.856613    0.774623   -0.662990
 H   -6.007924    2.285569    0.777084
 H   -6.277705    0.945507   -0.345614
 H   -5.596840    2.466548   -0.937104
 H   -3.510528    3.220526    0.044192
 H   -2.625832    1.587199    2.481828
 H   -2.523028    3.334229    2.266262
 H   -4.086941    2.586521    2.473708
 H   -0.755904    3.053330    0.882058
 H    0.246847    1.378963   -1.297795
 H    2.448914    2.473200   -0.794859
 H    1.981835    3.216702    1.552627
 H    0.817713    4.393951    0.929973
 H    2.997317    5.460436    1.308172
 H    3.772890    4.320519    0.210545
 H    3.284861    6.432942   -0.967656
 H    1.584689    6.318614   -0.523970
 H    3.122412    4.370083   -2.298901
 H    1.906148    5.526289   -2.835714
 H    0.175084    4.376752   -1.507247
 H    0.947343    3.249997   -2.626748
 H    1.655918   -1.888330    1.580144
 H    2.300344   -0.420880    2.331480
 H    4.313022   -0.557855    0.886840
 H    4.959770   -1.892747    2.774267
 H    3.735183   -3.122233    2.441298
 H    5.771991   -4.101549    1.395023
 H    6.224486   -1.271956    0.181802
 H    7.047079   -2.778805   -0.344278
 H    4.828963   -3.759588   -1.097808
 H    2.806436   -2.860695   -0.219429
 H    3.942532   -0.436112   -1.387297
 H    3.215198   -1.794162   -2.275319
 H    1.526833   -0.032228   -1.741185
 H   -0.745609   -0.688570   -1.368296
 H   -1.111035   -3.552366   -0.780593
 H   -2.565446   -1.653765   -2.684706
 H   -1.801816   -3.202144   -3.090138
 H   -3.484229   -4.383711   -1.646162
 H   -4.281804   -3.460995   -2.942371
 H   -5.715349   -1.768022    0.886352
 H   -4.720957   -0.818075    2.956823
 H   -2.251939   -0.751362    3.203721
 H   -0.828196   -1.565109    1.390251
