84 
4lge_ligand_dft.xyz
 N   -4.201005    1.187324   -0.035273
 C   -5.623189    1.565052   -0.256767
 C   -3.239549    2.310675    0.206488
 C   -3.237647    2.741823    1.666024
 C   -1.903136    1.793738   -0.354877
 O   -1.942637    0.950920   -1.257762
 N   -0.778382    2.317114    0.134291
 C    0.523037    1.828373   -0.288818
 C    1.002197    0.814630    0.758382
 O    0.676297    0.951108    1.923549
 C    1.561369    2.959316   -0.473610
 C    1.841540    3.767161    0.802228
 C    2.910687    4.835659    0.547028
 C    2.516168    5.757795   -0.608184
 C    2.218825    4.958654   -1.878939
 C    1.155288    3.884503   -1.629759
 N    1.895164   -0.167574    0.369520
 C    2.434366   -1.012375    1.446196
 C    3.802506   -1.510563    1.021386
 C    4.576684   -2.483227    1.909743
 C    5.486624   -3.218205    0.929601
 C    6.207218   -2.397818   -0.107925
 C    4.903949   -3.055712   -0.450026
 N    3.664231   -2.265279   -0.279330
 C    3.202586   -1.358214   -1.362739
 C    1.832834   -0.795530   -0.956319
 C    0.776868   -1.925070   -0.898459
 O    1.129981   -3.071045   -0.598342
 N   -0.496299   -1.558379   -1.078576
 C   -1.619988   -2.467175   -0.876069
 C   -2.387486   -2.696452   -2.179438
 C   -3.660163   -3.469415   -1.877300
 O   -4.515818   -2.736984   -0.997570
 C   -3.942569   -2.172441    0.084969
 C   -4.815052   -1.761188    1.102467
 C   -4.317431   -1.134534    2.240444
 C   -2.944088   -0.896131    2.364988
 C   -2.085299   -1.314187    1.352792
 C   -2.558644   -1.957108    0.207147
 H   -4.148449    0.516763    0.750374
 H   -3.821733    0.676670   -0.850172
 H   -5.995116    2.104705    0.613954
 H   -6.196122    0.648070   -0.396193
 H   -5.690680    2.189750   -1.147755
 H   -3.560304    3.134827   -0.440602
 H   -2.791734    1.975902    2.306820
 H   -2.683941    3.676831    1.785178
 H   -4.253660    2.945149    2.014820
 H   -0.805466    2.854806    0.989677
 H    0.354374    1.377356   -1.265724
 H    2.495834    2.451578   -0.758714
 H    2.146836    3.111457    1.624423
 H    0.919447    4.273815    1.125674
 H    3.074221    5.412924    1.462037
 H    3.863510    4.341103    0.313089
 H    3.310883    6.485271   -0.798548
 H    1.625071    6.334553   -0.324139
 H    3.141002    4.477731   -2.232702
 H    1.886166    5.624931   -2.680760
 H    0.200858    4.369388   -1.382121
 H    0.986096    3.299164   -2.542916
 H    1.759848   -1.846583    1.680166
 H    2.521244   -0.398095    2.342384
 H    4.417734   -0.636528    0.790800
 H    5.126584   -1.949319    2.688335
 H    3.900379   -3.195335    2.395190
 H    5.906897   -4.169271    1.234644
 H    6.282892   -1.319694   -0.003479
 H    7.078058   -2.849076   -0.570927
 H    4.818850   -3.844039   -1.188379
 H    2.873464   -2.938955   -0.184565
 H    3.940381   -0.563154   -1.490209
 H    3.122192   -1.932827   -2.287486
 H    1.564661   -0.051078   -1.705429
 H   -0.740919   -0.601160   -1.324884
 H   -1.180236   -3.413659   -0.546960
 H   -2.642274   -1.734373   -2.640498
 H   -1.770152   -3.255681   -2.887849
 H   -3.433580   -4.439009   -1.416963
 H   -4.250011   -3.642577   -2.777085
 H   -5.872571   -1.978714    0.990796
 H   -4.998144   -0.852228    3.037990
 H   -2.542841   -0.429941    3.259057
 H   -1.019130   -1.138084    1.462310
