43 
4lgg_ligand_ani.xyz
 C   -3.563783   -2.677781   -0.126956
 C   -3.605646   -1.173763    0.131855
 C   -4.632648   -0.513635   -0.796969
 C   -3.983930   -0.908430    1.593613
 N   -2.275239   -0.592971   -0.131071
 N   -1.236426   -1.339123   -0.593236
 C   -1.916376    0.716807   -0.012755
 N   -2.661324    1.758402    0.400152
 C   -1.999148    2.903709    0.383792
 N   -0.728886    3.142121    0.021149
 C    0.002970    2.096512   -0.376122
 N    1.278731    2.323189   -0.782153
 C   -0.576705    0.805395   -0.415336
 C   -0.215977   -0.526461   -0.763594
 C    1.103972   -1.047378   -1.249922
 C    2.269197   -0.793898   -0.300835
 C    3.571416   -0.761605   -0.798770
 C    2.069157   -0.641844    1.073229
 C    3.153705   -0.437700    1.917426
 C    4.446229   -0.393557    1.403084
 C    4.673119   -0.557477    0.036790
 C    6.072042   -0.512662   -0.530866
 H   -3.288548   -2.881676   -1.164830
 H   -2.827347   -3.157821    0.522707
 H   -4.547734   -3.115737    0.071048
 H   -4.676255    0.562431   -0.612543
 H   -4.364348   -0.681298   -1.844612
 H   -5.624336   -0.945528   -0.621805
 H   -3.252369   -1.367952    2.265271
 H   -4.014765    0.165851    1.788436
 H   -4.968308   -1.339892    1.807191
 H   -2.556173    3.779864    0.705948
 H    1.636078    3.243986   -0.570772
 H    1.936049    1.559035   -0.730114
 H    1.341764   -0.596752   -2.223481
 H    0.969108   -2.122870   -1.410481
 H    3.738716   -0.886394   -1.870167
 H    1.055147   -0.667309    1.469906
 H    2.991926   -0.311351    2.985138
 H    5.290858   -0.231987    2.070436
 H    6.329397   -1.455187   -1.028682
 H    6.173898    0.289245   -1.271799
 H    6.813699   -0.337366    0.253327
