46 
4lgh_ligand_ani.xyz
 N   -1.254825    3.123371   -0.369163
 C   -2.558842    2.923776   -0.121004
 N   -3.223004    1.785123   -0.002137
 C   -2.438957    0.703510   -0.164167
 C   -1.066134    0.751841   -0.435053
 C   -0.484818    2.040280   -0.519529
 C   -4.049571   -2.698921    0.127205
 C   -4.646481   -0.675229    1.474069
 C    5.870826   -0.342458   -0.782153
 C    4.967131   -0.874402   -1.723950
 C    2.285415    0.047130    2.461542
 C    1.357087   -0.408877    1.500352
 C    5.425037    0.015391    0.461580
 C    3.604355    0.201349    2.129363
 C    1.741025   -0.701748    0.210847
 C   -0.671384   -0.609650   -0.541837
 C    4.059245   -0.129073    0.823890
 N   -2.780175   -0.615917   -0.110396
 C   -4.125870   -1.174186    0.120877
 C   -5.060771   -0.701615   -0.999565
 N   -1.698898   -1.407340   -0.349720
 N    0.831498    2.220901   -0.797466
 C    0.709692   -1.133517   -0.821120
 C    3.134156   -0.626620   -0.135798
 C    3.639109   -1.018061   -1.406653
 H   -3.145921    3.830772   -0.001878
 H   -3.383922   -3.046112    0.921902
 H   -5.046756   -3.119365    0.294545
 H   -3.665321   -3.068929   -0.826602
 H   -3.973234   -0.985976    2.278723
 H   -4.716244    0.414718    1.476024
 H   -5.638289   -1.097881    1.669993
 H    6.919428   -0.227479   -1.045344
 H    5.322448   -1.168026   -2.707648
 H    1.941881    0.282709    3.465839
 H    0.307534   -0.500077    1.773943
 H    6.114704    0.413803    1.202200
 H    4.324195    0.565842    2.858550
 H   -5.114773    0.389728   -1.013201
 H   -4.699716   -1.049652   -1.972367
 H   -6.066565   -1.106418   -0.840793
 H    1.164683    3.167860   -0.687515
 H    1.482284    1.478127   -0.574305
 H    0.634632   -2.226240   -0.868869
 H    1.011959   -0.774879   -1.814431
 H    2.963313   -1.448997   -2.139958
