83 
4lgu_ligand_ani.xyz
 N   -3.611859    2.224914    0.040780
 C   -4.786591    3.036151   -0.280444
 C   -2.389413    2.978334    0.478011
 C   -2.203253    3.031010    2.000927
 C   -1.231132    2.276156   -0.261727
 O   -1.513341    1.500968   -1.174870
 N    0.044845    2.577740    0.099568
 C    1.129286    1.688197   -0.279875
 C    1.224618    0.546841    0.759287
 O    0.852838    0.741075    1.908499
 C    2.482566    2.418184   -0.413859
 C    2.897248    3.176582    0.854156
 C    4.276211    3.816717    0.679515
 C    4.289491    4.762902   -0.523858
 C    3.846057    4.042462   -1.799921
 C    2.484283    3.365876   -1.619727
 N    1.799252   -0.642541    0.373821
 C    1.983744   -1.666849    1.421541
 C    3.177743   -2.530077    1.051953
 C    3.463117   -3.759254    1.909881
 C    4.244338   -4.707241    0.968828
 C    4.081072   -4.106336   -0.446458
 N    2.988768   -3.114890   -0.314055
 C    2.896607   -2.048435   -1.330612
 C    1.680372   -1.180605   -0.998109
 C    0.386171   -2.023868   -1.110350
 O    0.409290   -3.244603   -0.955818
 N   -0.764444   -1.334511   -1.302352
 C   -2.071141   -1.937923   -1.139536
 C   -2.936015   -1.690771   -2.375552
 C   -4.318313   -2.269231   -2.133852
 O   -4.969921   -1.619594   -1.051887
 C   -4.226281   -1.392336    0.068872
 C   -4.952101   -1.066997    1.220138
 C   -4.289479   -0.712024    2.381962
 C   -2.894793   -0.667083    2.396625
 C   -2.177431   -1.021399    1.257681
 C   -2.823282   -1.423588    0.082787
 H   -3.272246    1.676159   -0.782839
 H   -3.855325    1.546061    0.794885
 H   -5.550469    2.425076   -0.766713
 H   -4.522201    3.853772   -0.961983
 H   -5.231112    3.493189    0.614446
 H   -2.469394    3.997903    0.085595
 H   -3.148187    3.300824    2.485370
 H   -1.467936    3.790740    2.279936
 H   -1.867464    2.068401    2.408249
 H    0.149214    2.968295    1.027547
 H    0.862503    1.301124   -1.263916
 H    3.237963    1.637166   -0.592989
 H    2.168042    3.975718    1.056433
 H    2.876328    2.509145    1.724711
 H    5.024883    3.025264    0.531178
 H    4.563788    4.352327    1.591999
 H    3.603012    5.599405   -0.326956
 H    5.285712    5.202196   -0.658327
 H    4.592990    3.277508   -2.059164
 H    3.812854    4.741959   -2.643939
 H    2.218312    2.817347   -2.533328
 H    1.703591    4.125292   -1.472091
 H    1.076958   -2.284429    1.521830
 H    2.140058   -1.145810    2.366690
 H    4.070494   -1.890496    1.002834
 H    4.018792   -3.502654    2.814428
 H    2.517677   -4.219158    2.222527
 H    5.303216   -4.759294    1.235390
 H    3.846302   -5.724829    1.016679
 H    3.845032   -4.846090   -1.214409
 H    4.994858   -3.580434   -0.750680
 H    2.059962   -3.601307   -0.349796
 H    2.801770   -2.478413   -2.331742
 H    3.808312   -1.437972   -1.298602
 H    1.635151   -0.342950   -1.691794
 H   -0.763795   -0.319258   -1.370346
 H   -1.902305   -3.016627   -1.023088
 H   -2.472604   -2.156480   -3.249993
 H   -3.012652   -0.609005   -2.553097
 H   -4.975659   -2.127303   -2.995492
 H   -4.250087   -3.347694   -1.923019
 H   -6.036308   -1.086824    1.161254
 H   -4.856467   -0.463882    3.275721
 H   -2.362483   -0.367687    3.296549
 H   -1.090121   -0.986405    1.298651
