14 
4lh2_ligand_ani.xyz
 C    1.709479   -0.033408    0.043982
 O    1.370505   -1.317323    0.202707
 O    2.738131    0.406704    0.490918
 C    0.720869    0.831930   -0.735480
 C   -0.603028    1.090683   -0.007207
 C   -1.551202   -0.093330   -0.020572
 O   -1.276739   -1.185440   -0.465374
 O   -2.769676    0.123010    0.491954
 H    0.488297   -1.485631   -0.190392
 H    0.509447    0.366949   -1.706279
 H    1.228958    1.780309   -0.919169
 H   -1.116109    1.934951   -0.485078
 H   -0.422241    1.380917    1.035795
 H   -2.842832    1.031645    0.819145
