14 
4lh2_ligand_xtb.xyz
 C    1.694307   -0.027810    0.042321
 O    1.394366   -1.313017    0.182758
 O    2.677309    0.453614    0.531674
 C    0.706756    0.802333   -0.782334
 C   -0.593281    1.083191   -0.018206
 C   -1.539722   -0.101683   -0.011443
 O   -1.247302   -1.193823   -0.421682
 O   -2.755350    0.134843    0.483555
 H    0.516611   -1.540099   -0.193584
 H    0.479780    0.275940   -1.712145
 H    1.196505    1.747283   -1.017817
 H   -1.108867    1.932073   -0.477974
 H   -0.365577    1.352636    1.018208
 H   -2.878998    1.043042    0.790845
