17 
4lh3_ligand_xtb.xyz
 C    2.472982    0.172013   -0.059325
 C    1.255726   -0.697616    0.217492
 C   -0.038145    0.049696   -0.102656
 C   -1.261679   -0.692383    0.439842
 C   -2.574699   -0.081623   -0.027120
 O    2.427183    1.355527   -0.216993
 O    3.644370   -0.485443   -0.089147
 O   -2.730973    1.224962    0.232270
 O   -3.431729   -0.706862   -0.578096
 H    1.280588   -0.961783    1.280105
 H    1.317828   -1.622003   -0.362016
 H   -0.125261    0.161060   -1.185110
 H    0.043901    1.052090    0.324781
 H   -1.251390   -0.687689    1.533946
 H   -1.252773   -1.730149    0.103706
 H    3.552487   -1.437370    0.047850
 H   -1.961308    1.619843    0.663066
