24 
4lh7_ligand_ani.xyz
 C    1.495376    1.076324    0.099131
 C    0.069777    1.165895    0.032561
 C   -0.531888   -0.103093   -0.031309
 C   -1.934063   -0.205099   -0.033842
 C   -2.645199    0.984893   -0.036875
 N   -2.098796    2.206589   -0.008806
 C   -0.775338    2.305408    0.021932
 N   -0.233309    3.566760    0.088398
 C   -2.579532   -1.549108   -0.095975
 O   -1.970398   -2.522960   -0.503126
 N   -3.887909   -1.615406    0.307830
 S    0.649379   -1.370320   -0.053971
 C    1.945848   -0.209923    0.044778
 C    3.364729   -0.664550    0.097833
 O    3.696491   -1.775509    0.466069
 N    4.278794    0.289139   -0.273081
 H    2.153801    1.930757    0.247401
 H   -3.732266    0.971079   -0.097781
 H    0.670075    3.683173   -0.344874
 H   -0.891297    4.303238   -0.125217
 H   -4.255542   -2.553564    0.375143
 H   -4.247700   -0.948770    0.973413
 H    5.226802   -0.046935   -0.368261
 H    4.007611    1.039862   -0.889623
