50 
4li6_ligand_xtb.xyz
 S   -1.816963    2.727674    1.121048
 C   -1.433377    2.433857   -0.545005
 C   -2.268102    3.128743   -1.365832
 C   -3.225610    3.897141   -0.665107
 C   -3.106412    3.774194    0.679413
 C   -0.301675    1.536154   -0.937983
 N   -0.357063    0.221669   -0.327799
 C    0.382138    0.078298    0.920135
 C    1.834853   -0.190168    0.634422
 N    2.681365    0.768524    0.739350
 C    3.995241    0.502824    0.432788
 C    4.413827   -0.769186    0.000699
 C    5.757609   -0.994292   -0.299846
 C    6.673119    0.026252   -0.174269
 C    6.259290    1.287504    0.251306
 C    4.938069    1.528637    0.552052
 C    3.427546   -1.841655   -0.141872
 N    2.143692   -1.446717    0.217957
 O    3.647940   -2.967325   -0.530486
 C   -0.847114   -0.914195   -0.887738
 O   -0.577069   -2.002244   -0.404822
 C   -1.785986   -0.792309   -2.065702
 C   -3.189182   -0.385521   -1.576896
 C   -3.620308   -1.275954   -0.444381
 C   -4.123650   -2.544676   -0.697446
 C   -4.462805   -3.388382    0.344412
 C   -4.300089   -2.973142    1.654756
 C   -3.802059   -1.708855    1.916644
 C   -3.464893   -0.866300    0.872735
 H   -2.205301    3.095377   -2.439199
 H   -3.968578    4.506840   -1.146199
 H   -3.696281    4.230986    1.448599
 H    0.651256    1.986139   -0.632231
 H   -0.290951    1.447486   -2.026946
 H   -0.053628   -0.758419    1.472471
 H    0.289191    0.997693    1.498333
 H    6.048277   -1.980718   -0.628522
 H    7.713265   -0.147375   -0.405293
 H    6.984453    2.082578    0.345912
 H    4.602035    2.498106    0.884720
 H    1.382488   -2.118685    0.108500
 H   -1.839561   -1.782423   -2.521201
 H   -1.426495   -0.081691   -2.809703
 H   -3.886132   -0.472238   -2.413244
 H   -3.176325    0.653609   -1.246485
 H   -4.247587   -2.874862   -1.719220
 H   -4.850038   -4.374505    0.133620
 H   -4.558518   -3.633506    2.469321
 H   -3.671307   -1.378160    2.936969
 H   -3.074360    0.119412    1.085220
