62 
4lk6_ligand_ani.xyz
 O   -1.337970    3.517621   -2.179801
 S   -0.523678    3.027006   -1.090161
 O    0.497234    4.204266   -0.680912
 O    0.289674    1.833440   -1.284093
 C   -1.539092    2.880406    0.380699
 C   -1.549770    3.948613    1.276879
 C   -2.413892    3.936837    2.363256
 C   -3.282104    2.867497    2.542223
 C   -3.271519    1.809053    1.640910
 C   -2.398644    1.777395    0.550051
 C   -2.303549    0.534266   -0.340853
 C   -3.598301   -0.270211   -0.401740
 C   -3.752963   -1.508203    0.217774
 C   -4.972877   -2.169870    0.167272
Cl   -5.162343   -3.719443    0.950890
 C   -6.069806   -1.626598   -0.506112
 O   -7.275175   -2.232129   -0.581012
 C   -5.908996   -0.392061   -1.138640
 C   -4.692522    0.267966   -1.086458
 C   -1.097668   -0.341486    0.000804
 C   -0.592883   -1.194068   -0.984072
 C    0.601765   -1.873559   -0.782620
Cl    1.261809   -2.875852   -2.033955
 C   -0.455085   -0.292823    1.236910
 C    0.738172   -0.968324    1.441742
 C    1.305611   -1.713448    0.412347
 O    2.562990   -2.243687    0.509914
 C    3.565025   -1.315765    0.846533
 C    4.915844   -1.941073    0.546475
 C    6.025424   -0.947367    0.856425
 C    5.788925    0.360323    0.100845
 C    4.363920    0.852740    0.356121
 C    3.996403    2.073915   -0.474847
 O    5.159255   -3.094294    1.325698
 O    7.278367   -1.452754    0.436921
 O    5.955076    0.147327   -1.281585
 O    3.411748   -0.162020    0.052665
 O    2.702583    2.529921   -0.127582
 H    1.347906    3.805259   -0.375757
 H   -0.886022    4.795495    1.127701
 H   -2.412682    4.768216    3.061993
 H   -3.969609    2.852890    3.383446
 H   -3.955431    0.976212    1.782589
 H   -2.139694    0.899096   -1.366761
 H   -2.914400   -1.960639    0.741406
 H   -7.238748   -3.074134   -0.102960
 H   -6.758618    0.030161   -1.666384
 H   -4.590868    1.231894   -1.582955
 H   -1.103808   -1.303537   -1.938430
 H   -0.863097    0.321618    2.036230
 H    1.252164   -0.889359    2.395576
 H    3.478941   -1.055129    1.917544
 H    4.942917   -2.168461   -0.529492
 H    6.033417   -0.747715    1.940991
 H    6.499243    1.121287    0.469080
 H    4.263023    1.116494    1.422998
 H    4.710991    2.882149   -0.269250
 H    4.059691    1.827748   -1.542123
 H    4.444539   -3.714944    1.129841
 H    7.308508   -2.379481    0.718008
 H    6.756247   -0.391905   -1.367138
 H    2.064564    1.838208   -0.384693
