62 
4lk6_ligand_dft.xyz
 O   -1.404260    3.690220   -2.086175
 S   -0.539163    3.043607   -1.126554
 O    0.584081    4.090046   -0.692386
 O    0.144611    1.806692   -1.484114
 C   -1.465762    2.803208    0.389399
 C   -1.427554    3.839787    1.320187
 C   -2.189897    3.765520    2.478985
 C   -3.001089    2.658600    2.691697
 C   -3.044225    1.634572    1.751864
 C   -2.281492    1.674035    0.582731
 C   -2.299536    0.480908   -0.376843
 C   -3.635984   -0.249553   -0.368373
 C   -3.799923   -1.503369    0.208974
 C   -5.046617   -2.119031    0.199899
Cl   -5.241319   -3.703315    0.928659
 C   -6.159422   -1.510073   -0.382603
 O   -7.386845   -2.068893   -0.419746
 C   -5.989108   -0.250019   -0.962827
 C   -4.749478    0.364368   -0.954039
 C   -1.100294   -0.425748   -0.121580
 C   -0.493601   -1.058468   -1.205626
 C    0.706549   -1.733817   -1.046724
Cl    1.508696   -2.411932   -2.432830
 C   -0.540608   -0.583187    1.144186
 C    0.651476   -1.277916    1.309593
 C    1.310874   -1.807607    0.208688
 O    2.574105   -2.342085    0.313526
 C    3.529320   -1.424683    0.773740
 C    4.914821   -1.984669    0.493262
 C    5.949995   -0.973494    0.977482
 C    5.710079    0.406490    0.351590
 C    4.242928    0.797646    0.536365
 C    3.822391    2.047002   -0.221716
 O    5.175933   -3.192435    1.173356
 O    7.251997   -1.375432    0.611149
 O    6.017026    0.380811   -1.019231
 O    3.380054   -0.226315    0.069135
 O    2.454106    2.318565    0.046322
 H    1.399716    3.573378   -0.429325
 H   -0.796792    4.700819    1.133928
 H   -2.151988    4.571794    3.204087
 H   -3.606652    2.587746    3.590042
 H   -3.687719    0.777947    1.924682
 H   -2.175029    0.870108   -1.392384
 H   -2.959794   -2.017042    0.663916
 H   -7.352537   -2.940484    0.000294
 H   -6.850904    0.222904   -1.421236
 H   -4.637673    1.344634   -1.410274
 H   -0.911240   -0.952013   -2.201248
 H   -1.002713   -0.116297    2.007921
 H    1.105336   -1.362003    2.291882
 H    3.396775   -1.245389    1.856418
 H    5.003161   -2.100196   -0.595102
 H    5.862719   -0.892815    2.073101
 H    6.337865    1.142185    0.880953
 H    4.059589    0.961834    1.611596
 H    4.396941    2.909821    0.122681
 H    3.998701    1.903107   -1.292325
 H    4.573755   -3.860489    0.821578
 H    7.309680   -2.323408    0.795691
 H    6.827372   -0.145188   -1.094765
 H    1.933091    1.578100   -0.310891
