62 
4lk6_ligand_xtb.xyz
 O   -1.039037    2.915184   -2.382861
 S   -0.280906    2.699429   -1.193104
 O    0.694021    3.934143   -0.965580
 O    0.528510    1.510684   -1.116610
 C   -1.402464    2.800156    0.199556
 C   -1.359712    3.921672    1.002424
 C   -2.254913    4.052011    2.052214
 C   -3.186968    3.054090    2.280918
 C   -3.226437    1.934580    1.466943
 C   -2.336656    1.791924    0.406918
 C   -2.338368    0.572476   -0.485594
 C   -3.653026   -0.172780   -0.430255
 C   -3.800934   -1.320223    0.336786
 C   -5.020127   -1.968965    0.379220
Cl   -5.203242   -3.416164    1.335979
 C   -6.124948   -1.496345   -0.329837
 O   -7.321244   -2.114974   -0.296157
 C   -5.965842   -0.342580   -1.093212
 C   -4.747951    0.304797   -1.141919
 C   -1.153869   -0.313985   -0.165818
 C   -0.668585   -1.169731   -1.145774
 C    0.521503   -1.843289   -0.952593
Cl    1.156454   -2.842092   -2.194674
 C   -0.495058   -0.248757    1.053042
 C    0.699016   -0.917933    1.243899
 C    1.250645   -1.677905    0.224522
 O    2.503787   -2.252666    0.306504
 C    3.499768   -1.416131    0.817160
 C    4.858345   -1.980419    0.380232
 C    5.955067   -1.053289    0.916096
 C    5.709050    0.385805    0.427567
 C    4.266630    0.809229    0.751305
 C    3.894514    2.132724    0.070098
 O    5.087097   -3.270274    0.887668
 O    7.221226   -1.449369    0.452360
 O    5.930950    0.475094   -0.951317
 O    3.322479   -0.133765    0.293670
 O    2.560494    2.487372    0.349918
 H    1.502758    3.621948   -0.500516
 H   -0.631339    4.688234    0.795638
 H   -2.225625    4.927452    2.682068
 H   -3.889680    3.146425    3.095372
 H   -3.957925    1.161989    1.649224
 H   -2.193230    0.934855   -1.510620
 H   -2.965679   -1.711657    0.896556
 H   -7.251078   -2.899530    0.271002
 H   -6.816958    0.023124   -1.644211
 H   -4.640423    1.195947   -1.741358
 H   -1.183487   -1.262826   -2.089011
 H   -0.882505    0.369089    1.849036
 H    1.228767   -0.809033    2.177339
 H    3.463709   -1.387414    1.929307
 H    4.881589   -1.977340   -0.719965
 H    5.926217   -1.082844    2.017165
 H    6.401271    1.056886    0.963375
 H    4.171662    0.908658    1.846710
 H    4.530052    2.933218    0.453114
 H    4.054080    2.015008   -1.005556
 H    4.336715   -3.822837    0.637844
 H    7.289952   -2.402634    0.588598
 H    6.728857   -0.041767   -1.136050
 H    1.993846    1.780309   -0.021716
