46 
4lk7_ligand_ani.xyz
 O   -6.651342    2.563075    0.923925
 O   -2.410419    0.458572    0.345195
 N   -3.667267   -1.872265   -0.551519
 O    1.865349   -1.645476   -0.220071
 C   -5.827018   -0.773977   -0.242191
 C   -6.556643    0.342283    0.130150
 C   -5.891213    1.492615    0.570875
 C   -4.500473    1.511287    0.635223
 C   -3.782716    0.385368    0.260062
 C   -4.432115   -0.772532   -0.185055
 C   -2.282528   -1.817920   -0.477476
 C   -1.669599   -0.643026   -0.025454
 C   -0.289153   -0.537250    0.069009
 C    0.497516   -1.629170   -0.286565
 C   -0.096789   -2.811243   -0.746488
 C   -1.474259   -2.897610   -0.838472
 C    2.533312   -0.556847    0.352226
 C    3.997084   -0.949900    0.493210
 C    4.814839    0.208979    1.036774
 C    4.636965    1.431159    0.139635
 C    3.146376    1.709016   -0.052169
 C    2.857791    2.784649   -1.087253
 O    4.178065   -2.035282    1.382674
 O    6.192109   -0.115996    1.036470
 O    5.227129    1.185992   -1.115856
 O    2.435857    0.550720   -0.509080
 O    1.467031    2.931387   -1.255871
 H   -6.068865    3.280015    1.205109
 H   -4.117908   -2.708681   -0.882302
 H   -6.341037   -1.669335   -0.585076
 H   -7.640968    0.345668    0.087609
 H   -3.956092    2.390521    0.973980
 H    0.136364    0.400456    0.410650
 H    0.533017   -3.649974   -1.026211
 H   -1.940379   -3.814180   -1.193190
 H    2.088492   -0.324254    1.336113
 H    4.373094   -1.189754   -0.511198
 H    4.475739    0.448163    2.058428
 H    5.100426    2.306591    0.626810
 H    2.715451    2.018713    0.915987
 H    3.252831    3.747858   -0.745584
 H    3.363212    2.519239   -2.026744
 H    3.696233   -2.783523    1.006990
 H    6.257830   -1.023376    1.370559
 H    6.085937    0.779671   -0.922913
 H    1.138993    2.032815   -1.413713
