46 
4lk7_ligand_xtb.xyz
 O   -6.599065    2.600488    0.862349
 O   -2.383439    0.443701    0.374800
 N   -3.663141   -1.903063   -0.468164
 O    1.880416   -1.667409   -0.259567
 C   -5.800188   -0.772807   -0.225064
 C   -6.524164    0.358627    0.114906
 C   -5.863664    1.502963    0.533906
 C   -4.471537    1.507163    0.610047
 C   -3.754234    0.376592    0.273267
 C   -4.416887   -0.781266   -0.150101
 C   -2.281489   -1.843971   -0.436977
 C   -1.664035   -0.664168   -0.003672
 C   -0.286512   -0.568900    0.059584
 C    0.500641   -1.657113   -0.305222
 C   -0.102393   -2.827082   -0.741334
 C   -1.483140   -2.914744   -0.809566
 C    2.542602   -0.584323    0.299766
 C    4.020885   -0.983584    0.419899
 C    4.798666    0.186062    1.027676
 C    4.584858    1.440059    0.164452
 C    3.081440    1.683755   -0.030358
 C    2.812685    2.801205   -1.045884
 O    4.192403   -2.107392    1.247117
 O    6.177755   -0.085094    1.060778
 O    5.208272    1.285227   -1.080082
 O    2.410559    0.539587   -0.525762
 O    1.442301    3.056778   -1.172902
 H   -6.010366    3.317365    1.126360
 H   -4.119878   -2.719299   -0.838527
 H   -6.315195   -1.663510   -0.551822
 H   -7.599793    0.364480    0.058180
 H   -3.932349    2.386389    0.930385
 H    0.139177    0.366692    0.379338
 H    0.515482   -3.661481   -1.028751
 H   -1.949122   -3.826459   -1.151379
 H    2.142992   -0.359508    1.313451
 H    4.395233   -1.182018   -0.595865
 H    4.420595    0.365107    2.046668
 H    5.013311    2.306638    0.694371
 H    2.648743    1.954734    0.948484
 H    3.277876    3.727169   -0.704492
 H    3.256791    2.501190   -2.001750
 H    3.582889   -2.790602    0.942421
 H    6.285825   -0.967164    1.437441
 H    6.079142    0.900615   -0.904690
 H    1.015825    2.223200   -1.408457
