89 
4lkd_ligand_xtb.xyz
 N    0.104820    2.340163   -1.016670
 C    1.521862    2.500760   -1.261468
 C    2.305983    1.481701   -0.419639
 O    2.140601    1.342197    0.782096
 C    1.951667    3.940607   -0.947890
 C    1.848849    4.322447    0.533256
 C    0.436337    4.127434    1.065138
 O   -0.501547    4.821170    0.712474
 N    0.320073    3.137948    1.970416
 N    3.233724    0.801125   -1.103092
 C    4.120141   -0.141272   -0.469192
 C    5.569238    0.187761   -0.845402
 O    5.834331    0.925280   -1.786802
 C    3.780654   -1.586180   -0.870855
 C    2.493905   -2.098941   -0.221324
 C    2.602440   -2.300977    1.295702
 N    3.659294   -3.220265    1.674529
 C    4.960795   -2.839551    1.856261
 N    5.385129   -1.683942    2.224744
 N    5.898584   -3.799696    1.581368
 N    6.459091   -0.428969   -0.068754
 C    7.898876   -0.239343   -0.110277
 C    8.502651   -0.922110   -1.357478
 O    9.173009   -1.929279   -1.296578
 C    8.517555   -0.852118    1.158901
 O    7.952283   -0.385883    2.349091
 N    8.223876   -0.268143   -2.496056
 C   -6.621610   -0.351726    0.507404
 C   -7.973554   -0.071085    1.180482
 C   -8.795741   -1.362491    1.187459
 C   -8.935176   -1.882282   -0.252909
 C   -7.548147   -1.993249   -0.901500
 C   -7.645800   -2.313703   -2.398602
 O   -7.817098    0.357804    2.509556
 O  -10.088349   -1.136506    1.690000
 O   -9.743315   -1.019491   -1.003400
 O   -6.812788   -0.785741   -0.808957
 O   -6.377701   -2.442011   -2.977329
 C   -0.451456    1.119003   -0.879327
 O    0.203644    0.098640   -1.035829
 C   -1.896968    1.093214   -0.530510
 C   -2.573935   -0.110065   -0.704292
 C   -3.911378   -0.239546   -0.382897
 C   -4.596081    0.851515    0.136167
 C   -3.926712    2.061290    0.318198
 C   -2.594212    2.185717   -0.012484
 O   -5.915030    0.845492    0.515252
 H   -0.457315    3.174310   -0.966301
 H    1.728620    2.299664   -2.324290
 H    2.984108    4.072672   -1.277459
 H    1.319176    4.613933   -1.531869
 H    2.550238    3.738748    1.126330
 H    2.099225    5.380397    0.628637
 H    1.016565    2.401957    1.964442
 H   -0.604940    2.903752    2.297097
 H    3.410165    0.983812   -2.079159
 H    3.993076   -0.002583    0.607226
 H    4.619659   -2.235877   -0.611729
 H    3.663877   -1.617413   -1.956059
 H    1.682320   -1.397526   -0.416363
 H    2.232230   -3.053200   -0.685208
 H    2.760977   -1.344480    1.794580
 H    1.658965   -2.708444    1.668030
 H    3.536473   -4.146977    1.290593
 H    4.650351   -1.023016    2.445980
 H    6.818742   -3.619941    1.949448
 H    5.613417   -4.764190    1.586915
 H    6.114466   -0.960112    0.740836
 H    8.113666    0.835328   -0.164743
 H    9.577092   -0.586370    1.184416
 H    8.444435   -1.944141    1.073884
 H    7.073341   -0.793541    2.473267
 H    8.516287   -0.677978   -3.368859
 H    7.502392    0.447151   -2.497935
 H   -6.079207   -1.128732    1.090185
 H   -8.493761    0.688776    0.577852
 H   -8.269980   -2.107540    1.805590
 H   -9.385842   -2.887781   -0.219507
 H   -6.988062   -2.790313   -0.382323
 H   -8.228253   -1.518161   -2.876334
 H   -8.154984   -3.268710   -2.535490
 H   -7.206194    1.104503    2.510983
 H   -9.993598   -0.641087    2.512972
 H  -10.503083   -0.799639   -0.445180
 H   -5.907001   -1.613451   -2.823476
 H   -2.026427   -0.951185   -1.102267
 H   -4.410119   -1.180084   -0.551047
 H   -4.473496    2.898144    0.722947
 H   -2.115173    3.137513    0.163874
