88 
4lkg_ligand_ani.xyz
 C   -3.113332    2.282172   -1.103019
 C   -3.026564    1.162573   -0.050237
 C   -4.174839    1.356828    0.951112
 C   -5.485615    0.861944    0.368859
 C   -5.346646   -0.565852   -0.218820
 C   -3.901172   -1.077265   -0.217367
 C   -3.264326   -1.650435    1.072573
 C   -4.188090   -2.437063    1.994363
 C   -5.034681   -1.602714    2.943975
 C   -7.151325   -0.389785   -1.828460
 C   -7.557273   -0.304852   -3.281926
 N   -5.822074   -0.580186   -1.596071
 O   -2.713425    3.407187   -0.928329
 O   -3.727591    1.895043   -2.229250
 O   -6.497569    0.873945    1.357009
 O   -3.069792   -0.051847   -0.763789
 O   -2.162546   -2.492518    0.695020
 O   -5.009791   -3.267878    1.195677
 O   -5.845253   -2.534275    3.654533
 O   -7.945851   -0.307605   -0.894422
 C    1.718175    0.436548   -0.311887
 C    0.284620    0.170737    0.132400
 C   -0.593531    1.415972   -0.066049
 C    0.084287    2.672895    0.494487
 C    1.491981    2.799849   -0.069770
 C    2.307714    3.951495    0.498109
 O   -0.160578   -0.910632   -0.651520
 O   -1.817850    1.274688    0.662077
 O    0.192589    2.576086    1.897698
 O    2.225577    1.624827    0.248016
 O    3.583949    3.992870   -0.101616
 C    6.412151   -1.913479   -0.682661
 C    6.280725   -0.496650   -0.054732
 C    4.889006   -0.306293    0.549619
 C    3.806731   -0.655459   -0.469655
 C    4.026645   -2.080337   -0.962936
 C    3.052520   -2.432847   -2.080843
 C    8.574762   -0.262108    0.998314
 C    9.264186    0.387220    2.178671
 N    7.218246   -0.216395    1.031032
 O    7.509292   -2.050406   -1.498905
 O    4.798884    1.029450    1.012450
 O    2.528138   -0.606589    0.136569
 O    5.320428   -2.184004   -1.529237
 O    3.235950   -1.560955   -3.174058
 O    9.231084   -0.771731    0.090833
 H   -3.962073    0.829637    1.885018
 H   -4.247782    2.421042    1.195957
 H   -5.763849    1.551891   -0.439753
 H   -5.993129   -1.246101    0.336450
 H   -3.869761   -1.884006   -0.955368
 H   -2.799527   -0.847353    1.645405
 H   -3.528581   -3.063542    2.613729
 H   -4.382759   -1.046867    3.636372
 H   -5.657431   -0.884422    2.395475
 H   -7.047974    0.525394   -3.784856
 H   -7.295615   -1.226562   -3.812455
 H   -8.635058   -0.148872   -3.336193
 H   -5.142017   -0.335632   -2.307997
 H   -3.745831    2.688138   -2.790618
 H   -7.311181    0.601432    0.896037
 H   -2.533669   -3.295810    0.299774
 H   -5.647805   -3.656088    1.813581
 H   -6.626016   -2.073205    3.980311
 H    1.751359    0.497848   -1.414490
 H    0.300919   -0.068858    1.205882
 H   -0.786327    1.532375   -1.139826
 H   -0.524250    3.540263    0.195295
 H    1.447506    2.904040   -1.167671
 H    1.818459    4.905652    0.272420
 H    2.367568    3.845146    1.590640
 H   -0.969095   -1.269844   -0.244208
 H   -0.678527    2.288670    2.205629
 H    3.998349    3.126466    0.032075
 H    6.427524   -2.656908    0.146486
 H    6.421974    0.220068   -0.877766
 H    4.775823   -0.999260    1.401493
 H    3.875642    0.036814   -1.322309
 H    3.915151   -2.782558   -0.119189
 H    3.206183   -3.482244   -2.375164
 H    2.017614   -2.311796   -1.745255
 H   10.192070   -0.151746    2.378012
 H    8.648591    0.403256    3.083297
 H    9.527730    1.418638    1.919623
 H    6.812812    0.382664    1.740683
 H    8.293779   -1.715154   -1.008179
 H    3.858187    1.198503    1.188890
 H    4.175975   -1.618857   -3.396737
