40 
4lkh_ligand_xtb.xyz
 C   -2.820596   -1.089596    0.949455
 C   -2.552278   -0.398431   -0.404499
 C   -2.578768    1.127936   -0.292862
 C   -1.343578    1.695273    0.423409
 C   -0.095905    1.119914   -0.268647
 C   -0.137790   -0.409314   -0.175463
 C    1.102145   -1.073085   -0.837536
 C    1.999586   -1.728491    0.224252
 C    3.253665   -2.316958   -0.425776
 C    1.674585    2.784006   -0.151023
 C    2.994369    3.130003    0.493325
 N    1.125548    1.636363    0.299829
 O   -2.304976   -0.784645    1.990150
 O   -3.635602   -2.135976    0.820842
 O   -3.475980   -0.764513   -1.361475
 O   -1.359527    3.096032    0.419856
 O   -1.286342   -0.901876   -0.843324
 O    0.756279   -2.061480   -1.769126
 O    2.360875   -0.778131    1.200531
 O    4.053525   -2.840511    0.617686
 O    1.129924    3.475234   -0.993166
 H   -3.485465    1.431382    0.229305
 H   -2.622944    1.522285   -1.310161
 H   -1.356642    1.384759    1.475817
 H   -0.125452    1.421933   -1.326901
 H   -0.175382   -0.692263    0.885584
 H    1.685233   -0.287327   -1.345113
 H    1.438584   -2.550303    0.694893
 H    2.954654   -3.089784   -1.139179
 H    3.792226   -1.521616   -0.958893
 H    2.806241    3.519842    1.491567
 H    3.492879    3.896737   -0.092387
 H    3.626601    2.250224    0.574735
 H    1.606774    1.053329    0.969752
 H   -3.761154   -2.579151    1.676465
 H   -3.550991   -1.727363   -1.393158
 H   -0.810850    3.422666   -0.311276
 H   -0.168437   -1.914469   -2.013554
 H    3.091566   -1.174895    1.695458
 H    4.805706   -3.301125    0.234648
