88 
4lkj_ligand_ani.xyz
 C   -3.880364   -0.085623    2.571360
 C   -3.031442   -0.514852    1.354375
 C   -3.135532   -2.002399    1.042442
 C   -4.485541   -2.369719    0.444851
 C   -4.826291   -1.413517   -0.715055
 C   -4.738463    0.034445   -0.215728
 C   -5.118500    1.071865   -1.277220
 C   -4.499939    2.447832   -1.046082
 C   -3.059315    2.576448   -1.523324
 C   -7.299570   -1.657983   -0.628539
 C   -8.548132   -1.811520   -1.471194
 N   -6.113823   -1.745598   -1.307804
 O   -3.923366   -1.019766    3.533465
 O   -4.439451    0.975973    2.665355
 O   -4.381793   -3.699202   -0.018555
 O   -3.409109    0.267480    0.258637
 O   -4.801158    0.614695   -2.584162
 O   -5.291343    3.352536   -1.799648
 O   -2.656287    3.888920   -1.186921
 O   -7.355538   -1.477479    0.578504
 C    1.598242   -0.309697    0.018320
 C    0.450539   -0.753436    0.930646
 C   -0.781180    0.112543    0.723224
 C   -0.402696    1.593962    0.840484
 C    0.712125    1.900602   -0.152331
 C    1.178521    3.339849   -0.089419
 O    0.096016   -2.094383    0.644322
 O   -1.732750   -0.149987    1.743436
 O    0.067296    1.874651    2.138110
 O    1.841797    1.078660    0.137978
 O    0.104592    4.156238   -0.556227
 C    6.769053   -1.544310    0.141943
 C    6.304336   -0.080149   -0.050211
 C    4.885847    0.090266    0.473970
 C    3.925654   -0.790744   -0.337704
 C    4.577122   -2.150675   -0.642119
 C    4.953270   -2.302006   -2.126040
 C    8.459579    1.079152    0.188434
 C    9.184117    2.256149    0.799289
 N    7.184104    0.870758    0.606417
 O    7.621318   -1.952731   -0.893090
 O    4.564147    1.461839    0.392545
 O    2.740450   -1.007986    0.423786
 O    5.680760   -2.417437    0.220441
 O    5.617369   -3.510881   -2.376517
 O    9.017260    0.351923   -0.634212
 H   -2.350710   -2.262743    0.323149
 H   -2.952808   -2.588296    1.946698
 H   -5.273197   -2.281613    1.209051
 H   -4.069931   -1.541701   -1.491398
 H   -5.444691    0.164549    0.614077
 H   -6.206684    1.220407   -1.205376
 H   -4.542129    2.691277    0.027116
 H   -3.024199    2.424830   -2.613409
 H   -2.442066    1.808176   -1.053070
 H   -9.234632   -2.484972   -0.952052
 H   -9.043257   -0.838446   -1.556558
 H   -8.348200   -2.197858   -2.474881
 H   -6.157093   -1.683320   -2.314537
 H   -4.447262   -0.634351    4.255232
 H   -5.219733   -3.917454   -0.449384
 H   -5.163864    1.289004   -3.176567
 H   -4.807200    4.191757   -1.787966
 H   -1.688881    3.917955   -1.087945
 H    1.366462   -0.549184   -1.036722
 H    0.784092   -0.637010    1.969076
 H   -1.191078   -0.107679   -0.271909
 H   -1.286781    2.217216    0.617436
 H    0.366804    1.682548   -1.175763
 H    2.065299    3.464616   -0.727946
 H    1.444368    3.586275    0.945034
 H    0.872431   -2.634891    0.838423
 H   -0.604789    1.525092    2.741922
 H    0.279510    5.072654   -0.306325
 H    7.283266   -1.647779    1.110485
 H    6.308723    0.129517   -1.131433
 H    4.832401   -0.256057    1.518721
 H    3.677733   -0.279491   -1.280143
 H    3.865405   -2.940795   -0.389900
 H    4.027948   -2.305887   -2.715575
 H    5.552979   -1.440855   -2.464042
 H   10.083278    1.887862    1.301715
 H    9.511589    2.920103   -0.006035
 H    8.580340    2.823655    1.512783
 H    6.706715    1.633521    1.072501
 H    8.294061   -1.241576   -0.992693
 H    3.597056    1.534393    0.475687
 H    6.476436   -3.432992   -1.931999
