16 
4lkq_ligand_dft.xyz
 N    2.827609   15.066750   42.044637
 C    3.427698   14.055216   42.697846
 N    3.503404   14.144531   44.013936
 C    4.086961   13.181762   44.768305
 S    4.212279   13.238491   46.428289
 N    4.624434   12.058296   44.116983
 C    4.553224   11.954174   42.770904
 N    4.987465   10.989168   41.942102
 N    4.710872   11.276573   40.634345
 C    4.095708   12.438595   40.660011
 C    3.959744   12.931153   41.986522
 H    2.469694   15.835165   42.591250
 H    2.728366   15.078704   41.044368
 H    5.051690   11.361099   44.710471
 H    5.465444   10.130475   42.161885
 H    3.770406   12.884848   39.730146
