16 
4lkq_ligand_ani.xyz
 N    2.824153   15.075272   42.053660
 C    3.427891   14.054874   42.699464
 N    3.503579   14.143213   44.011365
 C    4.091897   13.171815   44.771996
 S    4.208419   13.242297   46.419533
 N    4.622940   12.060631   44.111200
 C    4.546487   11.965635   42.763651
 N    4.985484   10.993442   41.947386
 N    4.714953   11.270225   40.641891
 C    4.097341   12.432570   40.649516
 C    3.956090   12.936032   41.975442
 H    2.472835   15.834761   42.615456
 H    2.724942   15.087886   41.054289
 H    5.053115   11.359733   44.701549
 H    5.463795   10.137194   42.180129
 H    3.781078   12.859419   39.705473
