19 
4lm1_ligand_ani.xyz
 O    1.994325   -1.898244    0.324224
 N    2.194943   -0.736082    0.012338
 O    3.290967   -0.291795   -0.282171
 C    1.055872    0.209017    0.004094
 C    1.390538    1.537469    0.014364
 C    0.380143    2.518740    0.044774
 C   -0.935832    2.150759    0.050334
 C   -1.307521    0.781171    0.018126
 N   -2.646587    0.514671    0.010381
 C   -3.020051   -0.736570   -0.037139
 C   -2.120301   -1.824687   -0.080438
 C   -0.774022   -1.577968   -0.067613
 C   -0.307636   -0.232353   -0.008508
 H    2.436121    1.820690    0.003273
 H    0.662681    3.567839    0.061819
 H   -1.739418    2.880317    0.072183
 H   -4.094438   -0.923774   -0.044706
 H   -2.496717   -2.842700   -0.119305
 H   -0.056191   -2.385664   -0.096701
