23 
4lm3_ligand_ani.xyz
 C    1.091597    1.512903   -0.054397
 C   -0.257371    1.824746   -0.070080
 C    1.507604    0.178193   -0.002593
 C   -1.210799    0.811062   -0.029801
 C    0.551079   -0.834807    0.032706
 C   -0.803589   -0.529757    0.013455
 O   -2.529000    1.162511   -0.049367
 C   -3.398694    0.116243    0.362802
 O   -1.705348   -1.555452    0.054421
 C   -3.015856   -1.169325   -0.337618
 C    2.979825   -0.099620    0.013411
 C    3.448270   -1.537810    0.050808
 O    3.778104    0.817227   -0.004947
 H    1.845452    2.293098   -0.081912
 H   -0.602991    2.853240   -0.109601
 H    0.832746   -1.883397    0.072915
 H   -4.408222    0.434340    0.092736
 H   -3.335713   -0.019287    1.451400
 H   -3.057515   -1.028309   -1.426491
 H   -3.674390   -1.992603   -0.051419
 H    3.085366   -2.088598   -0.824185
 H    4.539223   -1.545644    0.058428
 H    3.073606   -2.048088    0.945113
