33 
4ln7_ligand_ani.xyz
 O    4.628974    0.857849    0.255572
 C    3.407146    0.303506    0.114775
 C    3.338760   -1.087974   -0.116942
 O    4.513075   -1.763762   -0.212148
 C    2.085653   -1.644365   -0.197462
 C    0.938152   -0.843336   -0.061154
 C   -0.382291   -1.529036    0.045944
 C   -1.279407   -1.233558    1.079721
 C   -2.493970   -1.896250    1.187513
 C   -2.808128   -2.866543    0.249905
 F   -3.983740   -3.510206    0.345948
 C   -1.944152   -3.194059   -0.783313
 C   -0.728766   -2.527913   -0.867677
 C    1.124671    0.546336    0.022975
 C    0.029268    1.539674   -0.080912
 C    0.139369    2.740800    0.625032
 C   -0.865269    3.694333    0.572210
 C   -1.970049    3.447268   -0.226706
 F   -2.946507    4.367988   -0.289385
 C   -2.095797    2.285247   -0.970646
 C   -1.089872    1.332010   -0.894398
 N    2.352001    1.074816    0.189245
 H    4.476796    1.805526    0.400544
 H    4.317900   -2.699030   -0.356571
 H    1.967910   -2.720413   -0.325759
 H   -1.030214   -0.455083    1.797207
 H   -3.197816   -1.670347    1.981783
 H   -2.221023   -3.965981   -1.494091
 H   -0.044014   -2.784175   -1.673916
 H    1.029736    2.920235    1.220710
 H   -0.798452    4.623569    1.129363
 H   -2.975177    2.141146   -1.589728
 H   -1.185738    0.411257   -1.463904
