87 
4lnb_ligand_xtb.xyz
 O   -5.860568    2.012915   -0.402620
 C   -5.319043    0.962629   -0.139125
 O   -5.941487   -0.159759    0.270030
 C   -7.382848   -0.187263    0.395319
 C   -7.683077   -1.614467    0.857997
 C   -7.847249    0.822130    1.444978
 C   -8.041652    0.085168   -0.956480
 N   -3.981206    0.773597   -0.252016
 C   -3.123068    1.888042   -0.587027
 C   -2.231020    2.243467    0.601480
 C   -3.279277   -0.424079    0.143583
 C   -2.369039   -0.143637    1.341344
 C   -1.421463    1.032512    1.081407
 C   -0.308474    0.683535    0.083746
 N    0.641456   -0.277763    0.605537
 S    1.212002   -1.345712   -0.558811
 O    2.304908   -2.080869    0.003646
 O    1.426721   -0.663139   -1.807503
 C   -0.212350   -2.413191   -0.764037
 C   -0.869787   -2.371984   -1.979479
 C   -1.991110   -3.156849   -2.188561
 C   -2.440725   -3.978138   -1.167921
 C   -1.767653   -4.022186    0.040866
 C   -0.636631   -3.243455    0.267107
 C    0.097614   -3.305421    1.565185
 C    1.568286    0.124601    1.636326
 C    2.418357    1.375544    1.335672
 N    3.306549    1.247238    0.202096
 C    4.208615    0.202741    0.149227
 C    4.638088   -0.344514   -1.066716
 C    5.578535   -1.347090   -1.096634
 C    4.775946   -0.308473    1.325806
 C    5.718379   -1.308508    1.284742
 C    6.147150   -1.853060    0.073500
 C    7.139416   -2.917677   -0.004414
 N    7.760704   -3.514117    0.920131
 C    2.953692    1.947925   -1.029546
 C    2.460434    3.326700   -0.762921
 C    1.257072    3.935180   -1.012291
 N    1.279791    5.220645   -0.579003
 C    2.470931    5.400806   -0.079211
 N    3.236434    4.288544   -0.161664
 C    4.604755    4.143413    0.244413
 H   -8.753576   -1.746796    0.981623
 H   -7.318931   -2.328537    0.123893
 H   -7.189097   -1.811002    1.806072
 H   -7.619660    1.832200    1.116464
 H   -8.919574    0.729866    1.592361
 H   -7.342735    0.636560    2.391112
 H   -9.118428   -0.028440   -0.868783
 H   -7.816907    1.096352   -1.283407
 H   -7.670579   -0.616219   -1.700920
 H   -3.764468    2.730857   -0.849341
 H   -2.515159    1.618376   -1.456864
 H   -2.868626    2.585767    1.419083
 H   -1.565898    3.063595    0.328157
 H   -2.686273   -0.779289   -0.706593
 H   -4.006681   -1.193780    0.397204
 H   -1.794740   -1.040637    1.569526
 H   -2.994600    0.095318    2.204162
 H   -0.939299    1.302766    2.027044
 H    0.194503    1.606660   -0.222331
 H   -0.725447    0.225581   -0.812499
 H   -0.479869   -1.723955   -2.749139
 H   -2.506587   -3.126485   -3.135796
 H   -3.315753   -4.592844   -1.316062
 H   -2.121133   -4.675476    0.825106
 H    1.147515   -3.524442    1.382470
 H    0.057405   -2.342306    2.071438
 H   -0.327327   -4.068049    2.213221
 H    2.228341   -0.733405    1.774216
 H    1.014464    0.299705    2.565329
 H    2.995575    1.599232    2.241714
 H    1.761741    2.228722    1.155696
 H    4.190388   -0.028259   -1.993773
 H    5.874327   -1.764700   -2.048990
 H    4.482964    0.083354    2.287962
 H    6.130547   -1.673331    2.216297
 H    7.383104   -3.245116   -1.013794
 H    7.523453   -3.200578    1.861330
 H    2.204614    1.398050   -1.613198
 H    3.869046    2.019036   -1.626904
 H    0.388570    3.534186   -1.496430
 H    2.818635    6.317088    0.354629
 H    4.731429    3.237280    0.837450
 H    5.258758    4.078461   -0.629094
 H    4.894431    5.009415    0.837347
