87 
4lnb_ligand_ani.xyz
 O   -5.771829    2.427398   -0.474176
 C   -5.351015    1.438444    0.097265
 O   -5.987573    0.253298    0.166428
 C   -7.169837    0.010003   -0.654130
 C   -7.515411   -1.445552   -0.359499
 C   -8.313382    0.921081   -0.220147
 C   -6.834934    0.185565   -2.132974
 N   -4.148734    1.402608    0.754433
 C   -3.226933    2.485057    0.430119
 C   -2.161083    2.651975    1.505297
 C   -3.578365    0.117688    1.152986
 C   -2.474550    0.283437    2.190555
 C   -1.431964    1.337407    1.802224
 C   -0.542431    0.898285    0.625205
 N    0.330931   -0.231135    0.965343
 S    0.601675   -1.338003   -0.286098
 O    1.549211   -2.328496    0.202817
 O    0.883455   -0.616681   -1.522563
 C   -0.989871   -2.128057   -0.479150
 C   -1.706462   -1.874597   -1.647956
 C   -2.979750   -2.403694   -1.813012
 C   -3.530713   -3.193557   -0.808921
 C   -2.796856   -3.452591    0.345245
 C   -1.509450   -2.940417    0.541109
 C   -0.765679   -3.254072    1.811463
 C    1.491580    0.054247    1.823834
 C    2.487833    1.103121    1.308845
 N    3.102399    0.765439    0.041785
 C    4.007760   -0.280266   -0.058725
 C    4.254806   -0.907134   -1.298218
 C    5.231301   -1.881976   -1.415037
 C    4.720885   -0.752040    1.061957
 C    5.699185   -1.724038    0.927906
 C    5.983933   -2.293644   -0.313712
 C    7.027311   -3.310949   -0.495227
 N    7.831770   -3.798277    0.359167
 C    2.898063    1.704857   -1.048911
 C    3.475985    3.066359   -0.807064
 C    2.876186    4.296537   -0.746068
 N    3.787155    5.282612   -0.469872
 C    4.929797    4.652299   -0.371109
 N    4.814191    3.307873   -0.567055
 C    5.917296    2.366353   -0.542532
 H   -8.402715   -1.746820   -0.925477
 H   -6.691375   -2.107914   -0.641658
 H   -7.721168   -1.581199    0.706535
 H   -8.082868    1.964389   -0.443824
 H   -9.228380    0.634543   -0.749600
 H   -8.484856    0.819398    0.855958
 H   -7.682921   -0.146110   -2.741411
 H   -6.623724    1.232658   -2.360259
 H   -5.959336   -0.416780   -2.399707
 H   -3.823662    3.394000    0.332369
 H   -2.759637    2.312187   -0.553740
 H   -2.642454    3.008872    2.423894
 H   -1.445822    3.424855    1.196780
 H   -3.211959   -0.412317    0.263372
 H   -4.375180   -0.492255    1.578003
 H   -1.996596   -0.689886    2.355813
 H   -2.934168    0.582586    3.139716
 H   -0.773870    1.504303    2.665723
 H    0.062525    1.749501    0.282929
 H   -1.152857    0.611669   -0.238704
 H   -1.259215   -1.252748   -2.417743
 H   -3.546125   -2.186820   -2.715269
 H   -4.530972   -3.607741   -0.916789
 H   -3.232434   -4.057993    1.135073
 H    0.084586   -3.916816    1.625093
 H   -0.362609   -2.344633    2.270894
 H   -1.437195   -3.737545    2.526670
 H    2.007318   -0.894067    1.999353
 H    1.095762    0.391999    2.786680
 H    3.255245    1.274087    2.075489
 H    1.982604    2.066532    1.180643
 H    3.636563   -0.672441   -2.163004
 H    5.421519   -2.330248   -2.387810
 H    4.517130   -0.357527    2.053616
 H    6.238476   -2.039598    1.818493
 H    7.113924   -3.692424   -1.517823
 H    7.684260   -3.382779    1.283669
 H    1.820504    1.821315   -1.212176
 H    3.301073    1.273379   -1.970351
 H    1.826189    4.530893   -0.874833
 H    5.891317    5.109573   -0.162412
 H    5.956054    1.817414    0.405925
 H    5.841947    1.656559   -1.371870
 H    6.848798    2.925195   -0.657027
