21 
4lnf_ligand_xtb.xyz
 N    0.794945    1.674229    0.383591
 C    1.147436    0.319525    0.864080
 C    1.748846   -0.500917   -0.289569
 O    1.655354   -1.685155   -0.390110
 C   -0.063433   -0.362042    1.514868
 C   -1.122526   -0.939012    0.565210
 C   -1.918552    0.054327   -0.246744
 O   -1.523178    1.198893   -0.512385
 N   -3.088793   -0.370465   -0.699441
 O    2.406555    0.288220   -1.136387
 H   -0.249813    1.571662   -0.063099
 H    1.457753    1.985943   -0.332648
 H    0.765554    2.357287    1.141683
 H    1.947315    0.391361    1.612857
 H   -0.530825    0.347544    2.200384
 H    0.310441   -1.196440    2.108861
 H   -1.816211   -1.530063    1.164667
 H   -0.642028   -1.630751   -0.132194
 H   -3.440580   -1.294606   -0.512127
 H   -3.647021    0.245698   -1.272943
 H    2.841886   -0.220936   -1.840505
