151 
4lnp_ligand_xtb.xyz
 N   -0.901844   -0.298658    2.328260
 C    0.549080   -0.511452    2.494291
 C    0.645250   -1.758648    3.388913
 O   -0.181163   -1.871371    4.286452
 C    1.164198    0.676615    3.219033
 N    1.600572   -2.653919    3.150633
 C    2.478809   -2.686257    1.998986
 C    1.800376   -2.835831    0.629555
 O    2.375648   -2.348097   -0.340540
 C    3.450283   -3.846363    2.287689
 C    2.727586   -4.722420    3.311662
 C    1.889853   -3.722256    4.100533
 N    0.639651   -3.484894    0.474100
 C    0.000889   -3.481940   -0.838479
 C   -0.631582   -2.103784   -1.034687
 O   -0.651194   -1.289945   -0.113087
 C   -1.007386   -4.643862   -0.808348
 C   -0.839121   -5.270992    0.580091
 C   -0.241153   -4.142198    1.415225
 N   -1.120784   -1.782711   -2.234062
 C   -1.369908   -0.384762   -2.562391
 C   -2.559024    0.328566   -1.909013
 O   -2.761581    1.493721   -2.203476
 C   -1.488625   -0.370698   -4.092589
 C   -1.938951   -1.790817   -4.425375
 C   -1.190779   -2.642159   -3.403026
 N   -3.328419   -0.345967   -1.038241
 C   -4.239499    0.383681   -0.180580
 C   -3.905626    0.058914    1.276495
 O   -3.536575   -1.065654    1.589103
 C   -5.725046    0.051026   -0.428083
 C   -6.045207   -1.445086   -0.330478
 C   -6.223164   -2.088581   -1.715061
 N   -6.126530   -3.529447   -1.686157
 C   -4.912287   -4.168577   -1.575734
 N   -4.988398   -5.472538   -1.153879
 N   -3.763579   -3.670007   -1.821370
 N   -4.114311    1.035962    2.173330
 C   -4.045544    2.456876    1.862346
 C   -2.743780    2.717427    1.091087
 O   -1.761283    1.995187    1.269050
 C   -3.968874    3.151518    3.232517
 C   -3.350001    2.083803    4.133701
 C   -3.991887    0.806312    3.608288
 N   -2.726171    3.713145    0.221167
 C   -1.498627    3.984970   -0.507771
 C   -0.480904    4.599010    0.470448
 O   -0.844698    5.073887    1.530504
 C   -1.939323    4.991888   -1.571671
 C   -3.040586    5.765920   -0.850884
 C   -3.770928    4.674201   -0.071427
 N    0.790209    4.637757    0.051728
 C    1.353702    4.005705   -1.120396
 C    1.680975    2.535663   -0.836946
 O    1.827288    2.129883    0.312239
 C    2.681050    4.757368   -1.322083
 C    3.116618    5.092137    0.105223
 C    1.807231    5.291905    0.866183
 N    1.831587    1.735271   -1.895927
 C    2.464272    0.435895   -1.728350
 C    3.960520    0.645860   -1.455839
 O    4.531732    1.669100   -1.774465
 C    2.318284   -0.236339   -3.093234
 C    2.395114    0.952264   -4.049970
 C    1.681774    2.081137   -3.299762
 N    4.553532   -0.410028   -0.875256
 C    5.990915   -0.511794   -0.797277
 C    6.454844   -1.664478   -1.680188
 O    5.724957   -2.316090   -2.376201
 C    6.499202   -0.657221    0.643523
 C    6.234845    0.614879    1.453577
 C    4.745247    0.813261    1.618292
 O    4.326255    1.986550    1.202999
 O    4.015780   -0.029104    2.093292
 O    7.769858   -1.858887   -1.607430
 H   -1.339675   -0.623369    3.207017
 H   -1.161205    0.688300    2.081612
 H   -1.230617   -0.867146    1.527265
 H    1.002659   -0.634476    1.513740
 H    0.732235    0.783511    4.211458
 H    2.235676    0.529964    3.313270
 H    0.990259    1.579057    2.638263
 H    3.045284   -1.751605    1.925947
 H    4.364477   -3.445022    2.724063
 H    3.712362   -4.388463    1.380804
 H    2.100293   -5.462446    2.813983
 H    3.426112   -5.254369    3.953215
 H    2.461526   -3.303941    4.935214
 H    0.960441   -4.131680    4.500972
 H    0.774087   -3.608030   -1.603709
 H   -2.027674   -4.277789   -0.953367
 H   -0.790761   -5.365096   -1.594118
 H   -0.140497   -6.107832    0.539096
 H   -1.781788   -5.624079    0.990584
 H    0.285677   -4.510060    2.286533
 H   -1.029302   -3.450306    1.735523
 H   -0.514466    0.211269   -2.214732
 H   -0.519535   -0.169432   -4.549105
 H   -2.191483    0.390664   -4.424777
 H   -1.701643   -2.073667   -5.447796
 H   -3.013918   -1.894718   -4.278942
 H   -0.182151   -2.887022   -3.756397
 H   -1.726131   -3.559967   -3.162793
 H   -3.043993   -1.254191   -0.694167
 H   -4.082198    1.440207   -0.408795
 H   -6.001641    0.423661   -1.416260
 H   -6.306291    0.608422    0.308423
 H   -5.242883   -1.961104    0.200620
 H   -6.959580   -1.593674    0.246156
 H   -5.462589   -1.707585   -2.402589
 H   -7.199638   -1.826344   -2.129682
 H   -6.903579   -3.996717   -1.243130
 H   -4.154077   -6.011764   -1.319104
 H   -5.849230   -5.964624   -1.328656
 H   -3.796125   -2.689781   -2.071970
 H   -4.916205    2.781345    1.287402
 H   -3.362873    4.054911    3.187267
 H   -4.970099    3.410139    3.577220
 H   -2.269638    2.063985    3.992199
 H   -3.563890    2.252895    5.185518
 H   -4.997284    0.679948    4.024782
 H   -3.425562   -0.104073    3.801447
 H   -1.122797    3.044714   -0.918855
 H   -2.345994    4.454241   -2.429208
 H   -1.129812    5.640353   -1.899750
 H   -2.595651    6.476486   -0.154341
 H   -3.699387    6.298958   -1.531855
 H   -4.541931    4.203248   -0.693234
 H   -4.224369    5.057234    0.843748
 H    0.686684    4.098822   -1.978875
 H    2.501109    5.666717   -1.896847
 H    3.426612    4.149858   -1.832255
 H    3.741351    5.981585    0.137958
 H    3.681690    4.260241    0.521217
 H    1.825548    4.849646    1.864423
 H    1.541302    6.348177    0.970370
 H    2.001460   -0.125004   -0.914999
 H    1.357564   -0.743658   -3.163645
 H    3.105886   -0.967628   -3.263461
 H    1.940322    0.751433   -5.017723
 H    3.438236    1.224594   -4.205426
 H    0.614507    2.120483   -3.552283
 H    2.132967    3.047820   -3.525084
 H    3.998534   -1.242704   -0.694533
 H    6.393562    0.416162   -1.227903
 H    5.990224   -1.498333    1.118946
 H    7.569365   -0.859019    0.616197
 H    6.657677    1.489375    0.961485
 H    6.678778    0.507584    2.444673
 H    3.337948    2.036394    1.132978
 H    8.048286   -2.578597   -2.197111
