43 
4lov_ligand_xtb.xyz
 O   -0.471675   -1.982429    2.482655
 C    0.649422   -1.120124    2.481798
 C    0.799855   -0.488218    1.095968
 C   -2.116330    1.177584   -0.504540
 O    1.842897    0.464666    1.220597
 C    1.126867   -1.532471    0.021776
 O    0.054897   -2.418965   -0.205654
 C    1.419893   -0.821786   -1.305151
 O    1.852415   -1.745671   -2.277751
 C    2.529594    0.215529   -1.112288
 O    3.753851   -0.397797   -0.818028
 C    2.141342    1.154771    0.037662
 O    1.069869    1.917448   -0.426244
 C    0.615707    2.928122    0.465462
 C   -0.847362    3.229371    0.126107
 C   -1.698241    2.031215    0.415937
 C   -5.020607   -1.348083   -0.707250
 C   -4.237259   -0.067727   -0.966461
 C   -2.894688   -0.068407   -0.230016
 H   -0.577633   -2.355433    3.363963
 H    1.568427   -1.669925    2.721884
 H    0.526302   -0.313639    3.214229
 H   -0.140875    0.008593    0.816436
 H   -1.890429    1.365886   -1.546277
 H    2.027861   -2.090662    0.328480
 H   -0.372499   -2.587091    0.646936
 H    0.506040   -0.307857   -1.635533
 H    1.231785   -2.484362   -2.250975
 H    2.610746    0.820309   -2.028277
 H    3.831248   -1.144657   -1.429143
 H    3.005332    1.781483    0.309461
 H    0.704873    2.575856    1.499699
 H    1.237711    3.826444    0.344141
 H   -0.905608    3.482504   -0.932533
 H   -1.172451    4.086031    0.719447
 H   -1.910427    1.850537    1.462914
 H   -4.454418   -2.214816   -1.041390
 H   -5.224423   -1.462300    0.355349
 H   -5.969483   -1.330894   -1.238753
 H   -4.823803    0.793941   -0.639204
 H   -4.059608    0.039794   -2.038683
 H   -2.310506   -0.931722   -0.564303
 H   -3.065346   -0.174692    0.843507
