47 
4lpb_ligand_xtb.xyz
 C   -8.607503   -1.144467    1.747884
 C   -8.064628   -0.791651    0.367627
 C   -5.637579   -0.861229    0.040918
 N    5.466553   -2.666285    1.857152
 C   -0.549247   -1.052422   -0.665687
 C   -1.170340   -2.294319   -0.715871
 C    0.876665   -0.893225   -0.982983
 C    1.878725   -1.438847   -0.197124
 C    3.212027   -1.242409   -0.570268
 C    3.468404   -0.512127   -1.738865
 C    1.260209   -0.197510   -2.135341
 C    4.314154   -1.756464    0.199355
 C    6.344618   -2.382217    0.903213
 C   -0.766826    1.361972   -0.192441
 C    2.181817    3.240558    0.568697
 N   -6.835077   -1.496807    0.074173
 O   -5.510914    0.337155    0.150782
 N   -4.573394   -1.734401   -0.159888
 C   -3.239295   -1.423602   -0.302504
 C   -2.728841   -0.128735   -0.195943
 C   -1.365000    0.056405   -0.368618
 N   -2.463032   -2.480924   -0.536661
 N    2.513384   -0.018234   -2.496658
 N    4.262553   -2.287523    1.414785
 O    7.517569   -2.521035    0.792507
 O    5.553976   -1.765493   -0.213157
 N    0.479319    1.548085    0.093664
 C    0.782322    2.855300    0.209250
 C   -0.256952    3.721049    0.011855
 S   -1.685496    2.850111   -0.334841
 F    2.492707    4.468166    0.128220
 F    2.370605    3.260376    1.901998
 F    3.090206    2.396991    0.070459
 H   -8.833439   -2.206992    1.813970
 H   -7.878835   -0.893032    2.514423
 H   -9.519047   -0.585599    1.938743
 H   -7.828696    0.272648    0.312777
 H   -8.803675   -1.033650   -0.402585
 H   -0.596109   -3.187173   -0.925555
 H    1.617587   -1.998873    0.689144
 H    4.484792   -0.329862   -2.056333
 H    0.512160    0.224013   -2.794326
 H    3.461359   -2.401151    2.017386
 H   -6.876730   -2.503167    0.064573
 H   -4.757834   -2.722938   -0.266533
 H   -3.386613    0.694130    0.030160
 H   -0.242200    4.791329    0.049570
