10 
4lpf_ligand_ani.xyz
 N    9.948113   19.073030   21.765205
 N   10.341423   18.020212   22.530821
 C   11.212122   18.598798   23.341092
 N   11.401613   19.936100   23.142344
 C   10.582145   20.189232   22.141862
 N   11.867772   17.913178   24.343840
 H    9.263007   18.942719   21.037972
 H   10.422415   21.151787   21.668142
 H   12.718026   18.364562   24.647452
 H   11.976364   16.925383   24.163269
