56 
4lsj_ligand_xtb.xyz
 C    3.447146    1.168558    1.726609
 O    4.572117    0.675921    1.024616
 C    4.414374   -0.258052    0.044711
 C    3.208982   -0.814012   -0.402245
 C    3.262160   -1.755848   -1.431556
 C    4.455163   -2.169171   -1.986859
 C    5.644462   -1.631123   -1.520968
 C    5.618154   -0.684820   -0.520196
 C    1.875823   -0.392994    0.078137
 C    0.910481   -1.231787    0.480014
 C   -0.420719   -0.706141    0.846078
 C   -0.568932    0.286571    1.810536
 C   -1.826195    0.769390    2.124414
 C   -2.953209    0.285291    1.484505
 C   -2.815229   -0.703914    0.515583
 C   -1.552907   -1.197509    0.208195
 N   -3.936816   -1.204605   -0.141191
 S   -5.367388   -0.383156   -0.349850
 O   -6.121946   -1.187093   -1.261093
 O   -5.938769   -0.045371    0.914467
 C   -4.871797    1.146370   -1.185184
 C    1.098452   -2.714601    0.652534
 C    0.717959   -3.152100    2.067639
 C    1.666999    1.070806    0.020517
 C    2.461928    1.870724    0.832642
 C    2.329878    3.250805    0.805782
 C    1.394371    3.825854   -0.031947
 C    0.595269    3.040917   -0.847930
 C    0.726227    1.658424   -0.835263
 O    0.002972    0.800661   -1.611104
 C   -0.994106    1.331252   -2.444692
 H    3.868628    1.859301    2.461336
 H    2.949147    0.341477    2.254658
 H    2.328871   -2.145176   -1.810321
 H    4.458588   -2.899329   -2.781820
 H    6.588397   -1.943299   -1.941532
 H    6.527798   -0.242617   -0.144578
 H    0.299061    0.668906    2.324885
 H   -1.932957    1.532487    2.881011
 H   -3.937055    0.639973    1.743601
 H   -1.454388   -1.959015   -0.551825
 H   -3.773908   -1.894849   -0.855223
 H   -4.501606    0.886305   -2.167511
 H   -5.751428    1.771802   -1.260265
 H   -4.111699    1.627605   -0.583974
 H    2.137801   -2.982763    0.459717
 H    0.472239   -3.252511   -0.064163
 H    1.335252   -2.637144    2.800834
 H   -0.324676   -2.923848    2.277106
 H    0.869757   -4.222850    2.183053
 H    2.949800    3.865175    1.440658
 H    1.279755    4.899141   -0.057331
 H   -0.122715    3.521401   -1.493875
 H   -1.752444    1.873344   -1.869208
 H   -0.573839    1.994897   -3.207900
 H   -1.455864    0.474043   -2.932818
