56 
4lsj_ligand_dft.xyz
 C    3.425479    1.145082    1.726195
 O    4.550527    0.671697    0.994045
 C    4.406850   -0.250922    0.003280
 C    3.197251   -0.796283   -0.467470
 C    3.268308   -1.708939   -1.531034
 C    4.471517   -2.110125   -2.089691
 C    5.659048   -1.577740   -1.591489
 C    5.622187   -0.655299   -0.559719
 C    1.852638   -0.380507    0.029603
 C    0.906274   -1.236873    0.456823
 C   -0.435739   -0.740532    0.884350
 C   -0.582637    0.123590    1.971166
 C   -1.849108    0.533961    2.370896
 C   -2.990078    0.087360    1.714030
 C   -2.848272   -0.764472    0.615617
 C   -1.577724   -1.170774    0.208205
 N   -3.972989   -1.256178   -0.091393
 S   -5.338096   -0.362929   -0.447606
 O   -6.041203   -1.160303   -1.436276
 O   -5.971537    0.049136    0.790685
 C   -4.717610    1.120370   -1.233875
 C    1.107817   -2.729111    0.612835
 C    0.866177   -3.195625    2.053617
 C    1.637067    1.093895    0.014218
 C    2.425270    1.869414    0.865270
 C    2.275864    3.254446    0.906535
 C    1.333980    3.863607    0.089237
 C    0.553072    3.106612   -0.781445
 C    0.711067    1.721374   -0.830976
 O    0.014625    0.904991   -1.661809
 C   -1.065560    1.453431   -2.375187
 H    3.854953    1.816035    2.472848
 H    2.951212    0.303633    2.249170
 H    2.332834   -2.090728   -1.929750
 H    4.482626   -2.818684   -2.911577
 H    6.615198   -1.874876   -2.011822
 H    6.531509   -0.219102   -0.159558
 H    0.297524    0.470022    2.502798
 H   -1.956109    1.197047    3.223962
 H   -3.977811    0.375411    2.055077
 H   -1.471057   -1.820982   -0.657212
 H   -3.786634   -1.932928   -0.821369
 H   -4.221490    0.846552   -2.165973
 H   -5.576908    1.763610   -1.431766
 H   -4.025371    1.616376   -0.550463
 H    2.118675   -3.006991    0.308135
 H    0.419247   -3.264648   -0.055796
 H    1.546914   -2.683621    2.742480
 H   -0.158485   -2.989810    2.377796
 H    1.042118   -4.272288    2.140713
 H    2.890410    3.848104    1.577155
 H    1.203603    4.941122    0.117237
 H   -0.165438    3.606440   -1.420974
 H   -1.789180    1.927704   -1.699404
 H   -0.733060    2.186504   -3.121493
 H   -1.542954    0.616390   -2.887881
