90 
4lte_ligand_ani.xyz
 C    2.970898    2.960398   -0.225404
 C    2.268537    1.621147   -0.079548
 O    2.371100    0.719372   -0.901218
 C    4.209221    2.915851   -1.120498
 C    5.265154    1.860377   -0.744125
 C    5.655194    1.823945    0.742109
 C    6.536864    2.037741   -1.592215
 C    6.456937    3.054398    1.177276
 C    7.366050    3.258373   -1.172822
 C    7.714203    3.215337    0.317990
 C   -4.067741    0.882379    0.929301
 C   -5.470816    0.989195    0.416309
 C   -7.060757    2.045238   -1.147151
 C   -1.677057    1.228910    0.748379
 C   -2.965962    1.426485    0.268208
 C   -5.913747    4.561589   -0.847656
 C   -7.001843    4.389230   -1.699642
 O   -6.245566    0.061832    0.593737
 O    3.278954   -0.095620    2.371707
 C   -5.389268    3.475142   -0.154506
 C   -5.951216    2.205926   -0.314831
 N    1.472978    1.490766    1.029938
 C   -7.576509    3.128524   -1.846978
 C   -1.452614    0.480466    1.906331
 C   -2.563231   -0.060531    2.564056
 C   -3.849567    0.120550    2.080301
 C   -0.071286    0.221476    2.480296
 C    1.051355    0.167177    1.438924
 C    2.264012   -0.634498    1.958975
 N   -0.115053   -2.914025   -1.403847
 C    1.322501   -2.777029   -1.275988
 C    1.949200   -4.052401   -0.680409
 C    3.459756   -4.004550   -0.438352
 C    3.982804   -2.924222    0.519318
 C    3.291689   -2.837529    1.890962
 N    2.110231   -1.985749    1.893295
 C    1.853816   -2.521764   -2.690253
 O    1.485575   -3.226259   -3.617348
 N    2.754189   -1.510985   -2.819003
 C   -0.957626   -2.785029   -0.351338
 O   -0.541886   -2.585262    0.796016
 C   -2.408697   -2.875464   -0.650119
 C   -3.312271   -2.820054    0.326721
 C   -4.756229   -2.772000   -0.018561
 O   -5.531477   -2.749841    1.073299
 O   -5.183134   -2.742511   -1.149747
 H    2.242992    3.674423   -0.633439
 H    3.235653    3.333399    0.772623
 H    3.891875    2.710978   -2.150271
 H    4.655785    3.918013   -1.132845
 H    4.821931    0.886325   -0.990469
 H    4.779247    1.670268    1.383252
 H    6.282962    0.932885    0.894483
 H    6.267526    2.103400   -2.654285
 H    7.158373    1.137156   -1.480924
 H    6.726883    2.968496    2.236674
 H    5.829230    3.952839    1.089221
 H    8.280744    3.312851   -1.775768
 H    6.804385    4.177888   -1.388337
 H    8.383224    2.362233    0.504150
 H    8.269204    4.116128    0.608008
 H   -7.501576    1.056970   -1.229415
 H   -0.841408    1.663816    0.208979
 H   -3.111303    1.996051   -0.646854
 H   -5.467300    5.544189   -0.723572
 H   -7.407058    5.238581   -2.243276
 H   -4.546868    3.615548    0.519248
 H    1.650189    2.133288    1.790014
 H   -8.432764    2.992742   -2.503441
 H   -2.415876   -0.651751    3.467430
 H   -4.698123   -0.328214    2.586042
 H   -0.104501   -0.738411    3.009825
 H    0.184637    0.973868    3.240097
 H    0.669529   -0.332270    0.543895
 H   -0.451263   -3.190527   -2.316402
 H    1.526635   -1.916636   -0.631057
 H    1.420265   -4.273498    0.253523
 H    1.723892   -4.875790   -1.369683
 H    3.755576   -4.987625   -0.049730
 H    3.979082   -3.892619   -1.399049
 H    5.050504   -3.121227    0.682878
 H    3.936823   -1.936360    0.038338
 H    3.983704   -2.403879    2.616419
 H    3.006795   -3.831541    2.255899
 H    1.225975   -2.340185    1.534458
 H    2.779520   -0.758081   -2.138383
 H    3.000523   -1.266412   -3.768823
 H   -2.748845   -2.945572   -1.682568
 H   -3.017891   -2.776705    1.372860
 H   -6.434355   -2.547459    0.775677
