51 
4lts_ligand_ani.xyz
 C    4.026530   -0.442004    0.969309
 C    3.368504   -1.579473    0.519650
 C    3.872460   -2.350049   -0.520509
 C    0.662156   -1.087977    0.215860
 C   -0.999029    0.350538   -1.472702
 C    0.059933   -1.733034   -0.855499
 C   -4.132562   -0.866674   -2.811573
 C   -6.346601    1.754930    1.628949
 C   -5.788298   -0.426401    0.828644
 C    5.050815   -1.953365   -1.143942
 C    5.718899   -0.805339   -0.728473
 C    5.198695   -0.074405    0.331228
 S    1.796550   -1.993806    1.243779
 O    1.561084   -3.415192    1.017017
 O    1.758140   -1.399886    2.575471
 C    0.429087    0.257772    0.475174
 C   -0.402966    0.972825   -0.373595
 C   -0.774787   -1.009585   -1.700363
 C   -1.887936    1.156430   -2.390052
 N   -3.032080    1.741567   -1.690827
 C   -3.940291    0.806162   -1.052432
 N   -4.727233   -0.010430   -1.983967
 N   -3.632808   -1.605678   -3.560833
 N   -4.881768    1.577053   -0.282567
 C   -5.648599    0.962844    0.707756
 C   -7.131202    1.137576    2.589598
 N   -7.273678   -0.183695    2.718006
 C   -6.599746   -0.926750    1.837520
 O    5.915240    1.025559    0.812912
 C    5.597355    2.229054    0.289341
 F    4.319199    2.566511    0.522484
 F    6.382582    3.139055    0.854437
 F    5.785214    2.268997   -1.038095
 H    3.637457    0.141157    1.795884
 H    3.345555   -3.249424   -0.826191
 H    0.245000   -2.791873   -1.009168
 H   -6.286475    2.839221    1.582797
 H   -5.281297   -1.107312    0.154122
 H    5.452006   -2.538554   -1.965326
 H    6.629118   -0.466034   -1.212420
 H    0.883407    0.730599    1.341046
 H   -0.604496    2.026065   -0.191942
 H   -1.266363   -1.500779   -2.536201
 H   -2.187416    0.539668   -3.248635
 H   -1.311159    1.999935   -2.794657
 H   -3.580986    2.282176   -2.355246
 H   -3.363965    0.120431   -0.416750
 H   -5.619366    0.367680   -2.269580
 H   -4.462449    2.440122    0.047610
 H   -7.679346    1.748137    3.306237
 H   -6.714224   -2.005402    1.943302
