59 
4luz_ligand_xtb.xyz
 C   10.036312   -0.539599    1.484418
 O   11.234495   -0.586708    1.420915
 O    9.372430   -0.796126    2.626798
 C    9.180905   -0.201699    0.339748
 C    9.505560    0.101449   -0.960407
 C    8.291693    0.341049   -1.622972
 C    7.289945    0.171646   -0.690577
 O    7.832295   -0.158315    0.500839
 C    5.849750    0.286793   -0.799789
 C    5.035201    0.059275    0.311765
 C    3.663851    0.164349    0.210747
 C    3.068399    0.491326   -1.001439
 C    3.874496    0.717263   -2.110321
 C    5.247822    0.621300   -2.014240
 C    1.571257    0.607049   -1.099884
 O    0.989338   -0.436175   -0.345482
 C   -0.363258   -0.543598   -0.302426
 C   -1.258328    0.330535   -0.911453
 C   -2.620001    0.122237   -0.790911
 C   -3.119013   -0.953929   -0.064364
 C   -2.216351   -1.836574    0.530397
 C   -0.860435   -1.632025    0.418858
 C   -4.549975   -1.205624    0.037474
 C   -5.229256   -2.398621   -0.120380
 C   -6.588516   -2.059015   -0.023009
 N   -6.726500   -0.751258    0.184136
 N   -5.501256   -0.244719    0.224466
 C   -5.331494    1.119876    0.513815
 C   -6.242346    2.027196   -0.012018
 C   -6.132634    3.380632    0.270156
 C   -5.090578    3.809574    1.084921
 C   -4.192212    2.903558    1.620383
 C   -4.308633    1.552650    1.348976
 C   -7.103301    4.361458   -0.310514
 C   -7.778912   -2.923191   -0.118551
 O   -8.935954   -2.258895    0.038058
 O   -7.739256   -4.107127   -0.317393
 H    8.415462   -0.717320    2.504386
 H   10.495449    0.140326   -1.364920
 H    8.172565    0.603348   -2.653524
 H    5.486771   -0.200021    1.257031
 H    3.040107   -0.019131    1.071607
 H    3.422622    0.969304   -3.058640
 H    5.857845    0.798832   -2.885237
 H    1.256391    0.543705   -2.150430
 H    1.254114    1.584446   -0.700625
 H   -0.910929    1.174425   -1.486334
 H   -3.300315    0.802726   -1.281777
 H   -2.590307   -2.679189    1.091788
 H   -0.155304   -2.305272    0.879708
 H   -4.822781   -3.370049   -0.305751
 H   -7.039353    1.659782   -0.640515
 H   -4.990036    4.861238    1.309251
 H   -3.399266    3.249235    2.266245
 H   -3.623247    0.843349    1.785298
 H   -6.687004    4.805850   -1.214974
 H   -8.038859    3.874352   -0.572390
 H   -7.306555    5.165154    0.393261
 H   -8.749542   -1.318543    0.196031
