21 
4lv4_ligand_ani.xyz
 O   -3.911116   -0.486280    0.014206
 C   -2.947994    0.236001    0.001531
 O   -3.036088    1.567985   -0.013179
 C   -1.526999   -0.293322    0.000259
 N   -0.578352    0.611701   -0.001585
 C    0.709633    0.191067   -0.001045
 C    1.063170   -1.182275   -0.003050
 C    2.430758   -1.555453   -0.003016
 C    3.398751   -0.588222    0.000643
 C    3.058152    0.784904    0.003394
 C    1.742289    1.180418    0.002045
 O    1.345626    2.475765    0.004097
 C    0.000062   -2.124585   -0.003452
 C   -1.295923   -1.684931   -0.000136
 H   -2.128946    1.925410   -0.020092
 H    2.686705   -2.611856   -0.005347
 H    4.450224   -0.863643    0.001882
 H    3.850456    1.531726    0.006644
 H    2.130399    3.039806    0.007944
 H    0.229312   -3.187427   -0.006057
 H   -2.148458   -2.357300    0.002094
