41 
4lwe_ligand_dft.xyz
 C    4.295104   -0.116650    0.240971
 C    4.087153   -1.468746    0.473632
 C    2.830008   -2.045509    0.298969
 C    1.729883   -1.243470   -0.096579
 C    1.958874    0.114122   -0.345258
 C    3.211380    0.668893   -0.181642
 O    2.743440   -3.363546    0.530042
 O    5.534573    0.376362    0.423340
Cl    3.471089    2.375371   -0.498783
 C    0.383282   -1.814856   -0.227231
 N    0.248756   -3.122026   -0.328276
 O   -1.098664   -3.387032   -0.400929
 C   -1.755970   -2.219436   -0.370909
 C   -0.899076   -1.167860   -0.263492
 C   -1.245051    0.266423   -0.232014
 N   -3.134893   -2.307711   -0.456535
 C   -3.996065   -1.675966    0.436156
 C   -5.464489   -1.952190    0.191777
 O   -3.597885   -0.962870    1.327775
 C   -1.780725    0.891737   -1.362884
 C   -2.097641    2.240030   -1.346379
 C   -1.878597    2.996601   -0.191050
 C   -1.346783    2.384086    0.946226
 C   -1.042660    1.027556    0.917159
 O   -2.211215    4.307876   -0.274212
 C   -2.000352    5.119081    0.860289
 H    4.917509   -2.091735    0.783909
 H    1.147146    0.749668   -0.676009
 H    1.847689   -3.680972    0.294198
 H    5.533615    1.321465    0.212867
 H   -3.501302   -3.036337   -1.051961
 H   -5.873020   -2.469256    1.064355
 H   -5.982853   -0.994407    0.103333
 H   -5.661900   -2.547586   -0.703491
 H   -1.941209    0.312947   -2.268165
 H   -2.509032    2.733675   -2.220396
 H   -1.173513    2.944449    1.857288
 H   -0.641599    0.551242    1.806122
 H   -2.594252    4.775422    1.716772
 H   -0.940204    5.147758    1.142536
 H   -2.324269    6.121111    0.577037
