50 
4lwt_ligand_xtb.xyz
 C    0.721255    0.534438    1.250775
 C   -0.418761   -1.437436    1.429443
 C   -0.592969   -0.960320   -0.019470
 C    0.128131    0.361209   -0.003240
 N    0.378817   -0.531682    2.066419
 C    1.506341    1.629214    1.545006
 C    0.295146    1.316421   -0.980608
 C    1.074919    2.432459   -0.705125
 C    1.675409    2.570571    0.535793
 C    3.809443   -0.994114   -0.853679
Cl    4.847156    0.148770   -1.630803
 C    2.482291   -1.068548   -1.238190
 C    1.624923   -1.956144   -0.601472
 C    0.159197   -1.963461   -0.932204
 C   -2.073571   -0.807179   -0.417244
 C    2.127889   -2.783141    0.395769
 C    3.460186   -2.710405    0.762290
 C    4.311010   -1.807996    0.148193
 C   -2.766099    0.165807    0.548808
 N   -4.141958    0.372666    0.155593
 C   -4.918907   -0.843136    0.198221
 C   -4.319929   -1.865467   -0.770126
 C   -2.852173   -2.124923   -0.433242
 O   -0.866719   -2.437780    1.936546
Cl    2.662059    3.950411    0.848221
 C   -4.486424    1.538051   -0.446014
 O   -3.688012    2.447235   -0.575391
 C   -5.921465    1.667152   -0.913738
 H    0.671576   -0.631047    3.025759
 H    1.972141    1.758112    2.508393
 H   -0.170894    1.213454   -1.947923
 H    1.218575    3.193324   -1.454925
 H    2.118786   -0.427291   -2.025344
 H    0.001264   -1.676149   -1.972511
 H   -0.249943   -2.959709   -0.764418
 H   -2.104969   -0.363224   -1.419170
 H    1.471001   -3.482413    0.890979
 H    3.840998   -3.358186    1.537346
 H    5.347510   -1.737453    0.437204
 H   -2.270099    1.138337    0.540506
 H   -2.748003   -0.245307    1.564141
 H   -5.960609   -0.646157   -0.046379
 H   -4.873078   -1.241152    1.218865
 H   -4.397256   -1.477517   -1.788868
 H   -4.885177   -2.796696   -0.716098
 H   -2.773812   -2.599240    0.546011
 H   -2.434476   -2.805466   -1.175970
 H   -6.139704    0.946843   -1.698938
 H   -6.612681    1.519930   -0.087263
 H   -6.053020    2.670084   -1.310488
