73 
4lxa_ligand_ani.xyz
 F    0.626739   -2.835352    1.681057
 C    1.173182   -2.096856    0.708187
 F    0.416932   -2.205496   -0.386230
 F    1.127543   -0.808362    1.117937
 C    2.622036   -2.511323    0.444825
 O    2.998295   -2.122414   -0.857654
 C    3.386444   -0.801971   -0.961003
 C    4.665397   -0.476367   -0.497990
 C    5.047234    0.856304   -0.641418
 C    4.219315    1.818793   -1.189344
 C    2.935247    1.475913   -1.631758
 C    2.549659    0.133925   -1.538314
 C    1.983967    2.542703   -2.131352
 C    1.041372    3.121362   -1.047010
 C    0.072951    2.075281   -0.483783
 C   -1.006644    2.637092    0.447553
 C   -0.483303    3.311856    1.715501
 S    0.800899    4.639090    1.371959
 C    1.858649    3.741589    0.092292
 O   -0.748505    5.498055    0.112719
 N   -1.886433    1.461772    0.738949
 C   -3.228479    1.772998    1.260627
 C   -4.121401    0.551200    1.211551
 C   -4.689249    0.145985    0.004457
 C   -5.485574   -0.998079   -0.095817
 C   -5.707973   -1.740666    1.067571
 C   -5.153325   -1.348925    2.281108
 C   -4.364030   -0.208359    2.356348
 C   -6.062906   -1.382425   -1.464007
 C   -6.934160   -2.642428   -1.397719
 C   -4.912208   -1.649709   -2.450783
 C   -6.935517   -0.233103   -1.999784
 O   -0.725124    1.445854   -1.498657
 F    6.283071    1.191178   -0.209648
 N    5.460158   -1.423894    0.127687
 C    2.851445   -4.016345    0.511710
 F    2.720244   -4.467707    1.764747
 F    4.111862   -4.277827    0.113558
 F    2.013572   -4.692991   -0.277165
 H    3.258571   -2.043978    1.202790
 H    4.579621    2.844392   -1.236995
 H    1.577126   -0.206390   -1.884121
 H    1.380114    2.155681   -2.962701
 H    2.567972    3.373655   -2.545563
 H    0.440833    3.913379   -1.517298
 H    0.645441    1.304880    0.067892
 H   -1.598237    3.349619   -0.131423
 H   -1.310192    3.792210    2.250801
 H   -0.037094    2.561429    2.381763
 H    2.418026    2.959605    0.625079
 H    2.581898    4.463075   -0.304879
 H   -0.265004    6.319454   -0.094249
 H   -1.963470    0.984173   -0.192307
 H   -1.395190    0.798915    1.389936
 H   -3.659300    2.581992    0.658270
 H   -3.160736    2.140355    2.290825
 H   -4.505239    0.748855   -0.885910
 H   -6.321789   -2.635416    1.031830
 H   -5.342930   -1.942365    3.172101
 H   -3.926958    0.095185    3.305011
 H   -7.327269   -2.874185   -2.393647
 H   -6.360903   -3.512597   -1.056765
 H   -7.789746   -2.505535   -0.725775
 H   -4.260301   -0.777371   -2.565253
 H   -5.310431   -1.903320   -3.440079
 H   -4.292296   -2.485700   -2.106804
 H   -7.769443   -0.029105   -1.318190
 H   -6.368435    0.695153   -2.120478
 H   -7.351145   -0.498667   -2.978765
 H   -0.151559    0.916887   -2.064391
 H    6.437562   -1.179574    0.193412
 H    5.303939   -2.374529   -0.187521
 H    1.616339    4.305608    2.406169
