73 
4lxa_ligand_dft.xyz
 F   -1.918179    1.083599   -1.124209
 C   -0.786297    1.217402   -0.442833
 F   -0.958041    0.699672    0.775981
 F    0.137750    0.426763   -1.066456
 C   -0.278612    2.673083   -0.399441
 O    0.550915    2.883243    0.710905
 C    1.846891    2.408356    0.601643
 C    2.743805    3.049595   -0.258160
 C    4.025786    2.496573   -0.313765
 C    4.406626    1.387044    0.420619
 C    3.497964    0.775158    1.288949
 C    2.222470    1.333218    1.388288
 C    3.830128   -0.516204    2.007214
 C    3.351567   -1.803227    1.260854
 C    1.868757   -1.689973    0.910303
 C    1.247608   -2.850395    0.130928
 C    1.849033   -3.114708   -1.241983
 S    3.670113   -3.247353   -1.182434
 C    4.248809   -2.006467    0.037283
 O    3.289880   -4.415669    0.353584
 N   -0.189743   -2.422159   -0.036381
 C   -1.219441   -3.432649   -0.463138
 C   -2.472460   -2.678766   -0.814811
 C   -3.222525   -2.076755    0.194839
 C   -4.325137   -1.264829   -0.091165
 C   -4.657001   -1.090585   -1.437991
 C   -3.921363   -1.694010   -2.454622
 C   -2.819776   -2.482727   -2.151397
 C   -5.098888   -0.600721    1.053630
 C   -6.297020    0.213860    0.547098
 C   -4.152798    0.351407    1.810607
 C   -5.622519   -1.683901    2.016024
 O    1.046462   -1.635043    2.071717
 F    4.912459    3.089247   -1.129029
 N    2.352316    4.119614   -1.051428
 C   -1.420593    3.690620   -0.266841
 F   -2.173090    3.694609   -1.368223
 F   -0.903296    4.910247   -0.107609
 F   -2.199507    3.418383    0.782896
 H    0.235011    2.876735   -1.346651
 H    5.423659    1.022416    0.313751
 H    1.462129    0.923838    2.044372
 H    3.400659   -0.504662    3.016776
 H    4.911258   -0.599047    2.160978
 H    3.471141   -2.670184    1.913376
 H    1.725296   -0.778313    0.312309
 H    1.273595   -3.759572    0.731931
 H    1.505327   -4.075454   -1.628842
 H    1.591036   -2.318685   -1.948273
 H    4.390639   -1.071574   -0.508531
 H    5.219845   -2.377431    0.373014
 H    3.906740   -5.152010    0.261088
 H   -0.458236   -2.027571    0.877382
 H   -0.233659   -1.625412   -0.682342
 H   -1.339667   -4.128511    0.370498
 H   -0.817164   -3.975463   -1.320144
 H   -2.946239   -2.250829    1.233773
 H   -5.506806   -0.476711   -1.712348
 H   -4.210023   -1.542770   -3.489732
 H   -2.244563   -2.950993   -2.946196
 H   -6.818041    0.661914    1.398747
 H   -5.986619    1.031050   -0.113138
 H   -7.018676   -0.412686    0.011930
 H   -3.294379   -0.178183    2.237634
 H   -4.687079    0.833168    2.636342
 H   -3.771753    1.135561    1.149463
 H   -6.284239   -2.384010    1.495812
 H   -4.809909   -2.260073    2.471014
 H   -6.189474   -1.219111    2.829483
 H    1.406162   -1.014217    2.714328
 H    3.120848    4.599144   -1.501660
 H    1.723554    4.765875   -0.589543
 H    3.738791   -2.246075   -2.185597
