50 
4lyn_ligand_dft.xyz
 C   -1.858431    2.162531    0.054432
 C   -3.008842    2.508169    0.682829
 C   -0.433114    2.627468    0.103266
 C   -2.587529   -1.775137    0.367301
 C   -0.323833    3.771197    1.119052
 C    0.468907    1.460691    0.539581
 C    0.006539    3.120781   -1.286590
 C   -2.281952   -1.315670    1.613503
 C   -0.250882   -1.814525    0.976933
 N   -4.045976    1.696728    0.248723
 C   -3.490893    0.908256   -0.611964
 O   -2.166596    1.129348   -0.786692
 C   -4.093376   -0.220023   -1.363243
 S   -4.165732   -1.792870   -0.388318
 N   -0.959541   -1.345059    1.965584
 N    1.129195   -1.856804    1.077995
 C    1.986830   -2.154866    0.046235
 O    1.582451   -2.595068   -1.014616
 C    3.451134   -1.828257    0.321671
 C    4.369431   -2.721456   -0.514862
 C    3.668017   -0.346508    0.040370
 C    4.168828    0.502468    1.026967
 C    4.375064    1.854829    0.763193
 C    4.076784    2.372862   -0.493190
 C    3.570792    1.531885   -1.482658
 C    3.366936    0.182840   -1.218153
 S   -1.124447   -2.290221   -0.441495
 H   -3.168962    3.282809    1.417947
 H    0.711106    4.126125    1.164800
 H   -0.961092    4.617028    0.838002
 H   -0.612297    3.438402    2.122040
 H    1.503869    1.802935    0.641416
 H    0.449710    0.660470   -0.206615
 H    0.134164    1.046109    1.495894
 H   -0.085547    2.324552   -2.031933
 H   -0.601023    3.971592   -1.613582
 H    1.056033    3.434441   -1.252804
 H   -3.011523   -0.925152    2.312561
 H   -5.134035    0.009712   -1.600739
 H   -3.540918   -0.393730   -2.288752
 H    1.487073   -1.427965    1.921505
 H    3.651128   -2.007210    1.385695
 H    5.414673   -2.467212   -0.318931
 H    4.169243   -2.587177   -1.580255
 H    4.210843   -3.776684   -0.274044
 H    4.407141    0.102968    2.010176
 H    4.767751    2.502561    1.541316
 H    4.236523    3.426653   -0.700790
 H    3.328661    1.930738   -2.463146
 H    2.955284   -0.466015   -1.986440
