50 
4lyn_ligand_xtb.xyz
 C   -1.749858    2.174987   -0.003366
 C   -2.974215    2.679872    0.318189
 C   -0.342619    2.617924    0.257602
 C   -2.617349   -1.706788    0.464856
 C   -0.339665    3.741131    1.294705
 C    0.466328    1.422492    0.773210
 C    0.269447    3.116426   -1.058206
 C   -2.324266   -1.641626    1.792785
 C   -0.295486   -1.896485    1.039549
 N   -3.942039    1.868745   -0.198193
 C   -3.302612    0.919599   -0.805466
 O   -1.963483    1.045589   -0.725736
 C   -3.880578   -0.253707   -1.482397
 S   -4.205610   -1.596989   -0.253181
 N   -1.012518   -1.749455    2.103780
 N    1.075061   -1.966505    1.061593
 C    1.803893   -2.064328   -0.090307
 O    1.256685   -2.166748   -1.167279
 C    3.303170   -1.947424    0.103441
 C    4.050912   -2.780134   -0.938077
 C    3.618729   -0.470612   -0.023531
 C    4.189234    0.224515    1.033781
 C    4.475791    1.573770    0.913248
 C    4.189086    2.242082   -0.264344
 C    3.612397    1.556101   -1.320438
 C    3.325819    0.208755   -1.200137
 S   -1.155025   -1.945707   -0.468957
 H   -3.234519    3.553721    0.876567
 H    0.683473    4.044908    1.502703
 H   -0.888492    4.604567    0.927834
 H   -0.797606    3.406666    2.222214
 H    1.484582    1.728165    1.002697
 H    0.505214    0.645520    0.013623
 H    0.011246    1.012143    1.672979
 H    0.265917    2.321625   -1.800437
 H   -0.297515    3.959728   -1.446957
 H    1.296947    3.430416   -0.891567
 H   -3.039944   -1.506301    2.581912
 H   -4.854773   -0.019372   -1.903314
 H   -3.201643   -0.648569   -2.236673
 H    1.512588   -1.865512    1.966069
 H    3.571590   -2.287297    1.108446
 H    5.116115   -2.567756   -0.891674
 H    3.686150   -2.549455   -1.934694
 H    3.893315   -3.840257   -0.753323
 H    4.420272   -0.290564    1.955936
 H    4.923095    2.102572    1.742055
 H    4.413190    3.294565   -0.357811
 H    3.383269    2.072492   -2.240633
 H    2.859607   -0.318393   -2.018464
