51 
4lys_ligand_ani.xyz
 O   -0.049779    4.333658    1.054007
 C    0.283450    3.216346    1.423533
 C    1.264395    2.996349    2.557060
 N   -0.214568    2.082317    0.864637
 C   -1.133527    2.132096   -0.266772
 C   -1.920632    0.815113   -0.333147
 C   -3.236264    0.945745    0.019256
 C   -0.457928    2.522434   -1.595667
 C    0.240902    1.387228   -2.354627
 C    1.014765    0.450564   -1.463517
 C    2.408162    0.465594   -1.427838
 C    3.113617   -0.443746   -0.640427
 C    2.414935   -1.415101    0.098287
 C    1.026422   -1.410645    0.084822
 O    0.310587   -2.260870    0.877725
 C    0.537455   -3.656807    0.729867
 O    3.107820   -2.348842    0.828474
 C    3.322416   -1.939991    2.170773
 O    4.464257   -0.477751   -0.514722
 C    5.204332    0.445878   -1.281501
 C    0.304253   -0.439934   -0.646600
 C   -1.200421   -0.421122   -0.609262
 C   -1.778719   -1.613542   -0.934451
 C   -3.217623   -1.842432   -1.225933
 C   -4.145655   -1.487781   -0.072411
 C   -4.328177   -0.006397    0.255521
 O   -5.385854    0.373189    0.719690
 O   -4.746975   -2.323489    0.557124
 H    2.091865    3.700145    2.442310
 H    1.657701    1.976029    2.598325
 H    0.768031    3.219976    3.507080
 H    0.126197    1.178077    1.155876
 H   -1.823694    2.947370   -0.037115
 H   -3.603362    1.950814    0.217433
 H    0.247208    3.326900   -1.357332
 H   -1.231462    2.952868   -2.244672
 H    0.895878    1.814786   -3.120580
 H   -0.524922    0.798827   -2.875045
 H    2.938850    1.196076   -2.030349
 H   -0.379316   -4.145359    1.071000
 H    0.721606   -3.923091   -0.320045
 H    1.384603   -3.990527    1.335587
 H    3.845450   -2.756360    2.674699
 H    2.365317   -1.747586    2.674448
 H    3.944409   -1.037173    2.204388
 H    4.960774    1.479147   -1.002387
 H    5.020934    0.309958   -2.355385
 H    6.255063    0.249124   -1.064410
 H   -1.126208   -2.466652   -1.074552
 H   -3.536462   -1.274438   -2.115982
 H   -3.393877   -2.901387   -1.435937
