54 
4lzr_ligand_xtb.xyz
 O   -1.430109    3.777575   -1.124755
 C   -1.365094    2.620937   -1.484276
 C   -2.386213    1.970748   -2.398979
 N   -0.388604    1.771083   -1.103313
 C    0.705797    2.122078   -0.208707
 C    1.643104    0.938580   -0.054920
 C    2.937102    1.145885   -0.421213
 C    0.210485    2.642299    1.156192
 C   -0.197007    1.539005    2.137835
 C   -1.029579    0.503857    1.446554
 C   -2.398458    0.423379    1.637690
 C   -3.147071   -0.527524    0.962109
 C   -2.523276   -1.406633    0.053972
 C   -1.140247   -1.333265   -0.131038
 O   -0.398453   -2.080867   -0.996819
 C   -0.925241   -3.224484   -1.633933
 O   -3.273102   -2.365758   -0.606994
 C   -4.225343   -1.877307   -1.530187
 O   -4.493978   -0.681979    1.104777
 C   -5.170969    0.132224    2.031437
 C   -0.395407   -0.372030    0.577588
 C    1.076699   -0.291684    0.397026
 C    1.784052   -1.413173    0.749042
 C    3.164411   -1.631276    0.818885
 C    4.220381   -0.884446    0.359747
 C    4.110805    0.301985   -0.505396
 O    5.024038    0.620957   -1.265128
 O    5.421849   -1.399571    0.689919
 C    6.631289   -0.719527    0.411683
 H   -1.897990    1.550250   -3.275029
 H   -3.112201    2.714738   -2.713068
 H   -2.896532    1.174152   -1.860671
 H   -0.392520    0.831958   -1.465473
 H    1.242863    2.957782   -0.677370
 H    3.165325    2.122592   -0.835845
 H    1.006888    3.239233    1.603298
 H   -0.633804    3.302506    0.959608
 H    0.700915    1.065208    2.542712
 H   -0.749589    1.985513    2.965165
 H   -2.868975    1.108599    2.323120
 H   -1.428607   -3.885771   -0.927814
 H   -0.058755   -3.729674   -2.061907
 H   -1.618034   -2.959423   -2.436510
 H   -4.979945   -1.255057   -1.045779
 H   -3.741296   -1.304050   -2.331002
 H   -4.700591   -2.759782   -1.955021
 H   -6.210278   -0.191224    1.998648
 H   -4.781671   -0.004886    3.044644
 H   -5.112022    1.190068    1.756156
 H    1.184451   -2.241445    1.104548
 H    3.467404   -2.549048    1.309605
 H    7.402388   -1.305094    0.911690
 H    6.829220   -0.671085   -0.659563
 H    6.620286    0.295733    0.814380
