35 
4m0e_ligand_xtb.xyz
 C   -4.801385   -1.799454    0.041768
 C   -3.948285   -0.566835    0.009225
 C   -4.534516    0.671351   -0.048019
 C   -3.761490    1.837591   -0.104631
 C   -2.397119    1.772084   -0.083962
 C   -1.738258    0.526635    0.001161
 C   -2.529765   -0.663148    0.027260
 C   -1.881297   -1.914828    0.074069
 C   -0.518923   -2.008695    0.058547
 C    0.269746   -0.847662    0.024746
 C   -0.318093    0.416189    0.028708
 C    0.556375    1.609711    0.125770
 O    0.198612    2.671449    0.585992
 C    2.037634    1.463208   -0.284058
 O    2.689601    2.442752   -0.591133
 C    2.534468    0.121336   -0.199262
 C    1.710262   -0.943685   -0.038173
 O    2.336880   -2.129874   -0.035510
 C    3.742799   -1.893748   -0.194199
 C    3.955079   -0.368677   -0.334161
 C    4.870108    0.218277    0.737202
 H   -4.599593   -2.433566   -0.820671
 H   -5.853676   -1.527540    0.026070
 H   -4.611890   -2.379114    0.944300
 H   -5.611883    0.753898   -0.061951
 H   -4.255036    2.795647   -0.169490
 H   -1.815165    2.676784   -0.128960
 H   -2.471082   -2.816517    0.116442
 H   -0.022083   -2.966233    0.078124
 H    4.071291   -2.452433   -1.074071
 H    4.248985   -2.295692    0.688478
 H    4.356932   -0.111698   -1.318977
 H    4.495249   -0.015918    1.731613
 H    4.905621    1.298665    0.625949
 H    5.877542   -0.178794    0.636403
