72 
4m0f_ligand_dft.xyz
 C    2.170450    0.607646    2.446419
 C    2.217194    0.906560    0.943459
 C    3.048121    2.157165    0.671323
 C    4.542498    1.879449    0.825070
 C    5.017235    0.800180   -0.160316
 C    4.226418   -0.552285    0.073596
 C    2.670240   -0.281994    0.032409
 C    1.784155   -1.493483    0.363182
 C    0.347881   -1.056262    0.346624
 C   -0.010198    0.259381    0.410085
 C   -1.379442    0.657818    0.306725
 C   -2.319288   -0.299682    0.138746
 O   -1.984259   -1.604419    0.100846
 C   -0.669449   -2.063928    0.206938
 O   -0.500130   -3.259088    0.169811
 C   -3.770466   -0.075891    0.005155
 C   -4.657487   -1.137117    0.201325
 C   -6.026346   -0.934288    0.081891
 C   -6.531683    0.332100   -0.238190
 C   -5.640160    1.395307   -0.432822
 C   -4.272258    1.190364   -0.308058
 O   -6.084931    2.625037   -0.824540
 C   -6.860399    3.324403    0.139983
 O   -7.877236    0.536969   -0.370679
 C   -8.392292    0.108963   -1.628088
 O   -6.868418   -2.002610    0.217270
 C   -7.695644   -1.965475    1.373125
 O    0.865747    1.260198    0.573325
 O    2.327169    0.149660   -1.292058
 C    4.646960   -1.440526   -1.113965
 O    3.856777   -2.029646   -1.835655
 C    6.102655   -1.578754   -1.309802
 C    6.957689   -0.665369   -0.842212
 C    6.576168    0.615606   -0.137902
 C    7.204255    0.648244    1.272231
 C    7.249246    1.755565   -0.939453
 C    4.638615   -1.340780    1.336366
 O    4.739155    1.231456   -1.484842
 H    3.162254    0.498154    2.885297
 H    1.681791    1.455511    2.934794
 H    1.592048   -0.289705    2.675337
 H    2.836029    2.512367   -0.340163
 H    2.733268    2.948189    1.359838
 H    5.096357    2.801799    0.625785
 H    4.772090    1.588805    1.855950
 H    1.940581   -2.284959   -0.374685
 H    2.033885   -1.931059    1.334259
 H   -1.632723    1.706177    0.381064
 H   -4.293820   -2.130854    0.433663
 H   -3.617848    2.032125   -0.505833
 H   -7.081230    4.298295   -0.300114
 H   -6.289848    3.465958    1.066722
 H   -7.792717    2.796352    0.358945
 H   -8.231747   -0.965209   -1.766680
 H   -7.919619    0.665936   -2.444923
 H   -9.462280    0.322624   -1.609217
 H   -8.276152   -2.889462    1.360517
 H   -7.084328   -1.933887    2.283725
 H   -8.370152   -1.103847    1.352430
 H    2.459434   -0.635861   -1.851682
 H    6.429953   -2.430850   -1.897579
 H    8.024361   -0.796424   -1.024961
 H    7.121520    1.650906    1.703052
 H    6.758353   -0.057961    1.972912
 H    8.272199    0.414464    1.200916
 H    6.937675    1.744885   -1.983411
 H    6.996944    2.732889   -0.516433
 H    8.338046    1.642136   -0.887004
 H    5.671131   -1.681342    1.266303
 H    4.023695   -2.236600    1.444265
 H    4.539287   -0.754376    2.250521
 H    3.792565    1.066859   -1.654499
