35 
4m0y_ligand_ani.xyz
 C   -4.398137    2.035575    0.835375
 C   -3.049955    2.239182    1.209874
 C   -2.092879    1.314720    0.886267
 C   -2.431758    0.138555    0.153680
 C   -3.790946   -0.088038   -0.170620
 C   -4.757506    0.898588    0.167273
 C   -4.170727   -1.298509   -0.810417
 C   -3.236105   -2.254369   -1.103479
 C   -1.873835   -2.034428   -0.808132
 C   -1.474105   -0.850051   -0.249211
 N   -0.077773   -0.631605   -0.088886
 C    0.645310    0.489113   -0.400656
 C    1.964010    0.181996   -0.182179
 C    1.953893   -1.171869    0.227519
 N    0.717838   -1.663513    0.241021
 C    3.149764   -1.974885    0.570501
 O    4.284647   -1.497019    0.547420
 N    2.893018   -3.256293    0.905340
 N    3.125286    0.930167   -0.323014
 C    3.107489    2.297248   -0.501783
 O    2.082243    2.942721   -0.620157
 N    4.363694    2.867616   -0.491046
 H   -5.144693    2.782517    1.092955
 H   -2.773752    3.137141    1.755194
 H   -1.062455    1.464576    1.192714
 H   -5.794416    0.722796   -0.109665
 H   -5.220460   -1.458085   -1.045927
 H   -3.529392   -3.191729   -1.569177
 H   -1.126887   -2.790492   -1.031808
 H    0.188124    1.394499   -0.770035
 H    3.669804   -3.848432    1.152781
 H    1.948346   -3.610522    0.918971
 H    3.967861    0.423602   -0.058559
 H    4.366134    3.828687   -0.799750
 H    5.155140    2.318241   -0.793775
