42 
4m12_ligand_xtb.xyz
 N    0.549125   -0.814810    0.282243
 N    0.520444    0.397256    0.814487
 C    1.740932    0.906850    0.656074
 C    2.577530   -0.025408   -0.006900
 C    1.773826   -1.122910   -0.225841
 N    3.894876    0.220075   -0.317686
 C    4.740922   -0.692804   -0.894076
 N    6.020009   -0.230550   -1.024167
 O    4.403630   -1.806298   -1.232017
 C    2.146811    2.234996    1.111869
 N    1.176174    2.934329    1.737740
 O    3.274798    2.673036    0.924363
 C   -0.559470   -1.677598    0.307030
 C   -0.336839   -3.017684    0.529925
 C   -1.400187   -3.924071    0.565611
 C   -2.683093   -3.483216    0.389564
 C   -1.878246   -1.187323    0.101844
 C   -2.947821   -2.121113    0.155088
 C   -4.265807   -1.649767   -0.039503
 C   -4.515369   -0.335985   -0.289335
 C   -3.450196    0.591119   -0.369251
 C   -2.158118    0.165964   -0.175460
 O   -3.822056    1.866102   -0.642458
 C   -2.823891    2.861642   -0.758610
 C   -3.518301    4.176380   -1.076704
 H    1.993090   -2.044115   -0.720112
 H    4.212573    1.135179   -0.008776
 H    6.663236   -0.799494   -1.545203
 H    6.242210    0.740079   -0.895896
 H    1.386021    3.834163    2.134784
 H    0.295675    2.487544    1.924037
 H    0.669116   -3.371246    0.696574
 H   -1.196163   -4.968706    0.743501
 H   -3.512529   -4.174044    0.426557
 H   -5.079102   -2.358777    0.011023
 H   -5.517329    0.033877   -0.439934
 H   -1.333412    0.856602   -0.220885
 H   -2.121076    2.597915   -1.560751
 H   -2.263641    2.943458    0.183138
 H   -4.072112    4.087415   -2.007124
 H   -4.215609    4.429555   -0.282744
 H   -2.782436    4.969344   -1.173559
