45 
4m2r_ligand_dft.xyz
 C    4.212232   -0.182528    0.459627
 C   -0.435658    0.243006   -0.976457
 C   -0.382049   -0.958312   -0.312023
 C    0.764377    0.870800   -1.631825
 C    1.826780   -0.177580   -1.971426
 S   -4.240847    0.559383    0.289090
 C    3.508493   -0.018786    1.800109
 C    2.740670    3.805983   -0.055012
 C    2.346853    2.835729   -1.156071
 S   -1.861888   -1.378027    0.448257
 N   -5.168733   -0.456537   -0.627729
 O   -4.431862    0.197330    1.676871
 O   -4.366811    1.911610   -0.215916
 C   -2.574456    0.080390   -0.126969
 C   -1.717148    0.848478   -0.860203
 S    1.022334   -2.046456   -0.297357
 O    1.327645   -2.433174    1.066219
 O    0.812136   -3.052230   -1.318591
 N    2.163914   -0.913059   -0.760122
 N    1.330204    1.863418   -0.642017
 C    3.571147   -1.226060   -0.455064
 O    2.375555    0.839147    1.652195
 C    1.451610    0.732300    2.727686
 H    4.277729    0.794695   -0.037893
 H    5.246648   -0.493237    0.643798
 H    0.476870    1.434053   -2.524628
 H    1.439083   -0.830388   -2.764452
 H    2.736203    0.289208   -2.356717
 H    3.174363   -0.993536    2.175916
 H    4.183909    0.427368    2.540494
 H    3.521359    4.475426   -0.423261
 H    3.124452    3.270677    0.817978
 H    1.893192    4.425854    0.255584
 H    3.206261    2.255766   -1.496559
 H    1.908636    3.343724   -2.019046
 H   -5.627150    0.018074   -1.398924
 H   -5.803480   -1.007331   -0.057825
 H   -2.011664    1.797870   -1.294452
 H    1.741348    1.330025    0.177177
 H    0.549818    2.396698   -0.247728
 H    3.610071   -2.201599    0.036144
 H    4.127901   -1.323379   -1.393189
 H    1.937664    0.975545    3.679088
 H    0.653906    1.455930    2.543035
 H    1.031170   -0.278591    2.774225
