34 
4m3b_ligand_xtb.xyz
 F    6.865809   -1.219354    0.965483
 C    6.186445   -0.442307    0.107268
 F    6.621741    0.808601    0.293970
 F    6.585576   -0.804336   -1.124593
 C    4.689492   -0.579676    0.282389
 C    3.936248    0.329353   -0.702910
 N    2.515453    0.113574   -0.635581
 C    1.690984    0.955235    0.047841
 O    2.102819    1.953542    0.601557
 C    0.253021    0.570090    0.031825
 C   -0.175273   -0.755055    0.044653
 C   -1.522559   -1.054913    0.050063
 C   -0.698051    1.587865    0.043280
 C   -2.043563    1.290662    0.034824
 C   -2.476454   -0.036817    0.035511
 C   -3.905136   -0.315368    0.031038
 N   -4.785761    0.725162   -0.066700
 C   -4.512035   -1.539188    0.119050
 S   -6.220360   -1.388715    0.079128
 C   -6.007775    0.357636   -0.058100
 C   -7.175108    1.262092   -0.147818
 H    4.438957   -0.310407    1.309601
 H    4.434763   -1.628543    0.114253
 H    4.289419    0.145911   -1.721782
 H    4.111824    1.376358   -0.438879
 H    2.132645   -0.695579   -1.095367
 H    0.541630   -1.563588    0.084129
 H   -1.833767   -2.088203    0.065534
 H   -0.356357    2.611713    0.055927
 H   -2.783916    2.074698    0.033053
 H   -4.069858   -2.509788    0.210438
 H   -7.776063    1.195104    0.758295
 H   -6.827556    2.283845   -0.273326
 H   -7.805914    0.986586   -0.991640
