34 
4m3b_ligand_ani.xyz
 F    6.824451    0.113965    1.493068
 C    6.198572   -0.076740    0.319297
 F    6.499067    0.969237   -0.476165
 F    6.734522   -1.175537   -0.249912
 C    4.712891   -0.215690    0.509900
 C    3.967180   -0.387162   -0.815927
 N    2.543837   -0.580380   -0.602306
 C    1.751022    0.485530   -0.303012
 O    2.211066    1.607889   -0.136223
 C    0.280752    0.220557   -0.202605
 C   -0.263491   -1.050603   -0.009435
 C   -1.636123   -1.218884    0.071256
 C   -0.571706    1.322044   -0.284681
 C   -1.942285    1.155915   -0.207763
 C   -2.493294   -0.117572   -0.037275
 C   -3.958574   -0.271027    0.030800
 N   -4.741726    0.867717    0.122003
 C   -4.650255   -1.444604    0.000447
 S   -6.336585   -1.134146    0.096730
 C   -6.000980    0.569372    0.172063
 C   -7.092327    1.591777    0.273259
 H    4.350508    0.679726    1.020713
 H    4.539353   -1.080590    1.155843
 H    4.355149   -1.254363   -1.354850
 H    4.121809    0.503888   -1.431678
 H    2.114500   -1.428626   -0.933742
 H    0.375216   -1.922688    0.112306
 H   -2.032380   -2.219682    0.222487
 H   -0.133211    2.307897   -0.406914
 H   -2.612123    2.007150   -0.273157
 H   -4.266090   -2.450941   -0.090796
 H   -6.860280    2.286821    1.084664
 H   -7.139119    2.171104   -0.655141
 H   -8.061943    1.125699    0.453610
