45 
4m3d_ligand_ani.xyz
 O    5.197417    1.228243   -1.912728
 S    5.215771    0.665249   -0.571843
 O    4.581693    1.334795    0.552652
 C    6.902825    0.355588   -0.115390
 C    7.313109    0.590182    1.193156
 C    8.635778    0.337816    1.540229
 C    9.529226   -0.141700    0.584529
 C    9.103503   -0.369465   -0.722507
 C    7.783382   -0.118805   -1.081814
 N    4.579965   -0.864345   -0.738505
 C    3.809701   -1.472101    0.342729
 C    2.368971   -1.208532    0.271553
 C    1.183781   -0.978013    0.242707
 C   -0.223188   -0.685504    0.236392
 C   -1.152409   -1.640871   -0.200366
 C   -2.510387   -1.360413   -0.177757
 C   -0.686106    0.564443    0.671556
 C   -2.042123    0.843147    0.680704
 C   -2.965205   -0.121374    0.277244
 C   -4.412691    0.250918    0.348199
 O   -4.772609    1.421217    0.349104
 N   -5.303132   -0.776475    0.441067
 C   -6.705607   -0.490328    0.691409
 C   -7.422812   -0.049795   -0.586591
 C   -8.872522    0.274924   -0.347617
 F   -9.557391   -0.792292    0.110339
 F   -9.012698    1.258073    0.564729
 F   -9.472759    0.683980   -1.478053
 H    6.595795    0.967711    1.916659
 H    8.969729    0.517061    2.558415
 H   10.562600   -0.337976    0.859857
 H    9.804196   -0.742196   -1.464578
 H    7.434348   -0.279534   -2.098368
 H    4.179174   -0.966849   -1.665098
 H    4.205094   -1.103823    1.291714
 H    3.998795   -2.547623    0.299392
 H   -0.805174   -2.609204   -0.548434
 H   -3.209094   -2.108156   -0.547723
 H    0.025277    1.315714    1.001144
 H   -2.413649    1.811400    1.002607
 H   -4.954120   -1.698754    0.646950
 H   -6.781465    0.307331    1.436409
 H   -7.176359   -1.389881    1.094626
 H   -7.376247   -0.840367   -1.340627
 H   -6.938803    0.844325   -0.986956
