45 
4m3d_ligand_dft.xyz
 O    5.324400    1.368496   -2.110810
 S    4.985683    0.681778   -0.875028
 O    3.952322    1.197683    0.010573
 C    6.450273    0.439438    0.109586
 C    6.385996    0.641075    1.483599
 C    7.537341    0.453878    2.244919
 C    8.726096    0.076253    1.628663
 C    8.776255   -0.115740    0.247746
 C    7.634822    0.065822   -0.521802
 N    4.664848   -0.896249   -1.356524
 C    3.984212   -1.780756   -0.406434
 C    2.546078   -1.535940   -0.265941
 C    1.366907   -1.289165   -0.191118
 C   -0.010100   -0.912783   -0.085796
 C   -1.026998   -1.874760   -0.102534
 C   -2.355234   -1.486392    0.007182
 C   -0.347012    0.444550    0.024417
 C   -1.676079    0.825166    0.121209
 C   -2.689515   -0.135556    0.130261
 C   -4.104210    0.350807    0.244450
 O   -4.432128    1.477455   -0.099007
 N   -5.008837   -0.535995    0.755401
 C   -6.384376   -0.132914    0.978133
 C   -7.171623   -0.075610   -0.333392
 C   -8.626532    0.253936   -0.113830
 F   -9.234607   -0.674418    0.653719
 F   -8.785077    1.437703    0.503477
 F   -9.297019    0.310442   -1.275265
 H    5.449483    0.947505    1.937113
 H    7.503633    0.608246    3.318666
 H    9.621977   -0.066629    2.225237
 H    9.707777   -0.404174   -0.228684
 H    7.655007   -0.074157   -1.597421
 H    4.228613   -0.864029   -2.274646
 H    4.486394   -1.678328    0.562368
 H    4.164122   -2.807733   -0.740700
 H   -0.769419   -2.923295   -0.210030
 H   -3.131430   -2.245064   -0.043950
 H    0.446010    1.185353    0.028696
 H   -1.952084    1.871956    0.190354
 H   -4.670605   -1.362840    1.220295
 H   -6.403036    0.851708    1.455459
 H   -6.841497   -0.854293    1.659541
 H   -7.121461   -1.037666   -0.851053
 H   -6.740733    0.690214   -0.982280
