41 
4m3f_ligand_ani.xyz
 O   -2.371524    2.051791    0.712142
 S   -2.115796    0.617793    0.722643
 O   -2.575400   -0.235730    1.808589
 N   -2.727420    0.039063   -0.709353
 C   -3.423489   -1.240896   -0.762160
 C   -4.867110   -1.253775   -0.247379
 C   -5.822159   -0.266121   -0.940108
 C   -7.227761   -0.864372   -1.042246
 C   -5.886671    1.081110   -0.212818
 C   -0.370067    0.368999    0.557987
 C    0.211286   -0.780591    1.083426
 C    1.571026   -0.989741    0.913278
 C    2.352372   -0.054327    0.224264
 C    1.748971    1.103297   -0.278954
 C    0.390537    1.319834   -0.116050
 C    3.798289   -0.269603    0.019826
 N    4.588932    0.804830   -0.357244
 C    5.827279    0.452801   -0.493028
 C    6.929390    1.390135   -0.878354
 S    6.129378   -1.235399   -0.198601
 C    4.460179   -1.453961    0.146937
 H   -3.102196    0.784187   -1.287643
 H   -2.828177   -1.961836   -0.198720
 H   -3.403161   -1.550664   -1.812999
 H   -4.862935   -1.079004    0.834685
 H   -5.240746   -2.276824   -0.392319
 H   -5.457907   -0.091309   -1.965419
 H   -7.632232   -1.067864   -0.042241
 H   -7.915035   -0.176879   -1.547642
 H   -7.221973   -1.807534   -1.600290
 H   -6.510603    1.793750   -0.763556
 H   -6.333688    0.950093    0.781866
 H   -4.902967    1.540254   -0.065184
 H   -0.400943   -1.495481    1.624369
 H    2.024183   -1.882873    1.334022
 H    2.368690    1.827490   -0.796410
 H   -0.079339    2.222466   -0.494107
 H    6.526112    2.403680   -0.922896
 H    7.746379    1.357373   -0.150360
 H    7.340941    1.128666   -1.859762
 H    4.060677   -2.428456    0.392551
