45 
4m3m_ligand_dft.xyz
 C   -3.850435   -0.014500   -0.400770
 O   -4.215268    0.906032   -1.089411
 O   -4.661110   -0.724538    0.394379
 C   -2.423738   -0.470831   -0.353822
 C   -2.050093   -1.483910    0.433505
 C   -0.614124   -1.934467    0.542898
 C    0.157547   -1.537892   -0.729430
 N    1.548055   -1.978680   -0.843851
 C    2.569932   -1.970259    0.051210
 O    2.434036   -1.785208    1.264418
 C    3.942364   -2.208983   -0.523270
 C   -0.017983   -0.038355   -1.008981
 C   -1.491922    0.276683   -1.270072
 O    0.473531    0.649137    0.122171
 C    1.066481    1.941921   -0.111888
 C    2.562984    1.745985   -0.347576
 C    0.717324    2.811025    1.088964
 C   -0.787379    2.993619    1.279924
 C    3.306487    3.025173   -0.728656
 N   -0.036445   -1.310104    1.785433
 H   -5.555876   -0.359664    0.294541
 H   -2.780510   -1.990712    1.057322
 H   -0.546739   -3.015739    0.688075
 H   -0.369911   -2.075985   -1.525081
 H    1.825774   -2.155533   -1.798860
 H    4.524437   -2.798672    0.186041
 H    4.437478   -1.238860   -0.638894
 H    3.929549   -2.712175   -1.492969
 H    0.575815    0.225840   -1.893619
 H   -1.664323    1.352566   -1.169163
 H   -1.752515    0.033884   -2.308203
 H    0.600896    2.375265   -1.010299
 H    2.684468    1.005281   -1.150831
 H    2.996399    1.300627    0.556869
 H    1.170432    2.366427    1.985296
 H    1.189955    3.789535    0.956532
 H   -0.997889    3.624390    2.147519
 H   -1.293206    2.033435    1.431734
 H   -1.240400    3.472856    0.404722
 H    3.308928    3.752839    0.087836
 H    4.349482    2.805224   -0.971760
 H    2.853653    3.501973   -1.604994
 H   -0.518059   -1.623748    2.628993
 H    1.010278   -1.535178    1.800708
 H   -0.093568   -0.287013    1.682743
