45 
4m3m_ligand_ani.xyz
 C   -3.326374   -1.343323   -0.402871
 O   -4.060094   -0.505766   -0.881246
 O   -3.813964   -2.426350    0.241618
 C   -1.842995   -1.277164   -0.456625
 C   -1.063699   -2.075997    0.283040
 C    0.436529   -1.929492    0.341382
 C    0.996148   -1.092898   -0.840239
 N    2.396241   -0.703775   -0.658576
 C    3.395860   -1.377407   -0.027086
 O    3.193162   -2.269142    0.793731
 C    4.794591   -0.896575   -0.352161
 C    0.150331    0.170119   -1.061210
 C   -1.293577   -0.225180   -1.388839
 O    0.224260    0.967115    0.129640
 C   -0.178401    2.333005   -0.004924
 C    1.069640    3.201945   -0.178720
 C   -1.004328    2.700704    1.224417
 C   -2.228877    1.806199    1.404286
 C    0.763556    4.678680   -0.421106
 N    0.836257   -1.294356    1.641071
 H   -4.779403   -2.331695    0.200690
 H   -1.496437   -2.849421    0.912193
 H    0.891421   -2.918757    0.311873
 H    0.899474   -1.711609   -1.739336
 H    2.693775    0.045141   -1.265065
 H    5.496309   -1.706794   -0.148650
 H    5.048750   -0.056258    0.304026
 H    4.903814   -0.567954   -1.391283
 H    0.572600    0.740371   -1.904234
 H   -1.960702    0.639897   -1.356196
 H   -1.328525   -0.596015   -2.421617
 H   -0.813868    2.447957   -0.897395
 H    1.647024    2.807615   -1.024977
 H    1.702332    3.079719    0.709451
 H   -0.359928    2.633016    2.111600
 H   -1.318412    3.748450    1.140961
 H   -2.787377    2.085035    2.303430
 H   -1.926723    0.756835    1.498445
 H   -2.913186    1.874724    0.549603
 H    0.292735    5.148309    0.448964
 H    1.681440    5.235155   -0.634113
 H    0.090254    4.806677   -1.276669
 H    0.253715   -1.672303    2.403918
 H    1.834823   -1.542442    1.777593
 H    0.691273   -0.271288    1.523332
