18 
4m3p_ligand_dft.xyz
 N    0.303063    1.615910    0.667660
 C    0.751392    0.200624    0.946281
 C   -0.433972   -0.713720    1.279028
 C   -1.349557   -1.110407    0.117151
 S   -2.224928    0.326788   -0.641678
 C    1.598972   -0.307723   -0.221597
 O    1.773122   -1.470818   -0.442948
 O    2.141093    0.710668   -0.905912
 H   -0.517086    1.573462    0.016378
 H    1.054514    2.159553    0.228619
 H    0.000337    2.090791    1.522705
 H    1.420497    0.256808    1.811490
 H   -1.010953   -0.259255    2.093516
 H   -0.004444   -1.634019    1.686005
 H   -0.780430   -1.628748   -0.655953
 H   -2.105959   -1.802530    0.490656
 H   -2.011545    0.017800   -1.929358
 H    2.717742    0.354710   -1.605121
