18 
4m3p_ligand_ani.xyz
 N    0.346820    1.636722    0.532319
 C    0.740618    0.237961    0.920021
 C   -0.434787   -0.688875    1.235586
 C   -1.322543   -1.084908    0.057611
 S   -2.284342    0.326764   -0.594998
 C    1.634702   -0.321886   -0.178009
 O    1.846980   -1.484123   -0.410108
 O    2.220288    0.686537   -0.864021
 H   -0.587931    1.621284    0.085066
 H    1.044243    1.977853   -0.150289
 H    0.334076    2.256607    1.356809
 H    1.378353    0.300146    1.804630
 H   -1.047991   -0.242884    2.026094
 H   -0.009604   -1.611176    1.642704
 H   -0.710463   -1.490215   -0.749694
 H   -2.020653   -1.857462    0.385790
 H   -3.302007   -0.385393   -1.098978
 H    2.797638    0.272889   -1.526627
