52 
4m3q_ligand_ani.xyz
 C   -4.184579    1.631714    1.670974
 C   -2.990300    1.905940    0.763558
 C   -3.157876    3.156246   -0.094421
 C   -2.044448    3.347326   -1.126224
 N   -0.741056    3.617361   -0.544321
 C    0.243470    2.691505   -0.409851
 N    1.483180    3.180621   -0.210807
 C    2.430491    2.268121   -0.051678
 C    2.236802    0.890410   -0.079536
 C    0.880996    0.496213   -0.322582
 N    0.524595   -0.797396   -0.407312
 C   -0.849955   -1.246249   -0.433061
 C   -1.427729   -1.421393    0.981657
 C   -2.858763   -1.962210    0.939315
 C   -2.943879   -3.270132    0.162158
 O   -4.306220   -3.664764    0.137911
 C   -2.377233   -3.096032   -1.248846
 C   -0.945601   -2.561039   -1.209828
 N   -0.096096    1.404406   -0.469156
 C    3.355326   -0.064232    0.133765
 C    4.539750    0.340673    0.768183
 C    5.596593   -0.551813    0.886931
 C    5.462353   -1.835826    0.375788
 C    4.246247   -2.168688   -0.206855
 N    3.214036   -1.335317   -0.298317
 H   -4.344407    2.453192    2.379132
 H   -5.105581    1.505584    1.088705
 H   -4.031278    0.716034    2.253446
 H   -2.832717    1.045011    0.097840
 H   -2.079406    1.995450    1.368185
 H   -3.217809    4.046331    0.546339
 H   -4.111570    3.095470   -0.638038
 H   -2.301583    4.188644   -1.779244
 H   -1.968185    2.450954   -1.751420
 H   -0.388458    4.561373   -0.571127
 H    3.432208    2.677743    0.090437
 H    1.278915   -1.475192   -0.383288
 H   -1.433045   -0.476627   -0.954986
 H   -1.389478   -0.460616    1.512381
 H   -0.784552   -2.118206    1.540029
 H   -3.518751   -1.232603    0.445770
 H   -3.251650   -2.115853    1.951003
 H   -2.338678   -4.028081    0.690301
 H   -4.357253   -4.502277   -0.339665
 H   -3.026396   -2.397768   -1.795851
 H   -2.411714   -4.052139   -1.788255
 H   -0.292369   -3.298233   -0.715524
 H   -0.553629   -2.416462   -2.223461
 H    4.639697    1.334909    1.191657
 H    6.519986   -0.238419    1.368258
 H    6.265770   -2.562468    0.434514
 H    4.089103   -3.168579   -0.607703
