38 
4m4q_ligand_ani.xyz
 O    9.240796   19.669331   -8.646067
 C    9.675498   20.482503   -9.645242
 C    9.611569   21.863174   -9.380898
 O    9.118328   22.322901   -8.207082
 C   10.095131   22.699046  -10.354113
 C   10.618038   22.163976  -11.545106
 C   11.304803   23.110572  -12.467102
 C   12.613531   22.885269  -12.911600
 C   13.240136   23.787665  -13.751845
 C   12.578294   24.946117  -14.165950
 C   13.283478   25.866374  -15.063082
 N   12.792956   26.985184  -15.633418
 N   13.748862   27.547416  -16.386256
 N   14.780993   26.793873  -16.271811
 N   14.533009   25.743283  -15.463392
 C   11.280867   25.190184  -13.710585
 C   10.662553   24.287761  -12.862044
 C   10.500199   20.779012  -11.755581
 N   10.101536   19.959095  -10.759598
 C   10.759306   20.095693  -13.044642
 C   10.547909   20.718283  -14.279802
 C   10.785685   20.038498  -15.466081
 C   11.231734   18.728153  -15.406644
 F   11.470162   18.069498  -16.552931
 C   11.431483   18.073610  -14.202238
 C   11.177903   18.761060  -13.025570
 H    8.863507   21.551694   -7.677778
 H   10.114135   23.773780  -10.189605
 H   13.138017   21.982292  -12.606172
 H   14.252597   23.610826  -14.101622
 H   11.880038   27.411603  -15.593070
 H   10.744363   26.091444  -13.995713
 H    9.653137   24.497352  -12.512158
 H   10.203040   21.748219  -14.320132
 H   10.635935   20.507731  -16.432790
 H   11.769477   17.041852  -14.198144
 H   11.300524   18.262814  -12.068424
 H    9.334473   18.757864   -8.962712
