35 
4m5i_ligand_ani.xyz
 O   53.328308    7.609821   33.786965
 C   53.878173    7.806672   32.721729
 N   53.876026    6.827244   31.707002
 C   54.437574    6.982815   30.457406
 N   54.265409    5.927572   29.593866
 N   55.053543    8.053665   30.053437
 C   55.126489    9.042978   30.986740
 C   54.593601    8.959033   32.260569
 N   54.889694   10.157101   32.874633
 N   55.724764   10.261467   30.804226
 C   55.562458   10.890276   31.940747
 S   56.170225   12.531764   32.128731
 C   56.192166   12.706607   33.940819
 C   54.820987   12.986927   34.522740
 O   54.120022   12.053614   34.894197
 C   54.325475   14.380632   34.651797
 C   53.213776   14.613091   35.465225
 C   52.720962   15.898355   35.627138
 C   53.315526   16.984880   34.974334
 C   52.773552   18.378663   35.157570
 C   54.414467   16.740885   34.149855
 C   54.915986   15.455241   33.985241
 H   53.329573    6.001245   31.925231
 H   54.823198    6.024694   28.755671
 H   54.298683    5.000426   29.992592
 H   54.504218   10.511185   33.748373
 H   56.585652   11.787275   34.380401
 H   56.896092   13.514635   34.153621
 H   52.749764   13.769887   35.966949
 H   51.858271   16.067900   36.268866
 H   51.727165   18.442579   34.837331
 H   52.810564   18.683874   36.209717
 H   53.345112   19.108905   34.577862
 H   54.889371   17.569005   33.628066
 H   55.759151   15.287089   33.318355
