36 
4m5j_ligand_dft.xyz
 C    9.909270    2.319660   25.498215
 O    9.721115    3.438167   25.927738
 N    7.725184    1.036949   25.796053
 S    5.901668   -0.996284   25.847068
 C    5.248499   -4.456463   20.286387
 C    4.094352   -3.848156   19.780398
 C    3.524201   -2.763184   20.460024
 C    4.096132   -2.298815   21.628573
 C    3.983917   -5.317018   17.919544
 N    8.500882   -0.888707   24.957009
 C    9.038976    1.175426   25.416500
 O    6.969562   -2.953381   23.761479
 N   10.766131   -0.265691   24.369830
 C    7.435343   -0.204432   25.504339
 O    3.459947   -4.228278   18.653336
 C    9.533457   -0.010006   24.882375
 N   11.191001    1.978783   24.966186
 C   11.560192    0.766428   24.448187
 N   12.866404    0.649867   24.037321
 C    5.271421   -1.297622   24.170212
 C    5.925630   -2.440956   23.394252
 C    5.253486   -2.898511   22.150156
 C    5.814143   -3.974926   21.457914
 H    5.709160   -5.295985   19.779406
 H    2.632285   -2.304682   20.047268
 H    3.633736   -1.453500   22.128175
 H    3.321302   -5.445398   17.063664
 H    4.999989   -5.106941   17.564218
 H    3.987791   -6.236453   18.517338
 H    8.447176   -1.842815   24.618155
 H   11.879038    2.713935   25.067072
 H   13.039427   -0.207097   23.530855
 H   13.298270    1.464049   23.624647
 H    5.339900   -0.376484   23.579971
 H    4.205215   -1.510010   24.300122
 H    6.710797   -4.435468   21.859012
