14 
4m5m_ligand_dft.xyz
 C   -1.211379   -0.686407    0.000312
 C   -0.518487    0.647096    0.000037
 C    0.949226    0.680078    0.000359
 C   -2.635172    0.795415   -0.000827
 N    1.574640   -0.508591   -0.000093
 N    1.433574   -2.884731   -0.000329
 N   -0.512660   -1.762278    0.000321
 C    0.955465   -1.694505   -0.000131
 N   -2.564858   -0.515597    0.000313
 N   -1.443606    1.552747   -0.000029
 S    1.713249    2.161680    0.000015
 H   -3.588515    1.312854    0.000024
 H    2.452031   -2.825184   -0.000453
 H   -0.923049   -2.695462    0.000412
