14 
4m5n_ligand_dft.xyz
 C   -1.279604    0.419645   -0.000216
 C   -0.720084   -0.963438    0.000340
 N    0.550882   -1.137172    0.000578
 C    1.498020    0.020751    0.000101
 N    1.014467    1.222996   -0.000120
 C   -0.331772    1.540489   -0.000091
 N   -2.566336    0.324090   -0.000218
 C   -2.777138   -1.084049   -0.000361
 N   -1.741202   -1.880033    0.000025
 N   -0.805441    2.732709    0.000368
 S    3.082776   -0.518667   -0.000239
 H    0.981203   -2.062287    0.000920
 H   -3.793015   -1.463421   -0.000184
 H   -0.015727    3.385862    0.000014
