20 
4m5r_ligand_xtb.xyz
 C   -0.658731    1.179509   -0.258205
 C   -2.037227    1.188551   -0.248777
 C   -2.744812    0.014766   -0.001089
 O   -4.100900    0.069292   -0.003262
 C   -2.048340   -1.164474    0.237539
 C   -0.666762   -1.171972    0.234259
 C    0.039893   -0.000675   -0.014143
 N    1.440780   -0.004003   -0.012407
 C    2.264830   -1.023819   -0.414747
 C    3.539040   -0.579538   -0.222765
 N    3.521291    0.676654    0.297732
 C    2.265018    0.995004    0.407043
 H   -0.117633    2.089123   -0.467609
 H   -2.588277    2.095660   -0.437014
 H   -4.468556   -0.803253    0.182040
 H   -2.589975   -2.080316    0.433153
 H   -0.136210   -2.089131    0.438853
 H    1.887211   -1.938486   -0.822135
 H    4.464673   -1.080702   -0.422429
 H    1.904027    1.920090    0.809259
