44 
4m6p_ligand_ani.xyz
 C   17.756735    3.521188   -3.661372
 C   17.367692    3.020770   -2.420901
 C   16.286122    3.581141   -1.751584
 C   15.611073    4.646415   -2.334796
 C   15.978584    5.147528   -3.577553
 C   17.061407    4.580804   -4.239511
 S   14.264611    5.409503   -1.453291
 O   13.738743    4.423409   -0.515609
 O   13.419538    6.078504   -2.436381
 C   15.080339    6.671390   -0.501405
 C   15.253477    7.934408   -1.050814
 C   15.933427    8.897383   -0.316304
 C   16.432637    8.610111    0.954610
 C   16.223959    7.339473    1.495354
 C   15.550214    6.368025    0.770706
 C   17.189871    9.662846    1.743019
 N   16.687243    9.828737    3.094533
 C   15.557544   10.556336    3.315434
 O   14.947256   11.113260    2.415120
 C   15.123008   10.641892    4.741375
 C   15.470619    9.720517    5.709185
 C   14.987051    9.954783    7.008922
 C   15.075968    9.347060    8.259064
 N   14.368342   10.124960    9.090097
 N   13.805846   11.200096    8.533439
 C   14.175270   11.112313    7.254176
 N   13.821541   12.004505    6.289256
 C   14.285819   11.743418    5.090794
 H   18.603511    3.080468   -4.182050
 H   17.907076    2.189271   -1.975619
 H   15.950560    3.193529   -0.793990
 H   15.407358    5.959480   -4.018314
 H   17.362244    4.964287   -5.210615
 H   14.844055    8.157735   -2.031208
 H   16.073162    9.893305   -0.732199
 H   16.593888    7.113056    2.492217
 H   15.368161    5.382136    1.187803
 H   18.249373    9.397688    1.817508
 H   17.119051   10.618854    1.217040
 H   17.284717    9.610472    3.874760
 H   16.050969    8.831836    5.478890
 H   15.575808    8.449718    8.596989
 H   14.223948    9.975539   10.077589
 H   14.008183   12.432851    4.295637
