35 
4m7b_ligand_ani.xyz
 C   -3.473611    3.406535   -0.138407
 C   -3.327577    1.906238   -0.078823
 C   -2.013775    1.329975   -0.023135
 N   -4.441441    1.221254   -0.082118
 N   -4.271555   -0.119014   -0.025259
 C   -5.221656   -1.094542   -0.013341
 N   -4.651624   -2.271824    0.050176
 N   -3.299858   -2.098578    0.081700
 C   -3.091411   -0.799352    0.035927
 C   -1.877986   -0.033039    0.036856
 N   -0.731770   -0.744136    0.096626
 C    0.589803   -0.160015    0.063912
 C    1.646628   -1.265708    0.071001
 C    3.055274   -0.729959    0.032938
 C    3.786989   -0.691638   -1.155711
 C    5.069402   -0.161373   -1.200591
 C    5.648939    0.344998   -0.037755
 O    6.910364    0.851313   -0.133906
 C    4.934753    0.318525    1.159719
 C    3.648840   -0.211289    1.182882
 H   -3.026507    3.876649    0.744886
 H   -2.965796    3.813137   -1.020266
 H   -4.534436    3.658669   -0.183671
 H   -1.145694    1.984308   -0.028927
 H   -6.277604   -0.875773   -0.052758
 H   -0.861052   -1.746725    0.138457
 H    0.733863    0.504458    0.928995
 H    0.705024    0.464556   -0.833159
 H    1.468460   -1.922657   -0.789483
 H    1.500644   -1.871781    0.974957
 H    3.344801   -1.089317   -2.067361
 H    5.637840   -0.133908   -2.125931
 H    7.190972    1.165798    0.734666
 H    5.380950    0.712800    2.071870
 H    3.091683   -0.220779    2.118253
