91 
4m7j_ligand_ani.xyz
 C    1.366499    1.404470   -1.694201
 O    1.059074    0.395284   -2.504968
 O    2.462111    1.919093   -1.661170
 C    0.149880    1.954935   -0.904257
 C   -0.912917    0.895741   -0.660362
 C   -2.066731    1.509551    0.134210
 O   -3.051537    0.551547    0.565922
 C   -1.525881    2.124516    1.430559
 O   -1.084365    1.095488    2.302575
 C   -0.371253    3.076337    1.122897
 O    0.634781    2.424663    0.332425
 C    0.279731    3.727493    2.353579
 O    0.766389    5.022426    2.013398
 C    1.500886    3.004424    2.933925
 O    1.218399    1.796376    3.615968
 O   -0.401604    2.997597   -1.671368
 C    0.464142    4.116358   -1.924246
 C   -0.385764    5.351965   -1.972918
 C   -0.257970    6.341043   -1.092467
 C   -4.178910    0.773057   -1.540990
 O   -3.491593    0.587866   -2.673811
 O   -5.021414    1.628690   -1.414282
 C   -3.762891   -0.177369   -0.411212
 C   -5.014940   -0.782478    0.208538
 C   -4.672277   -1.860404    1.238139
 O   -5.820781   -2.524675    1.701940
 C   -3.680336   -2.863305    0.651130
 O   -4.403905   -3.692789   -0.245120
 C   -2.522357   -2.156282   -0.049364
 O   -2.974247   -1.184869   -0.984699
 C   -1.618699   -3.124557   -0.810546
 O   -1.532851   -4.374323   -0.133947
 C   -0.229774   -2.528768   -0.978223
 O    0.194237   -2.183578    0.348098
 C    2.152795   -3.393183    0.716350
 O    2.204822   -3.839478    1.976193
 O    2.460047   -4.081188   -0.226887
 C    1.557961   -1.968667    0.571339
 C    1.701979   -1.084004    1.818064
 C    2.832924   -0.055022    1.698541
 O    3.374323    0.254230    2.962597
 C    3.960049   -0.624344    0.855364
 O    4.404868   -1.838277    1.414813
 C    3.436715   -0.871865   -0.550260
 O    2.102562   -1.374204   -0.581572
 C    4.337943   -1.765050   -1.402125
 O    5.582647   -1.105582   -1.611694
 C    3.728359   -1.971434   -2.780600
 O    3.438770   -0.727494   -3.410662
 H    1.894948    0.066004   -2.921740
 H   -1.262641    0.493334   -1.611947
 H   -0.459882    0.083524   -0.077553
 H   -2.555700    2.295756   -0.447581
 H   -2.335758    2.690576    1.915335
 H   -1.767148    0.407866    2.268464
 H   -0.797080    3.899215    0.532301
 H   -0.479317    3.811638    3.152168
 H    0.006220    5.582898    1.810334
 H    1.965282    3.688351    3.649280
 H    2.225153    2.811050    2.137730
 H    0.347771    1.476761    3.319089
 H    0.993654    3.943031   -2.871448
 H    1.211191    4.214145   -1.122113
 H   -1.148431    5.396060   -2.749042
 H   -0.887560    7.226589   -1.129876
 H    0.477861    6.306163   -0.289649
 H   -3.804446    1.284115   -3.274438
 H   -5.616108   -1.233842   -0.588912
 H   -5.613501    0.006663    0.671901
 H   -4.212306   -1.381897    2.109949
 H   -6.030931   -3.189862    1.027700
 H   -3.283552   -3.477550    1.475400
 H   -3.824390   -4.449447   -0.426801
 H   -1.926840   -1.661460    0.728898
 H   -2.061205   -3.332531   -1.787559
 H   -0.962688   -4.219760    0.635470
 H   -0.239086   -1.636632   -1.617127
 H    0.441114   -3.284073   -1.408609
 H    2.571852   -4.737828    1.923115
 H    1.891706   -1.713035    2.688938
 H    0.754116   -0.558711    1.995122
 H    2.448172    0.855353    1.207906
 H    2.694898    0.778212    3.434251
 H    4.783470    0.109300    0.811139
 H    4.514747   -1.671066    2.363048
 H    3.413120    0.106103   -1.037559
 H    4.470424   -2.736344   -0.917477
 H    6.137489   -1.279594   -0.840609
 H    4.419593   -2.557495   -3.398939
 H    2.786450   -2.518369   -2.699884
 H    4.238503   -0.186574   -3.313838
