48 
4mb9_ligand_ani.xyz
 C    9.218903   -0.436276   -0.178125
 C    7.894547   -1.005290    0.302836
 O    5.185921   -1.553021   -0.103905
 N    4.624269    0.649996    0.159839
 C    3.248450    0.522491    0.070879
 C    1.163530    1.183402    0.014883
 C    0.050045    2.024020    0.011597
 C   -1.217301    1.471708   -0.044758
 C   -1.300929    0.053261   -0.125024
 C    0.934902   -0.192340   -0.066797
 C   -4.983900   -1.853660    0.745752
 C   -6.186856   -2.771345    0.544736
 C   -4.400131   -3.703126   -0.620685
 C   -2.570306    3.440472   -0.857527
 N   -3.634300    4.239846   -0.837386
 N    6.842257   -0.002459    0.202642
 C    5.536497   -0.401665    0.080552
 N    2.495609    1.569251    0.092276
 N   -0.264521   -0.764900   -0.143134
 S    2.465935   -1.043461   -0.058085
 O   -2.531899   -0.462324   -0.207118
 C   -2.646850   -1.882944   -0.313574
 C   -4.123110   -2.202634   -0.472693
 O   -5.687735   -3.950715   -0.073454
 C   -2.431079    2.331794   -0.019508
 C   -4.572085    3.939962    0.059713
 N   -4.555833    2.927184    0.921233
 C   -3.491448    2.125737    0.860532
 H    9.542308    0.395518    0.458604
 H    9.126867   -0.069552   -1.204973
 H   10.003172   -1.199633   -0.152376
 H    7.578982   -1.848075   -0.315987
 H    7.981328   -1.382200    1.332163
 H    4.934851    1.611082    0.209278
 H    0.187442    3.099806    0.082794
 H   -5.258056   -0.795130    0.802272
 H   -4.451372   -2.121333    1.667271
 H   -6.684072   -3.056301    1.477947
 H   -6.933566   -2.293357   -0.106814
 H   -4.377871   -4.042720   -1.663606
 H   -3.649564   -4.284971   -0.062732
 H   -1.800446    3.679426   -1.594173
 H    7.031576    0.893512    0.627727
 H   -2.056460   -2.230604   -1.167941
 H   -2.236258   -2.342420    0.593870
 H   -4.501921   -1.666702   -1.352550
 H   -5.442107    4.593428    0.091916
 H   -3.469721    1.290269    1.557464
