42 
4mbj_ligand_xtb.xyz
 C   16.575692  -23.879815   -0.314097
 C   17.439753  -24.865292    0.244273
 N   17.160454  -26.160861    0.223214
 C   16.029110  -26.498316   -0.348584
 C   15.110525  -25.599659   -0.927427
 C   15.382379  -24.236394   -0.914288
 N   17.208218  -22.688726   -0.094539
 C   18.371919  -22.989227    0.555534
 N   18.542800  -24.253741    0.772372
 N   13.949849  -26.139362   -1.489075
 C   12.946908  -25.479288   -2.128782
 C   11.860304  -26.402958   -2.619810
 O   12.890172  -24.285704   -2.304861
 C   12.127892  -27.505255   -3.417470
 C   11.129910  -28.317800   -3.963042
 C    9.805006  -27.996522   -3.673127
 C    9.503484  -26.908411   -2.876103
 C   10.519532  -26.122682   -2.363352
 F   10.204112  -25.090646   -1.568576
 F   13.418629  -27.821104   -3.697281
 N   11.477541  -29.412049   -4.728377
 S   10.440458  -30.399380   -5.623720
 C    9.911833  -31.589776   -4.362139
 C    9.086474  -32.679457   -5.024395
 C    7.683037  -32.196783   -5.370353
 O    9.336770  -29.627057   -6.102564
 O   11.289197  -31.057888   -6.563983
 H   15.816472  -27.560478   -0.360238
 H   14.703800  -23.519554   -1.345491
 H   16.878567  -21.775960   -0.361780
 H   19.070529  -22.231084    0.852464
 H   13.891524  -27.146630   -1.431411
 H    9.017444  -28.581594   -4.115479
 H    8.479815  -26.654669   -2.653122
 H   12.447779  -29.487218   -4.991339
 H   10.837619  -31.974951   -3.945243
 H    9.352400  -31.042088   -3.609639
 H    9.025365  -33.543725   -4.358076
 H    9.608011  -32.988045   -5.932464
 H    7.138018  -32.973243   -5.900368
 H    7.131544  -31.948740   -4.465590
 H    7.733153  -31.313863   -6.000674
