42 
4mbj_ligand_ani.xyz
 C   16.419707  -24.126640   -0.030279
 C   17.413831  -25.107457    0.141776
 N   17.308285  -26.344927   -0.362016
 C   16.202824  -26.589531   -1.034575
 C   15.156424  -25.657974   -1.252642
 C   15.251216  -24.371307   -0.738993
 N   16.913852  -23.020809    0.629201
 C   18.132020  -23.383068    1.143582
 N   18.468880  -24.612708    0.878542
 N   14.054337  -26.114146   -1.987677
 C   12.964655  -25.384184   -2.395479
 C   11.861914  -26.219259   -3.011432
 O   12.855403  -24.180414   -2.264040
 C   12.076273  -27.337855   -3.809184
 C   11.070645  -28.119786   -4.380186
 C    9.753472  -27.728040   -4.162662
 C    9.485362  -26.612919   -3.378636
 C   10.519846  -25.882343   -2.815916
 F   10.206124  -24.833399   -2.051598
 F   13.353406  -27.732686   -4.082301
 N   11.469636  -29.238498   -5.125803
 S   10.476257  -30.470570   -5.633084
 C    9.974893  -31.243493   -4.097851
 C    9.240297  -32.562530   -4.329264
 C    7.820255  -32.408112   -4.867436
 O    9.308617  -29.878241   -6.266622
 O   11.338633  -31.395099   -6.348045
 H   16.111952  -27.593846   -1.449425
 H   14.471506  -23.637005   -0.896136
 H   16.467714  -22.123016    0.717128
 H   18.730350  -22.682389    1.712834
 H   14.100751  -27.077039   -2.282730
 H    8.936711  -28.273008   -4.616863
 H    8.465330  -26.296257   -3.195311
 H   12.462315  -29.424329   -5.176947
 H   10.898375  -31.402012   -3.533385
 H    9.365324  -30.507088   -3.561853
 H    9.212779  -33.088942   -3.368368
 H    9.844391  -33.173707   -5.010083
 H    7.350269  -33.388800   -4.987407
 H    7.200020  -31.819890   -4.180737
 H    7.819149  -31.902677   -5.837094
