75 
4mc1_ligand_ani.xyz
 C   -4.667737    1.505878    3.143154
 C   -5.668012    0.651719    2.712010
 C   -5.631457    0.042238    1.468370
 C   -4.561726    0.275246    0.599645
 C   -3.543570    1.129234    1.041509
 C   -3.597798    1.741118    2.291300
 C   -4.530554   -0.396062   -0.756330
 C   -3.461029   -1.507554   -0.924010
 C   -2.086429   -0.896400   -1.284225
 N   -1.483164   -0.062320   -0.242347
 S   -2.120606    1.449492    0.022555
 C   -0.784661   -0.727349    0.855461
 C    0.700734   -1.009350    0.607836
 C    1.506235    0.271832    0.296951
 O    0.815051   -1.983281   -0.400902
 C    1.524877    0.620353   -1.202264
 N    2.856844    0.190951    0.850510
 C    3.771837   -0.705117    0.405734
 O    5.008411   -0.386939    0.821997
 O    3.530654   -1.696662   -0.273796
 C    2.137295    1.979111   -1.449989
 C    3.473197    2.097891   -1.837616
 C    4.053319    3.350545   -2.019939
 C    3.298360    4.501704   -1.816241
 C    1.965836    4.393905   -1.428277
 C    1.386696    3.141918   -1.243675
 O   -1.166026    2.189889    0.837541
 O   -2.546978    1.976592   -1.264617
 C   -3.909380   -2.607219   -1.940940
 C   -5.111992   -3.377441   -1.370500
 C   -4.291912   -2.005678   -3.303066
 C   -2.793034   -3.642062   -2.159982
 F   -6.712198    0.408883    3.524028
 C    6.050731   -1.278700    0.358435
 C    6.014926   -2.615488    1.132569
 C    7.403656   -0.674329    0.734160
 O    7.266289   -2.745421    1.783489
 C    7.754312   -1.435509    2.012203
 H   -4.733721    1.967522    4.122328
 H   -6.443130   -0.618462    1.181909
 H   -2.788280    2.401392    2.585991
 H   -5.524413   -0.821175   -0.916123
 H   -4.393266    0.361215   -1.533946
 H   -3.349211   -2.016261    0.048150
 H   -2.164055   -0.273804   -2.181507
 H   -1.345761   -1.672705   -1.482318
 H   -0.890047   -0.119623    1.759114
 H   -1.272700   -1.689942    1.036686
 H    1.111900   -1.401220    1.550209
 H    1.024539    1.092349    0.838133
 H    1.771455   -2.157163   -0.495176
 H    2.082405   -0.158932   -1.730215
 H    0.492952    0.595565   -1.574149
 H    3.252741    1.061209    1.177485
 H    4.063936    1.197126   -1.997457
 H    5.094215    3.428421   -2.324535
 H    3.746477    5.482009   -1.959457
 H    1.372653    5.290136   -1.266395
 H    0.344984    3.064396   -0.929220
 H   -5.985489   -2.742300   -1.193000
 H   -4.851717   -3.865705   -0.423341
 H   -5.421837   -4.160941   -2.071469
 H   -3.452836   -1.467643   -3.763103
 H   -4.586313   -2.802522   -3.996254
 H   -5.135496   -1.310365   -3.226310
 H   -2.399265   -4.015389   -1.205775
 H   -1.957011   -3.237200   -2.740924
 H   -3.183222   -4.499895   -2.718269
 H    5.926202   -1.420056   -0.718261
 H    5.193683   -2.600163    1.859559
 H    5.876490   -3.473353    0.468662
 H    8.140703   -0.890646   -0.045415
 H    7.341650    0.406149    0.872857
 H    7.261840   -0.979568    2.885128
 H    8.827154   -1.504701    2.208741
