75 
4mc2_ligand_xtb.xyz
 C    4.965632   -2.616147   -1.266410
 C    5.914875   -1.608777   -1.250268
 C    5.746679   -0.442369   -0.524582
 C    4.588353   -0.257938    0.221254
 C    3.638233   -1.270361    0.202316
 C    3.811708   -2.430806   -0.525100
 C    4.366224    0.996277    1.008751
 C    3.329786    1.928916    0.339306
 C    1.923820    1.593770    0.870402
 N    1.422572    0.311074    0.430419
 S    2.102032   -1.041858    1.098797
 C    0.953525    0.187536   -0.926014
 C   -0.544267    0.521937   -1.039459
 C   -1.374368   -0.528037   -0.264046
 O   -0.844711    0.601590   -2.400889
 C   -1.634432   -1.794135   -1.096459
 N   -2.624712    0.042537    0.225741
 C   -3.586192    0.561733   -0.560665
 O   -4.723736    0.736573    0.146273
 O   -3.470271    0.875065   -1.726846
 C   -2.441384   -2.776850   -0.298607
 C   -3.800752   -2.939371   -0.528753
 C   -4.542863   -3.821202    0.238566
 C   -3.931007   -4.546964    1.245735
 C   -2.575293   -4.386518    1.483748
 C   -1.833400   -3.505024    0.718319
 O    2.360949   -0.760500    2.480141
 O    1.247862   -2.153512    0.793903
 C    3.685872    3.434187    0.492913
 C    5.005576    3.726910   -0.234699
 C    2.607303    4.303609   -0.170300
 C    3.812332    3.835878    1.963447
 F    7.043598   -1.764491   -1.965938
 C   -5.802061    1.352692   -0.553088
 C   -5.602517    2.882474   -0.670629
 C   -7.082475    1.215540    0.277396
 O   -6.787293    3.482556   -0.208075
 C   -7.298107    2.640424    0.801363
 H    5.134124   -3.510888   -1.843026
 H    6.519566    0.310310   -0.546791
 H    3.034157   -3.177196   -0.495578
 H    4.012315    0.724038    2.003635
 H    5.321884    1.506101    1.112395
 H    3.334216    1.722095   -0.738174
 H    1.933436    1.553060    1.960219
 H    1.198175    2.340393    0.550238
 H    1.110691   -0.841749   -1.248041
 H    1.498424    0.846607   -1.608786
 H   -0.718677    1.497788   -0.551837
 H   -0.795854   -0.799013    0.623042
 H   -1.806952    0.760848   -2.470378
 H   -0.668878   -2.228813   -1.353636
 H   -2.155896   -1.522695   -2.014992
 H   -2.932821   -0.258482    1.137244
 H   -4.280596   -2.375735   -1.317195
 H   -5.599591   -3.942829    0.048331
 H   -4.508906   -5.237406    1.842700
 H   -2.095038   -4.951714    2.269090
 H   -0.777067   -3.370720    0.901691
 H    5.212966    4.793999   -0.207831
 H    4.943937    3.418998   -1.276109
 H    5.850744    3.221851    0.223673
 H    2.975881    5.320285   -0.285700
 H    2.352206    3.923721   -1.157018
 H    1.703723    4.353399    0.430485
 H    4.052674    4.894255    2.035638
 H    4.598525    3.276273    2.461941
 H    2.879808    3.663591    2.493446
 H   -5.883423    0.887267   -1.539715
 H   -4.748335    3.171593   -0.039783
 H   -5.424111    3.215785   -1.692233
 H   -7.912559    0.911264   -0.357141
 H   -6.948150    0.490236    1.075582
 H   -6.742572    2.789903    1.738552
 H   -8.345141    2.899963    0.952966
