75 
4mc2_ligand_ani.xyz
 C    5.224651   -2.556436   -1.352270
 C    6.151266   -1.533574   -1.250864
 C    5.905261   -0.387998   -0.511792
 C    4.691326   -0.228741    0.162556
 C    3.747164   -1.257607    0.047486
 C    4.013650   -2.407828   -0.691371
 C    4.440866    1.031324    0.964250
 C    3.354236    1.972387    0.381298
 C    1.952769    1.520862    0.857301
 N    1.502188    0.252090    0.293807
 S    2.167930   -1.155820    0.863258
 C    0.911952    0.262493   -1.039835
 C   -0.585180    0.593496   -1.034936
 C   -1.409965   -0.415239   -0.204375
 O   -0.972177    0.645773   -2.382285
 C   -1.672681   -1.720105   -0.975666
 N   -2.630190    0.205675    0.303693
 C   -3.669416    0.546029   -0.494086
 O   -4.769572    0.809594    0.230594
 O   -3.636193    0.628183   -1.717074
 C   -2.466853   -2.708885   -0.154145
 C   -3.827530   -2.902197   -0.391271
 C   -4.570256   -3.778750    0.395982
 C   -3.951576   -4.474128    1.430027
 C   -2.593554   -4.290986    1.673359
 C   -1.853022   -3.412169    0.887516
 O    2.371023   -1.000887    2.295103
 O    1.341217   -2.245631    0.356435
 C    3.631144    3.480047    0.679189
 C    4.936601    3.914604   -0.007437
 C    2.516186    4.361497    0.091672
 C    3.733303    3.752951    2.187742
 F    7.330449   -1.656124   -1.885471
 C   -5.937420    1.168377   -0.545940
 C   -5.847675    2.636837   -1.017545
 C   -7.155028    1.153609    0.377935
 O   -6.971209    3.308687   -0.477197
 C   -7.321796    2.634502    0.718073
 H    5.454709   -3.441132   -1.935951
 H    6.666804    0.383584   -0.467952
 H    3.257530   -3.184935   -0.739841
 H    4.178929    0.763050    1.992916
 H    5.394826    1.560184    1.024912
 H    3.377384    1.869798   -0.716414
 H    1.927098    1.421658    1.946919
 H    1.190820    2.256180    0.583966
 H    1.074002   -0.707611   -1.516303
 H    1.416185    1.021450   -1.646574
 H   -0.733406    1.576581   -0.554485
 H   -0.831590   -0.658079    0.693914
 H   -1.936369    0.802640   -2.400237
 H   -0.701675   -2.159867   -1.234378
 H   -2.198110   -1.480041   -1.904082
 H   -2.890267   -0.035791    1.249140
 H   -4.307757   -2.359760   -1.205225
 H   -5.630365   -3.921911    0.200441
 H   -4.527173   -5.160920    2.046378
 H   -2.108098   -4.833401    2.480571
 H   -0.790123   -3.267421    1.079784
 H    5.107008    4.984893    0.155751
 H    4.885791    3.749370   -1.090759
 H    5.818003    3.389617    0.373426
 H    2.810546    5.415827    0.134087
 H    2.321025    4.111043   -0.958881
 H    1.575454    4.272316    0.644420
 H    3.937490    4.815220    2.367147
 H    4.540186    3.178102    2.657132
 H    2.798294    3.508353    2.707736
 H   -6.021826    0.468582   -1.380747
 H   -4.912720    3.082920   -0.655438
 H   -5.879700    2.727227   -2.107053
 H   -8.034318    0.792091   -0.164056
 H   -6.992733    0.520080    1.251314
 H   -6.651659    2.923018    1.542742
 H   -8.344350    2.918982    0.978562
