74 
4mc6_ligand_xtb.xyz
 C    2.957439    3.098735   -0.894675
 C    4.217785    2.602206   -0.607925
 C    4.485721    1.245368   -0.552290
 C    3.464924    0.331000   -0.785790
 C    2.201900    0.832919   -1.071531
 C    1.942498    2.187839   -1.127491
 F    5.220677    3.466282   -0.375339
 C    3.719520   -1.143241   -0.723100
 S    0.839391   -0.307573   -1.286943
 N    0.730625   -1.115234    0.155342
 O    1.125660   -1.272695   -2.305407
 O   -0.355744    0.476832   -1.457782
 C    0.397022   -0.321857    1.316227
 C    1.661827   -2.210339    0.323992
 C    3.125830   -1.793501    0.543185
 C    3.951999   -3.007067    1.023127
 C   -0.717867   -0.955088    2.184778
 C   -2.068734   -1.064840    1.428275
 O   -0.850731   -0.232549    3.375791
 N   -2.303633    0.053826    0.539919
 C   -2.154179   -2.363964    0.613745
 C   -3.393922   -2.385394   -0.235132
 C   -3.323420   -2.082056   -1.588986
 C   -4.468022   -2.070329   -2.367006
 C   -5.696859   -2.360989   -1.799980
 C   -5.775909   -2.664341   -0.451232
 C   -4.631210   -2.675581    0.325215
 C   -2.358018    1.340051    0.998421
 N   -2.352792    2.261320    0.003599
 O   -2.446057    1.615292    2.191743
 C   -2.298765    3.706501    0.211701
 C   -2.234561    4.357157   -1.169782
 C   -3.563208    4.154047    0.948503
 C    4.173688   -4.049166   -0.070852
 C    5.290474   -2.571833    1.620041
 C   -1.054217    4.074650    1.029153
 H    2.788451    4.162585   -0.930326
 H    5.487463    0.913791   -0.326983
 H    0.939719    2.508334   -1.360627
 H    3.282843   -1.614295   -1.604717
 H    4.797139   -1.303627   -0.739875
 H    0.068953    0.656952    0.962393
 H    1.267894   -0.165727    1.964011
 H    1.577383   -2.809896   -0.583348
 H    1.316345   -2.806799    1.171956
 H    3.150742   -1.054990    1.353693
 H    3.376682   -3.479142    1.828029
 H   -0.397840   -1.961843    2.482048
 H   -2.860321   -1.050980    2.189624
 H   -1.424847    0.542371    3.186481
 H   -1.959260   -0.070616   -0.401796
 H   -1.271797   -2.432656   -0.024026
 H   -2.155502   -3.208031    1.306116
 H   -2.364859   -1.858494   -2.037805
 H   -4.399855   -1.834265   -3.418974
 H   -6.590207   -2.352863   -2.407019
 H   -6.732307   -2.893019   -0.003975
 H   -4.696480   -2.913673    1.377217
 H   -2.092582    1.926612   -0.911288
 H   -1.346737    4.030232   -1.708207
 H   -3.112157    4.090596   -1.754094
 H   -2.199819    5.438956   -1.072022
 H   -3.619646    3.651948    1.909467
 H   -3.546225    5.228706    1.108456
 H   -4.445624    3.895757    0.368230
 H    4.684986   -4.913875    0.345872
 H    3.229909   -4.384704   -0.490398
 H    4.787119   -3.651562   -0.874584
 H    5.802137   -3.430892    2.046961
 H    5.942399   -2.138679    0.865546
 H    5.141191   -1.838199    2.408959
 H   -0.995593    5.151524    1.162525
 H   -1.109315    3.602481    2.006042
 H   -0.151588    3.732872    0.525245
