24 
4mcd_ligand_ani.xyz
 C   -4.313229   -0.388858    0.033245
 C   -3.844548    0.592340   -0.835063
 C   -2.501200    0.948553   -0.824455
 C   -0.179060    0.727479    0.052750
 C    0.203884    2.027079    0.162679
 C    2.171635    0.538814    0.060623
 C    0.966148   -0.147105   -0.020852
 C    1.008160   -1.590675   -0.209881
 C    3.442077   -1.284870   -0.133731
 C   -1.603816    0.316191    0.039436
 C   -2.085141   -0.663516    0.911014
 C   -3.429657   -1.012849    0.907862
 S    1.918535    2.243626    0.223659
 O    0.099109   -2.386412   -0.338628
 N    2.338859   -2.059742   -0.248337
 N    3.426071    0.003820    0.019838
 H   -5.364552   -0.665418    0.027681
 H   -4.529205    1.087427   -1.518832
 H   -2.140724    1.713364   -1.509444
 H   -0.449927    2.885897    0.248147
 H    4.395706   -1.810048   -0.179503
 H   -1.399212   -1.159968    1.590342
 H   -3.785596   -1.779703    1.590106
 H    2.418046   -3.062309   -0.380289
