42 
4md6_ligand_xtb.xyz
 C   47.568517   15.825962   44.929783
 C   48.899560   16.196738   44.915727
 C   49.256219   17.504453   44.607072
 O   50.551753   17.915662   44.579258
 C   48.262885   18.432859   44.314071
 C   46.936038   18.050528   44.331013
 C   46.571304   16.744544   44.632830
 C   45.120841   16.338697   44.708806
 C   44.692815   16.283628   46.137436
 N   44.840371   17.345484   46.983160
 C   44.152766   15.264895   46.885737
 O   43.846175   14.025761   46.428991
 C   43.314704   13.166727   47.333489
 C   42.993315   11.889918   46.870045
 C   42.451535   10.958539   47.728158
 C   42.220870   11.280877   49.061546
 C   42.535626   12.538895   49.521800
 C   43.085184   13.503569   48.673692
 C   43.401947   14.843122   49.221175
 O   43.194321   15.121732   50.392874
 C   43.962610   15.725216   48.219887
 C   44.418075   17.054710   48.240826
 C   44.487379   18.030008   49.281536
 S   45.154783   19.613263   48.937157
 C   44.891477   20.116567   50.557993
 C   44.330364   19.136048   51.311678
 C   44.098620   17.948405   50.592229
 H   47.299470   14.808968   45.174687
 H   49.667835   15.470071   45.145494
 H   51.134994   17.179421   44.799549
 H   48.550849   19.444296   44.076561
 H   46.173850   18.780155   44.095605
 H   44.504992   17.057068   44.160153
 H   44.972349   15.350318   44.272406
 H   45.244545   18.228338   46.711692
 H   43.179071   11.658835   45.832591
 H   42.205722    9.973649   47.360005
 H   41.796658   10.546959   49.729345
 H   42.368630   12.821809   50.550320
 H   45.171930   21.110375   50.845742
 H   44.087778   19.256986   52.352222
 H   43.664273   17.057946   51.007659
