42 
4md6_ligand_ani.xyz
 C   47.710959   15.905850   45.053536
 C   49.023637   16.363577   44.982749
 C   49.284233   17.646520   44.503209
 O   50.544700   18.156151   44.411559
 C   48.230586   18.462913   44.093267
 C   46.928236   17.986054   44.166927
 C   46.646724   16.704922   44.641508
 C   45.217281   16.218976   44.771582
 C   44.761654   16.211602   46.193444
 N   44.909134   17.282816   47.029029
 C   44.165819   15.230235   46.951370
 O   43.853629   13.996065   46.489698
 C   43.262446   13.125985   47.368391
 C   42.946005   11.863764   46.865936
 C   42.346847   10.934651   47.700016
 C   42.060680   11.253912   49.031861
 C   42.379587   12.509271   49.518859
 C   42.985341   13.465107   48.695486
 C   43.317327   14.804144   49.243107
 O   43.065629   15.078637   50.409478
 C   43.945741   15.696065   48.263840
 C   44.436972   17.016869   48.286769
 C   44.513583   18.027431   49.320622
 S   45.213436   19.578815   48.975260
 C   44.940954   20.125081   50.580966
 C   44.343101   19.168382   51.348052
 C   44.097934   17.964939   50.625522
 H   47.517934   14.903013   45.430626
 H   49.843996   15.722567   45.303584
 H   51.175235   17.494985   44.723692
 H   48.449695   19.459731   43.722543
 H   46.108371   18.626223   43.843635
 H   44.558806   16.868589   44.176562
 H   45.106862   15.206861   44.365404
 H   45.376057   18.139670   46.767421
 H   43.177924   11.640379   45.829976
 H   42.098015    9.949955   47.313978
 H   41.590618   10.519948   49.680168
 H   42.170685   12.787605   50.546963
 H   45.234757   21.122857   50.878261
 H   44.085571   19.313451   52.391176
 H   43.636301   17.067432   51.015969
