37 
4men_ligand_xtb.xyz
 C    3.587315   -2.700008    1.164767
 C    2.945140   -1.453200    0.646296
 C    1.846769   -1.535916   -0.216883
 N    3.455380   -0.309813    1.053042
 C    2.882278    0.790806    0.608990
 N    1.779567    0.776235   -0.263923
 N    1.444668    2.050985   -0.534537
 C    2.315512    2.754206    0.159243
 N    3.199934    2.047958    0.862706
 C    1.227981   -0.386746   -0.703253
 N    0.207257   -0.397635   -1.594387
 C   -0.260727   -1.667720   -2.101271
 C   -0.758022    0.689443   -1.690945
 C   -1.919274    0.445860   -0.759862
 C   -3.161706    0.054560   -1.235840
 C   -4.201193   -0.209456   -0.360615
 C   -1.738195    0.562845    0.613662
 C   -2.774254    0.293657    1.485272
 C   -4.021951   -0.098151    1.010736
 C   -5.133363   -0.397436    1.969442
 H    2.882497   -3.255831    1.781172
 H    3.895553   -3.340332    0.340553
 H    4.452835   -2.433762    1.762829
 H    1.473496   -2.508222   -0.483565
 H    2.303123    3.825685    0.149329
 H    0.579898   -2.255503   -2.469073
 H   -0.802841   -2.244344   -1.344475
 H   -0.934775   -1.475841   -2.933416
 H   -1.101637    0.741866   -2.727645
 H   -0.253484    1.623280   -1.435190
 H   -3.324729   -0.037138   -2.300828
 H   -5.163443   -0.508572   -0.751195
 H   -0.779767    0.876109    1.001883
 H   -2.617562    0.391158    2.549976
 H   -6.073191   -0.546970    1.444235
 H   -4.907304   -1.300479    2.536541
 H   -5.254160    0.418326    2.680138
