142 
4mex_ligand_ani.xyz
 C    8.067898    0.260039    1.276514
 C    8.085134   -1.120585    0.616964
 C    8.630491   -2.175558    1.580848
 C    6.696976   -1.549006    0.120740
 O    5.851534   -1.628241    1.256968
 C    6.048697   -0.616466   -0.928614
 C    7.013075   -0.162526   -2.033066
 C    4.897845   -1.375376   -1.583143
 O    5.108821   -2.412171   -2.202236
 N    3.662501   -0.801711   -1.500883
 C    2.513719   -1.345617   -2.199985
 C    1.575456   -0.223808   -2.680959
 O    0.401426   -0.460341   -2.966761
 C    1.689498   -2.388636   -1.389460
 O    1.540266   -1.943112   -0.018882
 C    2.163661   -3.821299   -1.585066
 N    2.112192    1.012446   -2.793025
 C    1.282123    2.183135   -3.063301
 C    2.127283    3.413920   -3.418501
 C    2.997714    3.137208   -4.647312
 C    1.216688    4.630176   -3.642898
 C    1.972582    5.943779   -3.836932
 C    0.392393    2.399673   -1.826512
 O    0.793174    3.032649   -0.843617
 N   -0.831604    1.836834   -1.907232
 C   -1.781198    1.868300   -0.813548
 C   -1.286934    1.053236    0.398414
 O   -0.686234    0.003147    0.232749
 C   -3.106342    1.248750   -1.226216
 C   -3.138982   -0.012552   -1.819855
 C   -4.341236   -0.655886   -2.071325
 C   -5.533789   -0.072634   -1.641425
 O   -6.747302   -0.675266   -1.760574
 C   -5.513719    1.209919   -1.092224
 C   -4.307748    1.863794   -0.889101
 C   -1.746278    0.453040    2.688554
 N   -1.665406    1.497927    1.655757
 C   -1.236344    2.837195    2.104759
 C    0.121095    2.679964    2.833840
 O    0.215082    2.672820    4.052196
 C   -2.258050    3.521457    3.017665
 C   -3.621651    3.698981    2.390951
 C   -3.903786    4.821516    1.605888
 C   -5.160685    4.998181    1.036243
 C   -6.153783    4.040449    1.229005
 C   -5.881128    2.910410    1.997939
 C   -4.625441    2.744768    2.573458
 N    1.176089    2.456637    2.004974
 C    2.443694    1.980213    2.515324
 C    3.566301    2.248961    1.485299
 O    3.263449    1.678237    0.213762
 C    4.909752    1.702938    1.925135
 C    2.444701    0.504214    2.951276
 O    3.115284    0.153228    3.912285
 N    1.754477   -0.383380    2.181404
 C    2.035433   -1.799581    2.296094
 C    2.406163   -2.343100    0.922949
 O    3.410613   -2.986835    0.706518
 C    0.899730   -2.573590    2.987600
 O   -0.362917   -2.519015    2.293772
 N   -2.100654   -4.283345   -0.309199
 C   -1.906234   -3.215577    0.640154
 C   -0.577134   -3.437569    1.344836
 O    0.187585   -4.335286    1.074093
 C   -6.830916   -2.094213   -1.602146
 C   -8.292531   -2.434527   -1.840066
 C   -6.285421   -2.553873   -0.237020
 O   -6.641685   -1.715745    0.852663
 C   -7.174543   -3.031271    0.828183
 C   -4.872180   -3.060143   -0.218718
 C   -4.581576   -4.342383   -0.450357
 C   -3.242799   -4.962589   -0.651834
 O   -3.165926   -6.080420   -1.139262
 H    7.729848    1.042287    0.587194
 H    9.070963    0.535186    1.620699
 H    7.400826    0.266204    2.146568
 H    8.751303   -1.085845   -0.257493
 H    9.634626   -1.905815    1.926393
 H    7.973552   -2.260090    2.451751
 H    8.690444   -3.161708    1.105211
 H    6.790524   -2.544170   -0.344602
 H    5.104950   -2.213397    1.049611
 H    5.651350    0.258996   -0.397578
 H    6.499167    0.470598   -2.763425
 H    7.848381    0.417047   -1.628616
 H    7.415870   -1.030371   -2.566982
 H    3.485877   -0.095131   -0.787116
 H    2.885869   -1.845477   -3.103129
 H    0.662701   -2.316696   -1.762927
 H    3.243376   -3.917406   -1.466738
 H    1.903407   -4.120523   -2.606140
 H    1.647635   -4.482341   -0.886413
 H    3.085121    1.139126   -2.550729
 H    0.631913    1.938101   -3.910276
 H    2.780224    3.628042   -2.558167
 H    2.367177    2.905290   -5.515131
 H    3.679586    2.294740   -4.495596
 H    3.610845    4.006267   -4.904346
 H    0.543822    4.733178   -2.784635
 H    0.578092    4.434752   -4.516675
 H    2.573268    5.944974   -4.752728
 H    2.646529    6.132678   -2.993141
 H    1.277062    6.787026   -3.900726
 H   -0.899323    1.035389   -2.525787
 H   -1.946550    2.907335   -0.514744
 H   -2.208457   -0.535120   -2.054666
 H   -4.331079   -1.631119   -2.550426
 H   -6.460683    1.664282   -0.807451
 H   -4.302811    2.853978   -0.436504
 H   -2.607755   -0.196995    2.490141
 H   -1.869867    0.909995    3.674214
 H   -0.840952   -0.166566    2.701798
 H   -1.090546    3.431290    1.196617
 H   -1.845734    4.496805    3.295598
 H   -2.332085    2.949398    3.946038
 H   -3.134324    5.574020    1.442983
 H   -5.365706    5.884060    0.439509
 H   -7.131237    4.169979    0.770547
 H   -6.647476    2.152512    2.143492
 H   -4.415412    1.852898    3.161826
 H    1.041835    2.545417    1.002912
 H    2.689105    2.526007    3.430808
 H    3.635995    3.342710    1.381005
 H    2.607247    2.249788   -0.221059
 H    4.946719    0.611922    1.826965
 H    5.705079    2.129581    1.305714
 H    5.111631    1.961237    2.968666
 H    1.233999   -0.075338    1.365454
 H    2.915214   -1.902382    2.939077
 H    1.182925   -3.619660    3.137985
 H    0.712606   -2.095948    3.952184
 H   -1.266859   -4.839270   -0.460268
 H   -2.704828   -3.176863    1.393486
 H   -1.868989   -2.231175    0.148125
 H   -6.232394   -2.572463   -2.385012
 H   -8.577228   -2.108013   -2.842815
 H   -8.928013   -1.911394   -1.119417
 H   -8.463423   -3.512135   -1.756684
 H   -8.250513   -3.097974    0.669342
 H   -6.774426   -3.704756    1.586185
 H   -4.111137   -2.296087   -0.059531
 H   -5.383419   -5.063008   -0.576678
