142 
4mex_ligand_xtb.xyz
 C    7.646877    0.413644    0.789702
 C    7.126908   -0.965970    1.189678
 C    6.848593   -1.017660    2.694684
 C    5.850958   -1.333931    0.405562
 O    4.844506   -0.354950    0.613805
 C    6.073540   -1.457968   -1.117653
 C    7.277814   -2.326323   -1.472812
 C    4.844051   -2.016923   -1.845123
 O    4.910871   -2.823478   -2.748253
 N    3.669382   -1.460095   -1.457502
 C    2.404840   -1.892573   -1.980866
 C    1.566542   -0.734585   -2.517609
 O    0.436974   -0.903396   -2.949105
 C    1.568158   -2.695828   -0.952353
 O    1.588009   -1.997943    0.309152
 C    1.993635   -4.154595   -0.887748
 N    2.165449    0.465670   -2.505237
 C    1.501430    1.648654   -3.022360
 C    2.519510    2.738685   -3.378590
 C    3.468131    2.212815   -4.454052
 C    1.781771    4.000467   -3.844116
 C    2.713489    5.185683   -4.069385
 C    0.494859    2.059653   -1.945792
 O    0.781813    2.813828   -1.014374
 N   -0.700317    1.489502   -2.063468
 C   -1.734235    1.682622   -1.068528
 C   -1.377948    0.985463    0.258848
 O   -0.975593   -0.168867    0.230928
 C   -3.016534    0.990613   -1.459546
 C   -2.996106   -0.331758   -1.885555
 C   -4.176359   -1.030504   -2.054327
 C   -5.395847   -0.418682   -1.776564
 O   -6.595351   -1.068688   -1.809402
 C   -5.417543    0.934079   -1.445263
 C   -4.237393    1.628354   -1.283951
 C   -1.782010    0.784355    2.615459
 N   -1.675453    1.614013    1.420780
 C   -1.432131    3.023655    1.685015
 C   -0.090858    3.088947    2.464931
 O    0.012130    3.538003    3.584209
 C   -2.548942    3.695330    2.491153
 C   -3.824947    3.832286    1.711618
 C   -3.960632    4.842828    0.766117
 C   -5.141295    4.996204    0.061015
 C   -6.203959    4.137408    0.291345
 C   -6.075099    3.121570    1.222787
 C   -4.892372    2.970845    1.925481
 N    0.906620    2.495621    1.779907
 C    2.264700    2.429702    2.268721
 C    3.210745    3.185576    1.287202
 O    3.310191    2.505399    0.060606
 C    4.604862    3.386604    1.864142
 C    2.734084    0.998478    2.515181
 O    3.815083    0.767632    3.030181
 N    1.892282    0.002040    2.170243
 C    2.215003   -1.367636    2.490125
 C    2.485004   -2.245531    1.251631
 O    3.381140   -3.041190    1.230958
 C    1.118887   -2.022378    3.350840
 O   -0.124292   -2.100299    2.662035
 N   -1.831500   -4.215068    0.326578
 C   -1.671422   -3.073388    1.182521
 C   -0.366981   -3.202035    1.947747
 O    0.349789   -4.164895    1.912753
 C   -6.643354   -2.393512   -1.304751
 C   -8.109561   -2.805692   -1.355553
 C   -6.014513   -2.434192    0.109431
 O   -6.315196   -1.355232    0.953066
 C   -6.824523   -2.604048    1.325112
 C   -4.594105   -2.899204    0.145006
 C   -4.273048   -4.173809   -0.049622
 C   -2.933802   -4.795639   -0.201909
 O   -2.829937   -5.832976   -0.832737
 H    8.046627    0.404630   -0.221099
 H    8.438594    0.726683    1.466044
 H    6.843395    1.145410    0.834656
 H    7.885830   -1.720069    0.968808
 H    7.777793   -0.893910    3.245949
 H    6.169776   -0.227130    3.009972
 H    6.414530   -1.977668    2.967863
 H    5.490088   -2.306515    0.778994
 H    4.814056   -0.121693    1.553592
 H    6.217696   -0.444880   -1.512097
 H    7.229278   -2.580251   -2.528873
 H    8.215337   -1.814059   -1.279601
 H    7.251383   -3.253292   -0.904871
 H    3.694424   -0.896509   -0.611901
 H    2.621322   -2.558611   -2.827827
 H    0.516161   -2.623077   -1.253332
 H    3.075761   -4.246715   -0.862288
 H    1.615313   -4.665966   -1.768897
 H    1.587086   -4.630149    0.001501
 H    3.057680    0.579557   -2.044348
 H    0.947367    1.349380   -3.920900
 H    3.097383    2.980850   -2.481074
 H    2.932990    2.059786   -5.388954
 H    3.910321    1.265635   -4.155783
 H    4.273858    2.919136   -4.627828
 H    1.046432    4.277880   -3.086655
 H    1.240891    3.780708   -4.767764
 H    3.390516    5.003013   -4.898898
 H    3.302402    5.380816   -3.176287
 H    2.133208    6.076166   -4.298385
 H   -0.786070    0.689999   -2.686668
 H   -1.902949    2.754233   -0.941370
 H   -2.058702   -0.841910   -2.051903
 H   -4.137046   -2.058362   -2.379923
 H   -6.367810    1.412632   -1.276115
 H   -4.265520    2.665502   -0.989557
 H   -1.363546   -0.199524    2.415162
 H   -2.835198    0.671808    2.877569
 H   -1.249490    1.235495    3.450121
 H   -1.290472    3.555618    0.741545
 H   -2.180189    4.682193    2.778623
 H   -2.722526    3.133037    3.407645
 H   -3.139136    5.524569    0.593234
 H   -5.234980    5.790842   -0.664860
 H   -7.127614    4.263101   -0.253568
 H   -6.894959    2.443838    1.406258
 H   -4.807611    2.182342    2.658583
 H    0.782638    2.380943    0.777421
 H    2.292229    2.942628    3.238089
 H    2.749435    4.173845    1.123832
 H    2.475261    2.638557   -0.423495
 H    5.047674    2.429151    2.115116
 H    5.226649    3.880004    1.121986
 H    4.554360    4.000771    2.758144
 H    1.026127    0.172968    1.680257
 H    3.138920   -1.349899    3.081260
 H    1.442567   -3.027899    3.639059
 H    0.931573   -1.411789    4.236609
 H   -0.986103   -4.764078    0.204075
 H   -2.490812   -2.993853    1.904551
 H   -1.606222   -2.134517    0.613525
 H   -6.059737   -3.076582   -1.940281
 H   -8.441140   -2.784577   -2.390204
 H   -8.715033   -2.100670   -0.792904
 H   -8.236638   -3.809520   -0.960895
 H   -7.898737   -2.714686    1.267756
 H   -6.358596   -3.058634    2.193608
 H   -3.866237   -2.120059    0.304749
 H   -5.061418   -4.892962   -0.238567
