142 
4mex_ligand_dft.xyz
 C   -7.901438   -0.000974   -1.128984
 C   -7.188442   -1.346149   -1.282989
 C   -6.840587   -1.610073   -2.754161
 C   -5.927429   -1.467122   -0.410334
 O   -4.972255   -0.468996   -0.767008
 C   -6.164627   -1.313372    1.107889
 C   -7.365257   -2.115034    1.609260
 C   -4.925247   -1.706011    1.933247
 O   -4.997212   -2.412558    2.925992
 N   -3.734109   -1.174204    1.507145
 C   -2.489567   -1.577628    2.107078
 C   -1.622281   -0.403719    2.556823
 O   -0.515537   -0.602388    3.059582
 C   -1.680763   -2.546963    1.222241
 O   -1.661168   -1.996326   -0.119268
 C   -2.137374   -3.992233    1.345850
 N   -2.157202    0.829034    2.433729
 C   -1.455870    2.002826    2.926981
 C   -2.419666    3.143964    3.279467
 C   -3.429750    2.664495    4.326597
 C   -1.624531    4.368565    3.759534
 C   -2.496132    5.574500    4.107976
 C   -0.413658    2.364314    1.862775
 O   -0.651048    3.147793    0.926977
 N    0.750335    1.717512    1.974296
 C    1.745960    1.776854    0.925452
 C    1.272344    1.036088   -0.341567
 O    0.716464   -0.050135   -0.229105
 C    3.026579    1.078630    1.339151
 C    3.009469   -0.192083    1.917950
 C    4.201065   -0.859602    2.180829
 C    5.415075   -0.280044    1.808763
 O    6.621730   -0.900367    1.959325
 C    5.437274    0.999820    1.262168
 C    4.248624    1.675858    1.039746
 C    1.658834    0.586257   -2.662432
 N    1.662588    1.541201   -1.558233
 C    1.308741    2.922900   -1.921165
 C   -0.053959    2.854307   -2.657320
 O   -0.177418    3.089727   -3.846066
 C    2.363517    3.629545   -2.774532
 C    3.712023    3.714643   -2.104396
 C    4.010643    4.773192   -1.242265
 C    5.258531    4.866718   -0.631278
 C    6.227481    3.895249   -0.872389
 C    5.936115    2.827262   -1.717201
 C    4.687836    2.740617   -2.325640
 N   -1.056082    2.408051   -1.853511
 C   -2.415050    2.206160   -2.299106
 C   -3.371763    2.900941   -1.291955
 O   -3.159104    2.394094    0.017124
 C   -4.850712    2.784739   -1.611943
 C   -2.761115    0.736266   -2.544618
 O   -3.812829    0.450175   -3.118483
 N   -1.877064   -0.208496   -2.141290
 C   -2.155623   -1.608087   -2.379934
 C   -2.481548   -2.379058   -1.100007
 O   -3.345065   -3.218024   -1.054498
 C   -1.054472   -2.296281   -3.190275
 O    0.214015   -2.270599   -2.524843
 N    1.969793   -4.139599   -0.023586
 C    1.802206   -3.078642   -0.984680
 C    0.482279   -3.287577   -1.699589
 O   -0.236493   -4.244104   -1.534872
 C    6.759650   -2.250970    1.525956
 C    8.234431   -2.565544    1.699156
 C    6.217977   -2.431421    0.087340
 O    6.611442   -1.419634   -0.830396
 C    7.110594   -2.731533   -1.045612
 C    4.787105   -2.872300   -0.010864
 C    4.453830   -4.146268    0.203990
 C    3.109325   -4.761206    0.405445
 O    3.044338   -5.821184    1.011737
 H   -8.206118    0.190873   -0.094856
 H   -8.802419    0.026307   -1.751191
 H   -7.251160    0.821042   -1.444178
 H   -7.867915   -2.145793   -0.964181
 H   -7.753295   -1.683337   -3.354431
 H   -6.238795   -0.800430   -3.184697
 H   -6.284652   -2.547968   -2.868121
 H   -5.489837   -2.460075   -0.588271
 H   -4.797660   -0.469610   -1.723674
 H   -6.333565   -0.243499    1.294989
 H   -7.412317   -2.076954    2.698428
 H   -8.301007   -1.721738    1.204326
 H   -7.277628   -3.168638    1.323997
 H   -3.742930   -0.744952    0.583317
 H   -2.747531   -2.110714    3.028772
 H   -0.632662   -2.472045    1.518912
 H   -3.218111   -4.097775    1.259835
 H   -1.826337   -4.347290    2.334024
 H   -1.661184   -4.615600    0.586034
 H   -3.010475    0.950992    1.900440
 H   -0.926907    1.694644    3.836037
 H   -2.969238    3.424888    2.371472
 H   -2.930532    2.460063    5.281769
 H   -3.937440    1.748500    4.012023
 H   -4.196798    3.423287    4.502028
 H   -0.917443    4.662815    2.976830
 H   -1.027597    4.083192    4.637671
 H   -3.120845    5.387739    4.986620
 H   -3.156962    5.834998    3.273132
 H   -1.874142    6.447912    4.326856
 H    0.757631    0.925881    2.614710
 H    1.967793    2.823592    0.712441
 H    2.067750   -0.687378    2.143034
 H    4.176395   -1.846923    2.629538
 H    6.389865    1.434598    0.982640
 H    4.272419    2.663456    0.590952
 H    2.096022   -0.350316   -2.320877
 H    2.262348    0.988817   -3.477041
 H    0.653085    0.377945   -3.042063
 H    1.157222    3.482538   -0.994289
 H    1.980074    4.632959   -2.986213
 H    2.440257    3.137054   -3.747508
 H    3.263018    5.542807   -1.061771
 H    5.476757    5.701789    0.027874
 H    7.202806    3.969282   -0.400719
 H    6.676079    2.052853   -1.895316
 H    4.471484    1.906010   -2.987077
 H   -0.888007    2.418503   -0.852880
 H   -2.523077    2.692263   -3.273687
 H   -3.078804    3.960549   -1.322076
 H   -2.390825    2.856666    0.396680
 H   -5.197978    1.772662   -1.400957
 H   -5.405490    3.480870   -0.976309
 H   -5.051289    3.016923   -2.661070
 H   -1.068627    0.032943   -1.575686
 H   -3.058523   -1.648485   -2.993063
 H   -1.340045   -3.328960   -3.401784
 H   -0.900444   -1.747001   -4.120068
 H    1.146201   -4.716196    0.109577
 H    2.603408   -3.073063   -1.733468
 H    1.760443   -2.083851   -0.522069
 H    6.174506   -2.915971    2.174486
 H    8.517979   -2.390639    2.739866
 H    8.840673   -1.910664    1.066363
 H    8.441261   -3.610226    1.450388
 H    8.179809   -2.857608   -0.893167
 H    6.694567   -3.257102   -1.903993
 H    4.056786   -2.086691   -0.176154
 H    5.239390   -4.873900    0.398842
