56 
4mf0_ligand_xtb.xyz
 C    9.510712   -0.025421    0.546865
 N    9.213273   -0.958983   -0.552505
 C   10.442322   -1.373510   -1.247403
 C    8.203682   -0.376477   -1.493406
 C    6.868508   -0.250347   -0.812787
 C    6.348148    0.988892   -0.459998
 C    5.129145    1.079903    0.184393
 C    4.401106   -0.065152    0.503491
 C    4.929436   -1.305607    0.142758
 C    6.142664   -1.398637   -0.506504
 C    3.108368   -0.018417    1.200191
 C    2.778416    1.034638    2.216347
 C    2.078627    1.056445    0.888412
 C    0.662110    0.586984    0.858848
 O    0.293780   -0.431110    1.404049
 N   -0.193207    1.395139    0.168659
 C   -1.536820    1.126092    0.044441
 N   -2.333199    1.914884   -0.579815
 C   -3.609005    1.425304   -0.570819
 C   -4.721479    2.028403   -1.150895
 C   -5.942394    1.400252   -1.059858
 C   -6.092852    0.173241   -0.396870
 C   -4.988117   -0.432515    0.191047
 C   -3.759822    0.192524    0.101087
 S   -2.221290   -0.333343    0.736720
 C   -7.410867   -0.466505   -0.317408
 C   -8.294376   -0.464890   -1.396308
 C   -9.524161   -1.084887   -1.265521
 C   -9.831376   -1.694528   -0.057763
 N   -9.007494   -1.698646    0.976139
 C   -7.839405   -1.101988    0.850438
 H    8.584118    0.286021    1.026838
 H   10.152152   -0.500684    1.286233
 H   10.018316    0.853179    0.152209
 H    8.770261   -1.790638   -0.141747
 H   11.151987   -1.798992   -0.540049
 H   10.217135   -2.118797   -2.008053
 H   10.900358   -0.509984   -1.727145
 H    8.126312   -1.042056   -2.356472
 H    8.568881    0.595374   -1.829241
 H    6.892279    1.890209   -0.701934
 H    4.746647    2.055487    0.439485
 H    4.375346   -2.202950    0.370085
 H    6.516864   -2.372276   -0.794009
 H    2.668971   -0.991511    1.386980
 H    2.200813    0.722573    3.072670
 H    3.503270    1.806846    2.423575
 H    2.340274    1.830754    0.179857
 H    0.112800    2.258751   -0.257344
 H   -4.609071    2.973709   -1.656717
 H   -6.813129    1.870739   -1.491059
 H   -5.081830   -1.383743    0.690954
 H   -8.009377   -0.002260   -2.330573
 H  -10.225910   -1.101776   -2.084903
 H  -10.774693   -2.201828    0.092855
 H   -7.213419   -1.113336    1.733601
