21 
4mg5_ligand_ani.xyz
 O   -1.343631    3.378020   -0.395619
 C   -0.887872    2.272439   -0.332430
 C   -1.526144    0.947565   -0.010452
Cl   -3.220258    0.966024    0.326173
 C   -0.559312    0.194393    0.966321
Cl   -0.978213    0.150635    2.644513
 C   -0.647563   -1.106286    0.118480
Cl   -1.883080   -2.244871    0.533279
 C   -0.965352   -0.103537   -1.018046
Cl   -1.958288   -0.574408   -2.365914
 C    0.412984    0.450425   -1.391624
 C    0.506567    1.764016   -0.554061
Cl    1.687131    2.937084   -1.041872
 C    0.833907    0.760333    0.596815
Cl    1.859131    1.300891    1.880182
 C    1.360132   -0.287475   -0.415115
Cl    3.046212   -0.236609   -0.833181
 C    0.759234   -1.634446   -0.085171
Cl    0.854585   -2.747236   -1.454164
Cl    1.439212   -2.318828    1.392000
 H    0.640219    0.475688   -2.460627
