43 
4mg6_ligand_ani.xyz
 C    3.785086    3.382368    1.124628
 C    3.075648    2.672650   -0.025021
 C    1.618370    2.341980    0.294212
 C    0.923528    1.591787   -0.827141
 O   -0.423630    1.333975   -0.389322
 C   -1.207504    0.722480   -1.285715
 O   -0.908980    0.555388   -2.445593
 C   -2.534009    0.331604   -0.705043
 C   -3.650075    0.519475   -1.518873
 C   -4.930068    0.332661   -1.011709
 C   -5.102261   -0.055142    0.314408
 C   -3.993110   -0.303768    1.112951
 C   -2.706529   -0.171737    0.592864
 C   -1.578309   -0.630391    1.466585
 O   -1.599845   -0.593469    2.675403
 O   -0.562583   -1.138715    0.750444
 C    0.601468   -1.507803    1.513544
 C    1.746451   -1.690786    0.551912
 C    1.614894   -2.574419   -0.519088
 C    2.666412   -2.773974   -1.408147
 C    3.861928   -2.079382   -1.245539
 C    3.996757   -1.183944   -0.188147
 C    2.946252   -0.997123    0.706515
 H    3.270710    4.312929    1.391589
 H    3.808222    2.748583    2.019223
 H    4.819272    3.632929    0.866274
 H    3.615391    1.748252   -0.272754
 H    3.111284    3.298781   -0.926972
 H    1.062396    3.265360    0.499453
 H    1.560848    1.734687    1.208423
 H    1.418307    0.634994   -1.035903
 H    0.890653    2.167473   -1.757236
 H   -3.490405    0.828561   -2.547458
 H   -5.795793    0.502054   -1.646596
 H   -6.102701   -0.178428    0.720801
 H   -4.097607   -0.620653    2.145978
 H    0.372288   -2.429856    2.057689
 H    0.812550   -0.723633    2.247916
 H    0.677548   -3.108321   -0.657841
 H    2.549153   -3.473336   -2.233036
 H    4.683752   -2.229924   -1.939889
 H    4.924763   -0.630899   -0.058680
 H    3.060093   -0.296208    1.532387
