28 
4mg9_ligand_ani.xyz
 C    4.587706    1.159828    1.394566
 C    3.428454    0.705058    0.514052
 C    3.485218   -0.792321    0.218708
 C    2.472553   -1.274501   -0.810859
 O    1.118138   -1.117571   -0.356600
 C    0.458764   -0.027047   -0.788070
 O    0.971120    0.852432   -1.445670
 C   -0.960840   -0.015689   -0.357007
 C   -1.731328    1.107239   -0.672630
 C   -3.063121    1.176112   -0.303713
 C   -3.637534    0.105292    0.386481
 O   -4.948625    0.220923    0.723134
 C   -2.877924   -1.023626    0.704072
 C   -1.541862   -1.079914    0.331513
 H    4.586005    0.629079    2.353824
 H    5.552685    0.969560    0.909902
 H    4.524839    2.232095    1.605567
 H    3.433368    1.261380   -0.431673
 H    2.478527    0.946458    1.005106
 H    3.350409   -1.362867    1.147382
 H    4.480573   -1.050326   -0.169009
 H    2.593845   -2.347743   -0.978417
 H    2.591180   -0.739837   -1.757344
 H   -1.256262    1.919724   -1.214927
 H   -3.676565    2.041020   -0.537873
 H   -5.229518   -0.578212    1.186370
 H   -3.330469   -1.856376    1.240728
 H   -0.944193   -1.952804    0.570780
