37 
4mga_ligand_ani.xyz
 C    3.144908   -1.808203    0.834046
 C    2.292665   -0.935953   -0.108486
 C    1.144214   -1.799856   -0.645912
 C    3.200593   -0.503357   -1.270361
 C    1.819047    0.267986    0.740841
 C    0.747029    1.281777    0.253344
 C    1.198679    1.978851   -1.037554
 C    0.660307    2.369575    1.348361
 C   -0.644078    0.648511    0.111089
 C   -1.462575    0.852026   -1.006001
 C   -2.727487    0.288345   -1.106860
 C   -3.222768   -0.503731   -0.073635
 O   -4.465526   -1.038874   -0.221291
 C   -2.437641   -0.708713    1.059025
 C   -1.176862   -0.127881    1.146764
 H    3.990979   -1.243324    1.245906
 H    2.551175   -2.185502    1.675716
 H    3.554061   -2.677133    0.304966
 H    0.480925   -2.132122    0.162243
 H    0.533238   -1.271817   -1.385376
 H    1.549876   -2.693180   -1.135239
 H    2.665004    0.029644   -2.060692
 H    4.015968    0.141543   -0.917882
 H    3.657414   -1.384769   -1.737119
 H    2.717759    0.855810    0.980402
 H    1.474812   -0.130874    1.703598
 H    0.610883    2.886238   -1.215014
 H    2.248321    2.282157   -0.961313
 H    1.092300    1.336487   -1.917929
 H    1.632423    2.859790    1.480248
 H   -0.068287    3.141940    1.077084
 H    0.356655    1.952589    2.315402
 H   -1.116084    1.469226   -1.830598
 H   -3.341262    0.453157   -1.987037
 H   -4.680321   -1.557362    0.564558
 H   -2.810998   -1.316065    1.881827
 H   -0.606819   -0.301707    2.058609
