33 
4mgb_ligand_dft.xyz
 C    0.019158    2.774928    1.246894
 C   -0.019776    2.776530   -1.242950
 O   -4.653930   -1.414616    0.490797
 O    4.654102   -1.413310   -0.492807
Cl   -4.872537    0.611395   -1.594290
Cl   -2.433716   -2.105899    2.393231
Cl    4.871764    0.608420    1.596498
Cl    2.434748   -2.100623   -2.397692
 C   -2.368826    1.159654   -0.710346
 C   -1.284264   -0.038967    1.050445
 C    2.368412    1.158405    0.712686
 C    1.284614   -0.036624   -1.050990
 C   -3.546051   -0.662036    0.389430
 C    3.546153   -0.660967   -0.390362
 C   -3.493807    0.355679   -0.565313
 C   -2.408608   -0.832669    1.189747
 C    3.493488    0.354780    0.566456
 C    2.409034   -0.830009   -1.191462
 C   -1.246292    0.977919    0.093705
 C    1.246202    0.978328   -0.092205
 C   -0.000132    1.868649    0.001387
 H   -0.916808    3.339034    1.298555
 H    0.111974    2.196783    2.171820
 H    0.841968    3.496596    1.202311
 H   -0.112685    2.199558   -2.168601
 H   -0.842703    3.497998   -1.197314
 H    0.916083    3.340862   -1.294044
 H   -4.528311   -2.071383    1.191052
 H    4.528987   -2.068310   -1.194803
 H   -2.394753    1.929832   -1.471626
 H   -0.424869   -0.227854    1.685851
 H    2.394019    1.926966    1.475596
 H    0.425491   -0.224223   -1.687145
