28 
4mgc_ligand_xtb.xyz
 O   -2.623335    2.183836   -0.746387
 C   -2.515379    0.922886   -0.331548
 C   -3.682879    0.182255   -0.165917
 C   -3.631740   -1.125216    0.285775
 O   -4.794721   -1.799789    0.433122
 C   -2.397456   -1.710798    0.588000
 C   -1.239166   -0.994989    0.410725
 C   -1.259824    0.319908   -0.067697
 C   -0.035718    1.087221   -0.282456
 O   -0.050966    2.285503   -0.554018
 C    1.256645    0.352136   -0.208096
 C    1.505119   -0.739648   -1.033428
 C    2.729465   -1.373247   -1.036177
 C    3.740826   -0.918908   -0.193719
 O    4.933449   -1.563389   -0.215923
 C    3.506576    0.165590    0.641373
 C    2.275664    0.810277    0.635127
 O    2.011859    1.846025    1.463668
 H   -1.710841    2.571511   -0.771559
 H   -4.633486    0.640731   -0.382145
 H   -4.622374   -2.691471    0.760827
 H   -2.361757   -2.724887    0.962109
 H   -0.291959   -1.449259    0.657164
 H    0.725440   -1.079134   -1.698601
 H    2.927152   -2.213094   -1.681057
 H    5.551113   -1.146823    0.397259
 H    4.291079    0.518562    1.301688
 H    2.802551    2.091580    1.958845
