43 
4mgv_ligand_ani.xyz
 O    0.138546    1.946071    0.857336
 C    0.527338    1.172377   -0.001673
 C    1.900261    0.502491    0.025492
 C    2.563127    0.460183   -1.365817
 C    3.933077   -0.226262   -1.275414
 C    4.831518    0.553885   -0.305344
 C    4.185185    0.586022    1.087843
 C    2.817282    1.270987    0.993904
 C    3.744086   -1.660733   -0.759785
 C    3.098136   -1.635012    0.633418
 C    4.001430   -0.851619    1.597787
 C    1.731144   -0.941608    0.553905
 N   -0.291070    0.809056   -1.057264
 N   -1.660105    0.892435   -0.812361
 C   -2.310927   -0.314858   -0.668883
 O   -1.773300   -1.382169   -0.919066
 C   -3.731842   -0.219627   -0.204828
 C   -4.458039    0.969281   -0.234908
 C   -5.769496    0.950616    0.224216
 N   -6.376467   -0.142438    0.689929
 C   -5.671941   -1.276452    0.697707
 C   -4.356636   -1.372468    0.257220
 H    2.671213    1.483813   -1.745845
 H    1.930372   -0.084486   -2.079652
 H    4.393316   -0.248757   -2.271156
 H    4.975202    1.578475   -0.672935
 H    5.822904    0.084318   -0.249603
 H    4.827386    1.144903    1.780770
 H    2.331707    1.324308    1.974473
 H    2.925941    2.303000    0.638950
 H    4.715069   -2.172081   -0.711877
 H    3.112303   -2.227860   -1.456104
 H    2.965647   -2.660693    0.999901
 H    3.553701   -0.837530    2.600277
 H    4.978108   -1.346841    1.683972
 H    1.042306   -1.504810   -0.094077
 H    1.270094   -0.898993    1.549610
 H   -0.073216   -0.070621   -1.514706
 H   -1.871642    1.626294   -0.140324
 H   -4.032873    1.885990   -0.633724
 H   -6.361160    1.864851    0.220506
 H   -6.188798   -2.156955    1.075178
 H   -3.818272   -2.314125    0.269030
