65 
4mha_ligand_dft.xyz
 C   -4.242622    1.738330   -4.520749
 C   -4.549919    2.497269   -3.231310
 C   -4.904699    1.566162   -2.073467
 C   -5.201103    2.299114   -0.762789
 N   -4.087833    3.083989   -0.265249
 C   -3.009967    2.562539    0.361281
 N   -2.067276    3.458159    0.741025
 C   -1.010433    2.921695    1.328648
 C   -0.823505    1.561316    1.569397
 C    0.394212    1.000860    2.178117
 O    0.444440   -0.145521    2.640988
 N    1.497353    1.811275    2.215464
 C    2.765394    1.339429    2.744103
 C    3.682997    0.778390    1.676866
 C    3.320186   -0.385631    0.988081
 C    4.139443   -0.899832   -0.004828
 C    5.329897   -0.242168   -0.310991
 C    5.716605    0.905458    0.367094
 C    4.882932    1.411795    1.361256
 S    6.377937   -0.893776   -1.592519
 O    6.232104   -2.340792   -1.607850
 O    7.676300   -0.248327   -1.468066
 N    5.648122   -0.343896   -3.000636
 C   -1.923214    0.727287    1.183390
 N   -1.927502   -0.591771    1.426843
 C   -2.987197   -1.486861    0.999786
 C   -3.002866   -2.730956    1.889828
 C   -4.107148   -3.698854    1.459031
 C   -3.977250   -4.083807   -0.010454
 O   -5.066852   -4.935758   -0.314799
 C   -3.954802   -2.837040   -0.897672
 C   -2.840112   -1.878186   -0.476768
 N   -2.989719    1.243438    0.555605
 H   -3.398567    1.053720   -4.378503
 H   -5.104007    1.141092   -4.841479
 H   -3.986140    2.422095   -5.336379
 H   -5.379148    3.197484   -3.404724
 H   -3.681345    3.105852   -2.949861
 H   -4.082865    0.862742   -1.895225
 H   -5.785765    0.965092   -2.336446
 H   -5.481640    1.574923    0.007967
 H   -6.043279    2.986651   -0.897376
 H   -4.053885    4.078855   -0.419560
 H   -0.259945    3.639967    1.658882
 H    1.531871    2.597822    1.585975
 H    2.528012    0.569141    3.480884
 H    3.255057    2.168495    3.265260
 H    2.392145   -0.885359    1.249207
 H    3.873233   -1.811454   -0.529239
 H    6.659530    1.384642    0.127125
 H    5.178560    2.308595    1.899805
 H    5.519036   -1.121985   -3.640171
 H    6.195391    0.400782   -3.421012
 H   -1.127426   -0.941041    1.946137
 H   -3.937624   -0.953251    1.117137
 H   -3.141838   -2.436845    2.935755
 H   -2.025714   -3.232048    1.824358
 H   -5.091112   -3.233307    1.601902
 H   -4.088832   -4.604496    2.073574
 H   -3.022693   -4.623932   -0.144392
 H   -4.996638   -5.182767   -1.244542
 H   -4.931200   -2.340815   -0.815754
 H   -3.828663   -3.126043   -1.949626
 H   -1.859198   -2.353480   -0.617534
 H   -2.853210   -0.973749   -1.092484
