65 
4mha_ligand_xtb.xyz
 C   -4.953014    5.014484   -1.310533
 C   -4.749730    4.322633    0.031904
 C   -4.927070    2.810304   -0.083711
 C   -4.793738    2.093712    1.264885
 N   -3.468796    2.181674    1.823014
 C   -2.479256    1.320070    1.523909
 N   -1.258267    1.651350    1.979268
 C   -0.302811    0.771224    1.764092
 C   -0.484523   -0.440472    1.106961
 C    0.572497   -1.434434    0.904005
 O    0.480072   -2.365831    0.103445
 N    1.674699   -1.314333    1.686527
 C    2.824409   -2.177074    1.531231
 C    3.973336   -1.455342    0.874698
 C    3.786982   -0.881206   -0.380232
 C    4.818919   -0.195412   -0.994313
 C    6.034364   -0.091832   -0.347898
 C    6.243076   -0.657186    0.892521
 C    5.205663   -1.338998    1.506636
 S    7.352864    0.827851   -1.110590
 O    7.140715    0.898365   -2.526721
 O    8.615671    0.373283   -0.606257
 N    7.065705    2.360777   -0.463702
 C   -1.807278   -0.654373    0.591729
 N   -2.082596   -1.740656   -0.132726
 C   -3.369318   -2.080526   -0.702756
 C   -3.846861   -1.007662   -1.687809
 C   -5.198145   -1.380283   -2.282639
 C   -6.238134   -1.573383   -1.181851
 O   -7.463044   -1.910842   -1.802337
 C   -5.768636   -2.661444   -0.212878
 C   -4.418803   -2.296045    0.393197
 N   -2.778488    0.229143    0.831737
 H   -4.233797    4.648666   -2.039814
 H   -5.953660    4.822710   -1.691683
 H   -4.824051    6.089609   -1.210699
 H   -5.468264    4.716822    0.755067
 H   -3.745992    4.545351    0.400019
 H   -4.179529    2.406840   -0.769221
 H   -5.914344    2.592015   -0.495697
 H   -5.011974    1.032265    1.133568
 H   -5.498227    2.519358    1.984973
 H   -3.172838    3.047137    2.244937
 H    0.671474    1.086414    2.122844
 H    1.764212   -0.532668    2.313026
 H    2.493384   -3.006414    0.896946
 H    3.122942   -2.567561    2.508583
 H    2.830579   -0.984506   -0.870521
 H    4.708262    0.247164   -1.971050
 H    7.214102   -0.563622    1.351306
 H    5.355807   -1.788232    2.477469
 H    6.812731    3.022918   -1.179094
 H    7.851329    2.687415    0.075059
 H   -1.277445   -2.340072   -0.305339
 H   -3.225968   -3.021638   -1.244925
 H   -3.108169   -0.893169   -2.482966
 H   -3.923772   -0.063181   -1.150188
 H   -5.124238   -2.309836   -2.849894
 H   -5.543080   -0.601622   -2.963540
 H   -6.354140   -0.626070   -0.627044
 H   -8.109066   -2.125687   -1.121019
 H   -5.691664   -3.603997   -0.760258
 H   -6.507103   -2.793798    0.583255
 H   -4.504296   -1.375015    0.969986
 H   -4.083712   -3.089221    1.064590
