51 
4mho_ligand_ani.xyz
 C    6.865823    1.307222   -0.522045
 C    8.232409    1.528933   -0.393890
 C    8.995087    0.726887    0.450737
 C    8.382015   -0.302640    1.159546
 C    7.018506   -0.532830    1.016198
 C    6.240155    0.270457    0.176927
 C    4.783598    0.022520    0.031430
 C    4.288818   -1.269406   -0.138785
 C    2.926990   -1.515448   -0.279312
 C    3.863191    1.076987    0.063410
 C    2.502536    0.851475   -0.052304
 C    2.027648   -0.452966   -0.226508
 O    0.673772   -0.594639   -0.322964
 C    0.166382   -1.885346   -0.604852
 C   -1.349467   -1.831820   -0.700648
 O   -1.959736   -2.825316   -1.094125
 N   -1.909434   -0.676265   -0.319720
 C   -3.313741   -0.350107   -0.513189
 O   -3.373579    1.024064   -0.177178
 C   -4.678687    1.604996   -0.241508
 C   -4.496733    3.090888    0.046531
 O   -3.619558    3.675363   -0.886853
 C   -5.609134    0.906432    0.741664
 O   -6.891583    1.479695    0.621334
 C   -5.645554   -0.571974    0.409634
 O   -6.454377   -1.216280    1.369143
 C   -4.251192   -1.175699    0.389543
 O   -4.430120   -2.496151   -0.053069
 H    6.275698    1.932711   -1.188626
 H    8.701345    2.335930   -0.950758
 H   10.062212    0.903152    0.556085
 H    8.968210   -0.935256    1.820994
 H    6.542211   -1.334514    1.576990
 H    4.982939   -2.106196   -0.182743
 H    2.587819   -2.535852   -0.419201
 H    4.224468    2.093493    0.204317
 H    1.795412    1.674950   -0.017121
 H    0.551651   -2.272808   -1.554990
 H    0.429528   -2.597941    0.188016
 H   -1.283715    0.088162   -0.115113
 H   -3.606756   -0.497773   -1.568001
 H   -5.081714    1.491398   -1.262464
 H   -4.132057    3.219536    1.080093
 H   -5.459695    3.600127   -0.037094
 H   -2.817515    3.134460   -0.870517
 H   -5.207189    1.031447    1.762306
 H   -7.482148    0.947642    1.172927
 H   -6.080909   -0.687264   -0.599471
 H   -6.426293   -2.160440    1.156945
 H   -3.837120   -1.146616    1.412964
 H   -3.590786   -2.809757   -0.453280
