53 
4mhs_ligand_xtb.xyz
 C    5.275504    0.118178   -0.368057
 C    6.310081   -0.797906   -0.366320
 C    6.091957   -2.092563    0.074291
 C    4.833154   -2.460292    0.517856
 C    3.796873   -1.544345    0.524343
 C    4.003041   -0.242012    0.074190
 C    2.925920    0.760165    0.084793
 C    2.021125    0.837914    1.141899
 C    1.082649    1.852249    1.197897
 C    2.817571    1.697339   -0.942185
 C    1.876434    2.705859   -0.884602
 C    1.012257    2.816532    0.199776
 C    0.049788    3.968418    0.282508
 C   -1.176694    3.790874   -0.633242
 C   -2.065556    2.702435   -0.081500
 O   -3.029163    2.934400    0.628105
 N   -1.698920    1.452102   -0.429374
 C   -2.203476    0.228184    0.161516
 O   -1.327558   -0.747781   -0.331417
 C   -1.607744   -2.072184    0.096916
 C   -0.495296   -2.953138   -0.475779
 O    0.762926   -2.523570   -0.036196
 C   -2.994769   -2.501173   -0.384450
 O   -3.256885   -3.800834    0.067192
 C   -4.022492   -1.509097    0.163275
 O   -5.289027   -1.864539   -0.331925
 C   -3.670160   -0.062185   -0.218372
 O   -4.586802    0.748711    0.461212
 H    5.460795    1.131922   -0.692855
 H    7.291096   -0.499913   -0.707344
 H    6.899756   -2.809435    0.073325
 H    4.652522   -3.468347    0.860289
 H    2.819953   -1.859107    0.854745
 H    2.081624    0.121041    1.946900
 H    0.411162    1.913285    2.042981
 H    3.480839    1.635905   -1.792375
 H    1.826751    3.436128   -1.680793
 H    0.564795    4.884490   -0.015750
 H   -0.296733    4.093847    1.309920
 H   -0.856787    3.548062   -1.646920
 H   -1.750140    4.718061   -0.646855
 H   -0.854039    1.310204   -0.963304
 H   -2.145061    0.289865    1.266929
 H   -1.579440   -2.119702    1.195863
 H   -0.554166   -2.928576   -1.572364
 H   -0.633417   -3.977153   -0.128852
 H    0.833045   -1.583576   -0.247647
 H   -3.023292   -2.462543   -1.485870
 H   -4.204100   -3.952267   -0.051111
 H   -4.023332   -1.573555    1.265019
 H   -5.888107   -1.139624   -0.112750
 H   -3.774338    0.057485   -1.311084
 H   -4.195890    1.638176    0.601248
