53 
4mhs_ligand_ani.xyz
 C    5.243407    0.109179   -0.406596
 C    6.256517   -0.842433   -0.407758
 C    6.004310   -2.130527    0.054834
 C    4.733595   -2.453313    0.522186
 C    3.723171   -1.497103    0.537427
 C    3.966737   -0.203360    0.067775
 C    2.893562    0.824313    0.100497
 C    2.022752    0.913961    1.191204
 C    1.081724    1.932690    1.273064
 C    2.742618    1.747980   -0.939712
 C    1.787377    2.751667   -0.864264
 C    0.961205    2.885314    0.255828
 C   -0.030662    4.023528    0.334949
 C   -1.249039    3.832962   -0.595203
 C   -2.104442    2.680840   -0.118054
 O   -3.032642    2.863056    0.670116
 N   -1.751367    1.451706   -0.564845
 C   -2.191811    0.225624    0.083245
 O   -1.284444   -0.745861   -0.402341
 C   -1.518517   -2.068126    0.088888
 C   -0.386171   -2.938492   -0.449306
 O    0.857759   -2.410307   -0.050072
 C   -2.899985   -2.547341   -0.342277
 O   -3.109220   -3.832984    0.197493
 C   -3.941709   -1.570645    0.168645
 O   -5.202993   -1.987758   -0.305518
 C   -3.639926   -0.148913   -0.276661
 O   -4.596440    0.657819    0.361314
 H    5.451178    1.119148   -0.754828
 H    7.244160   -0.577224   -0.776080
 H    6.792292   -2.878713    0.050630
 H    4.521588   -3.456210    0.883265
 H    2.729085   -1.778622    0.876002
 H    2.114190    0.196091    2.005216
 H    0.428623    1.993008    2.141705
 H    3.375985    1.673607   -1.820240
 H    1.701009    3.463798   -1.684078
 H    0.467814    4.963200    0.066492
 H   -0.391415    4.140692    1.363402
 H   -0.911878    3.660408   -1.624825
 H   -1.872403    4.730819   -0.582234
 H   -0.860036    1.365847   -1.035510
 H   -2.108762    0.310830    1.182052
 H   -1.469820   -2.061269    1.191715
 H   -0.461521   -3.001415   -1.547748
 H   -0.487530   -3.951496   -0.047838
 H    0.878690   -1.487793   -0.355331
 H   -2.942324   -2.563357   -1.445448
 H   -4.024510   -4.070571   -0.006839
 H   -3.920590   -1.592688    1.273732
 H   -5.840136   -1.326747    0.001780
 H   -3.738028   -0.090203   -1.374669
 H   -4.200521    1.538361    0.533397
