42 
4mhy_ligand_dft.xyz
 C    3.875237   -4.001168   -0.291376
 C    6.246780    0.776905    0.525814
 S   -0.343266    3.939002    0.150738
 C   -6.199557   -2.145371    1.194660
 C    1.467376   -0.542415   -0.263724
 C    2.249302   -1.703982   -0.275200
 C   -5.511871   -0.966991    1.302310
 C   -5.798586   -1.519682   -0.798112
 C    3.466907    0.741024    0.151870
 C   -2.985066    0.374706   -0.253703
 C   -2.186694    1.595340   -0.709640
 C   -4.489574    0.591092   -0.403959
 N   -6.376166   -2.485063   -0.123571
 N   -0.775224    1.326547   -0.586234
 N    1.393929    1.919729    0.017401
 O    4.451743   -2.734651   -0.081474
 O    5.579385   -0.443117    0.312831
 C    0.061935    2.187597   -0.189951
 C    2.074790    0.684237   -0.047268
 C    3.619407   -1.662873   -0.082095
 C    4.237379   -0.409361    0.133474
 N   -5.261882   -0.565226    0.010566
 H    3.144081   -4.247290    0.490328
 H    3.386569   -4.065533   -1.272852
 H    4.697964   -4.716184   -0.252017
 H    6.126474    1.457925   -0.327485
 H    5.895286    1.276257    1.438849
 H    7.302115    0.526141    0.638443
 H    0.388437    4.021123    1.274164
 H   -6.583926   -2.766306    1.991944
 H    0.402722   -0.597882   -0.433499
 H    1.752024   -2.651726   -0.446845
 H   -5.187202   -0.383694    2.151111
 H   -5.739253   -1.447365   -1.876637
 H    3.938122    1.703033    0.326916
 H   -2.746851    0.157594    0.793871
 H   -2.682005   -0.500486   -0.838680
 H   -2.499084    2.482538   -0.136309
 H   -2.413916    1.800574   -1.765704
 H   -4.744174    0.798835   -1.448775
 H   -4.817959    1.455261    0.184318
 H    1.992611    2.729029    0.060453
