42 
4mhz_ligand_xtb.xyz
 C    4.855515   -2.945605   -1.388339
 C    4.590341    0.536492    2.720020
 S   -1.102579    3.587067   -0.570082
 C   -4.959319   -2.969226    0.241424
 C    1.927610    0.088478   -1.513601
 C    2.883539   -0.918495   -1.505636
 C   -4.287651   -2.174064    1.123701
 C   -5.351246   -0.968424   -0.340700
 C    2.735578    0.850689    0.619965
 C   -2.538087    0.517127    0.923572
 C   -2.401189    0.741984   -0.587781
 C   -3.996595    0.302227    1.339285
 N   -5.617485   -2.201808   -0.665590
 N   -1.023484    0.918047   -0.992660
 N    0.970753    2.051877   -0.423469
 O    4.711743   -2.031838   -0.332127
 O    4.574112   -0.366461    1.643468
 C   -0.266856    2.012967   -0.665325
 C    1.841334    0.976607   -0.449392
 C    3.751553   -1.067501   -0.440058
 C    3.676110   -0.158466    0.641499
 N   -4.547589   -0.885355    0.746810
 H    3.947656   -3.541394   -1.535515
 H    5.113656   -2.442573   -2.326682
 H    5.672624   -3.604047   -1.097738
 H    4.800141    1.558071    2.386447
 H    3.644339    0.524230    3.272363
 H    5.392501    0.198354    3.374231
 H   -1.929809    3.357688   -1.591182
 H   -5.013148   -4.038364    0.202073
 H    1.287215    0.207649   -2.375544
 H    2.935262   -1.585575   -2.351425
 H   -3.673173   -2.406006    1.969295
 H   -5.723766   -0.104625   -0.854989
 H    2.655603    1.563891    1.423485
 H   -2.145002    1.388177    1.451482
 H   -1.944757   -0.353689    1.213802
 H   -2.978785    1.623394   -0.876912
 H   -2.793892   -0.118804   -1.135668
 H   -4.602298    1.156274    1.024435
 H   -4.054627    0.216902    2.428889
 H   -0.474503    0.065684   -0.937703
