56 
4mi6_ligand_ani.xyz
 C    2.247229    0.392107    1.033531
 C    2.330904   -0.971410    0.745246
 C    1.178956   -1.867262    1.160873
 C    1.467102   -3.362837    1.011943
 C    2.213889   -3.650111   -0.288946
 C    3.563715   -2.928796   -0.287062
 C    3.436150   -1.452966    0.035722
 C    4.428963   -0.548835   -0.353561
 C    4.319788    0.807331   -0.079093
 C    3.209263    1.304150    0.608493
 C    2.986943    2.785529    0.800590
 C    2.623000    3.517434   -0.507851
 C    1.581276    2.782969   -1.358452
 C    0.295029    2.512255   -0.599523
 O   -0.128407    3.309025    0.239454
 N   -0.336011    1.349772   -0.902583
 C   -1.368767    0.718295   -0.095493
 O   -1.519729   -0.550874   -0.715422
 C   -2.506520   -1.398448   -0.118412
 C   -2.457661   -2.729251   -0.865358
 O   -1.152599   -3.268731   -0.865553
 C   -3.876529   -0.734393   -0.188693
 O   -4.806005   -1.574237    0.457906
 C   -3.805190    0.618995    0.489127
 O   -5.061903    1.243604    0.350205
 C   -2.705523    1.483427   -0.106501
 O   -2.696468    2.651404    0.671590
 H    1.389001    0.760188    1.597455
 H    0.907303   -1.643598    2.201352
 H    0.294865   -1.576580    0.572934
 H    2.094940   -3.691233    1.852867
 H    0.532349   -3.931890    1.066613
 H    1.617989   -3.313161   -1.149125
 H    2.365906   -4.728433   -0.417870
 H    4.071611   -3.054416   -1.251657
 H    4.219940   -3.398242    0.461492
 H    5.298575   -0.918056   -0.894482
 H    5.096384    1.493760   -0.415190
 H    3.878911    3.254638    1.235832
 H    2.171914    2.925918    1.518026
 H    3.526304    3.656996   -1.114501
 H    2.246486    4.515291   -0.259947
 H    1.990688    1.833544   -1.725033
 H    1.330204    3.384539   -2.242433
 H    0.151984    0.691123   -1.492377
 H   -1.032589    0.588949    0.951371
 H   -2.246757   -1.568277    0.941888
 H   -3.120524   -3.446448   -0.375632
 H   -2.820169   -2.582860   -1.895313
 H   -0.570687   -2.541552   -1.132047
 H   -4.142159   -0.583219   -1.249537
 H   -5.640918   -1.086261    0.489469
 H   -3.571213    0.458253    1.557634
 H   -4.970353    2.125421    0.739262
 H   -2.953814    1.702273   -1.160291
 H   -1.815314    3.074306    0.582398
