43 
4mjp_ligand_xtb.xyz
 C   -1.017822   -1.581770   -0.389931
 C    0.373762   -1.462887   -0.332307
 C    0.996801   -0.242488   -0.351773
 C    2.501310   -0.133101   -0.276199
 C    2.932817    0.144104    1.172251
 C    5.206583   -0.800205    0.682333
 C    0.185211    0.929078   -0.386040
 C   -0.033591    3.349649   -0.355267
 C   -2.007736    1.996603   -0.402848
 O   -3.797812   -1.818576    1.535126
 C   -3.785997   -0.801516    0.896753
 O   -4.143067    0.379883    1.419331
 C   -3.334835   -0.670908   -0.544477
 C   -3.755742   -1.899884   -1.350002
 C   -1.829594   -0.480858   -0.464722
 C   -1.237273    0.812326   -0.424229
 C   -1.427292    3.232561   -0.364983
 C    0.744358    2.226982   -0.363803
 C    3.256965   -1.362789   -0.785660
 C    4.760162   -1.098655   -0.746109
 C    4.436794    0.390938    1.244550
 H   -1.446040   -2.570773   -0.371790
 H    0.950704   -2.371693   -0.278002
 H    2.820913    0.708099   -0.900149
 H    2.392840    1.007604    1.565748
 H    2.670479   -0.718453    1.789178
 H    6.278908   -0.594518    0.703793
 H    5.021794   -1.676491    1.308093
 H    0.423104    4.328420   -0.334122
 H   -3.083668    1.934928   -0.389315
 H   -4.371038    0.281606    2.357265
 H   -3.798409    0.216300   -0.975695
 H   -3.593250   -2.807625   -0.775646
 H   -4.815943   -1.839008   -1.586155
 H   -3.192408   -1.953894   -2.277908
 H   -2.041090    4.121145   -0.342231
 H    1.815591    2.345391   -0.345635
 H    2.941840   -1.596104   -1.805047
 H    3.046224   -2.227411   -0.154490
 H    5.001480   -0.248620   -1.388998
 H    5.298354   -1.968549   -1.128735
 H    4.685045    1.286079    0.668311
 H    4.732311    0.570037    2.280640
