47 
4mk0_ligand_ani.xyz
 F   -2.625291    4.875185   -0.072916
 C   -2.639012    3.532590   -0.152862
 C   -3.393145    2.813010    0.760886
 C   -3.404072    1.424253    0.673640
 C   -1.899252    2.908500   -1.144815
 C   -1.924369    1.519013   -1.212174
 C   -2.673857    0.755915   -0.311957
 C   -2.659816   -0.761149   -0.395299
 C   -4.062002   -1.343322   -0.617801
 C   -4.013271   -2.867033   -0.693986
 N   -3.404524   -3.435830    0.548526
 C   -2.006461   -2.930081    0.719208
 C   -1.987032   -1.402037    0.837234
 C   -0.566914   -0.898259    1.043571
 O    0.195793   -1.239780   -0.104969
 C    1.513051   -0.898718   -0.128258
 C    2.145177   -0.169556    0.882477
 C    2.216069   -1.332580   -1.266099
 C    3.559223   -1.034600   -1.406703
 C    4.180599   -0.302537   -0.405697
 C    5.596060    0.152649   -0.321240
 O    6.498679   -0.024996   -1.115691
 C    3.493024    0.125435    0.720103
 C    4.434128    0.896616    1.619267
 N    5.678031    0.834021    0.868770
 H   -3.958136    3.340532    1.523112
 H   -3.998552    0.865060    1.395018
 H   -1.319720    3.505933   -1.841654
 H   -1.339498    1.012894   -1.978108
 H   -2.047369   -1.038004   -1.262610
 H   -4.729475   -1.032287    0.197225
 H   -4.491150   -0.946004   -1.542412
 H   -3.392714   -3.157374   -1.545377
 H   -5.004215   -3.293236   -0.835559
 H   -3.970181   -3.069103    1.359871
 H   -3.419435   -4.471378    0.528761
 H   -1.415415   -3.224052   -0.148978
 H   -1.565696   -3.394526    1.600851
 H   -2.560683   -1.123711    1.733143
 H   -0.118806   -1.364086    1.933419
 H   -0.566727    0.190898    1.181476
 H    1.607168    0.155674    1.767365
 H    1.682831   -1.901131   -2.020563
 H    4.129042   -1.356761   -2.273555
 H    4.538082    0.430084    2.606734
 H    4.106798    1.933333    1.766862
 H    6.542390    1.262807    1.158465
