24 
4mk2_ligand_xtb.xyz
 O    4.502517   -1.038291   -0.118302
 C    3.320564   -0.712720   -0.113697
 C    2.874066    0.587584    0.369509
 O    3.852487    1.397116    0.814054
 C    1.559572    0.930634    0.360216
 C    0.583509    0.013077   -0.122261
 C   -0.837465    0.385549   -0.148239
 C   -1.223009    1.686326   -0.473991
 C   -2.559288    2.044874   -0.506016
 C   -3.540944    1.116324   -0.215684
 C   -3.167323   -0.187339    0.111217
 C   -4.158555   -1.151662    0.410701
 N   -4.960506   -1.935219    0.648627
 C   -1.823066   -0.549981    0.146849
 C    1.003102   -1.205747   -0.566771
 N    2.322199   -1.538616   -0.556904
 H    4.687184    0.901417    0.705165
 H    1.258633    1.892623    0.742629
 H   -0.468455    2.416729   -0.722948
 H   -2.837395    3.056057   -0.762540
 H   -4.586042    1.385806   -0.237985
 H   -1.554406   -1.558260    0.425180
 H    0.327320   -1.944257   -0.967799
 H    2.614295   -2.445386   -0.900776
