27 
4mk5_ligand_xtb.xyz
 O   -4.809517   -0.939488    0.002692
 C   -3.475426   -0.702780   -0.046079
 C   -2.570317   -1.700602   -0.367024
 C   -1.216009   -1.404483   -0.396247
 C   -0.787920   -0.113081   -0.107340
 C    0.625325    0.282719   -0.127225
 C    1.638888   -0.635045    0.109152
 C    2.976886   -0.246203    0.080880
 O    3.880650   -1.236972    0.330582
 C    5.249695   -0.916074    0.317316
 C    3.301459    1.078492   -0.187448
 C    2.286779    1.995823   -0.415163
 C    0.963211    1.612631   -0.384753
 N   -1.667114    0.852913    0.187065
 C   -2.946400    0.571541    0.220923
 O   -3.812336    1.572864    0.533175
 H   -5.254019   -0.113993    0.239310
 H   -2.936760   -2.690064   -0.590382
 H   -0.506300   -2.169924   -0.663048
 H    1.422270   -1.664987    0.343046
 H    5.567707   -0.548754   -0.664024
 H    5.496910   -0.171936    1.081690
 H    5.772591   -1.845170    0.539256
 H    4.328035    1.407667   -0.217488
 H    2.545585    3.024459   -0.620098
 H    0.174437    2.325029   -0.563302
 H   -3.288051    2.368433    0.692048
