38 
4mk7_ligand_ani.xyz
 C    0.816358    0.362603   -0.077195
 C    0.404862    1.684463   -0.240376
 C   -0.943503    2.000052   -0.266814
 C   -1.914258    1.008034   -0.116397
 C   -1.543705   -0.340592    0.060968
 C   -0.179855   -0.613010    0.089370
 C   -2.608332   -1.447606    0.205848
 C   -1.959993   -2.835131    0.319981
 C   -3.447869   -1.228354    1.476834
 C   -3.532593   -1.486140   -1.025914
 O   -3.245775    1.296856   -0.114993
 C   -3.648754    2.611668   -0.418221
 C    2.237047   -0.031060   -0.117861
 C    3.265111    0.884775    0.381711
 O    3.115955    2.011796    0.831281
 N    4.563584    0.359181    0.332484
 C    4.918023   -0.854778   -0.164849
 C    3.967303   -1.689869   -0.659749
 C    2.619944   -1.255278   -0.619145
 H    1.148710    2.467349   -0.337736
 H   -1.234889    3.035531   -0.399301
 H    0.136813   -1.631109    0.291421
 H   -1.341658   -2.923931    1.220889
 H   -2.739983   -3.601234    0.382396
 H   -1.340377   -3.061797   -0.555387
 H   -4.169149   -2.046095    1.589010
 H   -2.799414   -1.217706    2.360909
 H   -3.990739   -0.283157    1.435908
 H   -2.940062   -1.631295   -1.936944
 H   -4.231851   -2.325038   -0.933262
 H   -4.103525   -0.562966   -1.129675
 H   -3.313017    3.319976    0.349888
 H   -3.268563    2.930718   -1.397081
 H   -4.739604    2.596566   -0.442688
 H    5.261559    0.993816    0.698217
 H    5.976496   -1.089643   -0.137453
 H    4.230958   -2.662153   -1.061266
 H    1.853040   -1.909979   -1.024698
