62 
4mk8_ligand_ani.xyz
 C    4.308864   -0.254862    0.144427
 C    3.825044   -1.558441    0.254109
 C    2.428575   -1.721926    0.228428
 C    1.557334   -0.621087    0.298802
 C    2.092886    0.657958    0.218265
 C    3.467643    0.867888    0.089784
 C    4.033053    2.214923   -0.120671
 C    5.194498    2.393049   -0.838830
 C    5.787861    3.661637   -1.050136
 C    5.178477    4.746108   -0.503137
 N    4.028271    4.594072    0.205327
 C    3.354657    3.386853    0.435075
 O    2.307344    3.422690    1.065982
 C    0.056639   -0.766105    0.463737
 C   -0.731341   -0.225964   -0.745737
 C   -2.227746   -0.338492   -0.593903
 C   -2.957407   -1.352179   -1.215730
 C   -4.331722   -1.456576   -1.051934
 C   -5.021791   -0.538595   -0.257700
 C   -4.307852    0.473023    0.387596
 C   -2.932360    0.558693    0.211715
 N   -6.419227   -0.701394   -0.127259
 S   -7.515241    0.447348    0.366822
 O   -8.801202   -0.208432    0.226095
 O   -7.077600    1.014429    1.629031
 C   -7.392546    1.725011   -0.864985
 O    1.884453   -2.990755    0.173268
 C    1.349621   -3.312204   -1.098412
 C    4.761278   -2.771155    0.412894
 C    6.230499   -2.337116    0.506171
 C    4.417211   -3.533680    1.701633
 C    4.639117   -3.723332   -0.790969
 H    5.381731   -0.094961    0.147246
 H    1.443432    1.526060    0.271826
 H    5.665317    1.520335   -1.284666
 H    6.704353    3.763607   -1.620980
 H    5.550718    5.760676   -0.593759
 H    3.558244    5.393252    0.610485
 H   -0.255074   -0.192488    1.347710
 H   -0.208473   -1.807677    0.668459
 H   -0.404233   -0.749271   -1.652837
 H   -0.450643    0.825526   -0.891621
 H   -2.447571   -2.076839   -1.848136
 H   -4.880367   -2.253544   -1.549322
 H   -4.815083    1.176569    1.036715
 H   -2.393994    1.353678    0.724976
 H   -6.852828   -1.434606   -0.673531
 H   -7.710424    1.324652   -1.829855
 H   -8.059514    2.532236   -0.555677
 H   -6.362299    2.085435   -0.912011
 H    0.442261   -2.732520   -1.304400
 H    2.080824   -3.112947   -1.892013
 H    1.097961   -4.375983   -1.081307
 H    6.398612   -1.663758    1.354741
 H    6.865688   -3.217111    0.653114
 H    6.562844   -1.836684   -0.410910
 H    5.080465   -4.399783    1.812148
 H    4.550393   -2.882136    2.573219
 H    3.381402   -3.878019    1.686206
 H    4.712697   -3.168035   -1.733619
 H    5.455640   -4.453864   -0.763884
 H    3.701554   -4.282143   -0.781931
