58 
4mk9_ligand_ani.xyz
 C    3.173161    0.915054   -0.033657
 C    3.965782   -0.239690    0.049067
 C    3.427165   -1.523092    0.127695
 C    2.028751   -1.616380    0.201140
 C    1.212257   -0.486473   -0.005230
 C    1.786998    0.772622   -0.057551
 C   -0.244474   -0.597665   -0.169339
 N   -1.136961    0.240860    0.244680
 C   -2.348181   -0.311380   -0.169127
 C   -2.082354   -1.479422   -0.872346
 O   -0.728975   -1.668893   -0.867703
 C   -3.075866   -2.256857   -1.443833
 C   -4.379366   -1.809691   -1.272034
 C   -4.674206   -0.634923   -0.553571
 C   -3.659056    0.130245    0.014251
 N   -6.037202   -0.265218   -0.479362
 S   -6.693487    0.974284    0.416974
 O   -8.115861    0.686343    0.422462
 O   -5.955832    1.165304    1.653339
 C   -6.393833    2.390532   -0.614687
 O    1.425843   -2.810523    0.490726
 C    0.868375   -2.847424    1.794667
 C    4.294347   -2.792980    0.102150
 C    5.773616   -2.447866   -0.110508
 C    4.179048   -3.567586    1.427520
 C    3.851852   -3.704733   -1.053605
 C    3.825654    2.240283   -0.167721
 C    3.216993    3.442795    0.465901
 O    2.157307    3.420671    1.058032
 N    3.937255    4.671438    0.391235
 C    5.040155    4.726534   -0.242651
 C    5.734829    3.622158   -0.976797
 C    4.980536    2.359974   -0.850647
 H    5.042345   -0.104560    0.091835
 H    1.158317    1.656125   -0.108537
 H   -2.852435   -3.162023   -1.997172
 H   -5.197494   -2.376933   -1.709345
 H   -3.866407    1.011054    0.606139
 H   -6.726749   -0.967089   -0.717951
 H   -6.962521    2.278332   -1.539694
 H   -6.731891    3.269590   -0.063438
 H   -5.324165    2.460083   -0.823738
 H    1.648195   -2.690237    2.551970
 H    0.093057   -2.083855    1.927813
 H    0.423001   -3.837371    1.920735
 H    6.185328   -1.888242    0.737507
 H    6.357588   -3.368711   -0.212635
 H    5.916693   -1.858317   -1.022988
 H    4.943342   -4.352617    1.458819
 H    4.342683   -2.900911    2.282659
 H    3.206003   -4.050700    1.537401
 H    3.970825   -3.187093   -2.012651
 H    4.467748   -4.611427   -1.070605
 H    2.802931   -3.990268   -0.944145
 H    5.532126    5.701149   -0.254762
 H    6.767195    3.496525   -0.597511
 H    5.890099    3.894405   -2.038954
 H    5.395368    1.497558   -1.357579
