45 
4mm4_ligand_ani.xyz
 F    2.429826    4.854584   -0.008680
 C    3.149674    2.780488   -0.855639
 C    1.746923    2.902671    1.116740
 C   -2.421367   -1.159659    1.449795
 C    3.157898    1.392658   -0.755112
 C    1.767894    1.513671    1.196516
 C   -3.777861   -0.874550    1.622544
 C   -2.430647   -0.176662   -0.786330
 C    3.779093   -2.901535    0.610133
 C    3.849694   -1.380356    0.499602
 C    1.679955   -2.946321   -0.666502
 C   -5.841691    0.880348   -0.708426
 C    0.279318   -0.882761   -0.975383
 N    3.072837   -3.485170   -0.572865
 O   -0.437609   -1.155235    0.219105
 O   -5.749790    0.116605    0.489206
 O   -4.642702    0.680087   -1.453093
 C    2.441914    3.512844    0.084704
 C   -1.756729   -0.819489    0.266864
 C    2.469987    0.738062    0.268967
 C   -4.429031   -0.241038    0.588725
 C   -3.766371    0.097410   -0.580097
 C    1.692869   -1.421191   -0.819978
 C    2.444983   -0.777570    0.363610
 H    3.681121    3.297825   -1.648270
 H    1.204346    3.510212    1.834281
 H   -1.859310   -1.657975    2.233271
 H    3.715804    0.822318   -1.496774
 H    1.218139    1.018658    1.994963
 H   -4.298416   -1.144031    2.536585
 H   -1.942848    0.091895   -1.717116
 H    3.216730   -3.162368    1.510011
 H    4.769821   -3.344091    0.689254
 H    4.350626   -0.974077    1.383254
 H    4.463193   -1.098014   -0.366754
 H    1.172452   -3.419715   -1.506426
 H    1.138262   -3.204653    0.244361
 H   -6.695506    0.533673   -1.296170
 H   -5.943615    1.945808   -0.457654
 H   -0.219182   -1.370361   -1.825593
 H    0.302619    0.200399   -1.156333
 H    3.592310   -3.156342   -1.430131
 H    3.061749   -4.520062   -0.524332
 H    2.230061   -1.178599   -1.748579
 H    1.885132   -1.039354    1.270169
