41 
4mm6_ligand_xtb.xyz
 C    0.872030   -2.302339    2.259991
 N    0.558553   -0.887049    2.019280
 C    1.673309    0.050501    2.312005
 C    1.406884    1.401818    1.656017
 C    1.272453    1.286140    0.117592
 C    2.482401    0.673905   -0.518266
 S    2.585181   -1.046501   -0.753302
 C    4.133352   -0.891158   -1.477883
 C    4.536204    0.400384   -1.541511
 C    3.590449    1.299472   -0.996161
 O    0.165922    0.453432   -0.214523
 C   -1.135718    0.947010   -0.188154
 C   -2.132678   -0.046211   -0.399736
 C   -1.814510   -1.397019   -0.657709
 C   -2.805509   -2.319294   -0.853933
 C   -4.153632   -1.936722   -0.797392
 C   -4.489735   -0.633222   -0.558893
 C   -3.495298    0.346326   -0.357363
 C   -3.818544    1.699696   -0.120517
 C   -2.833603    2.624686    0.064539
 C   -1.479199    2.250808    0.040240
 H    0.004429   -2.917530    2.032140
 H    1.695842   -2.604631    1.616687
 H    1.154895   -2.457350    3.299850
 H    0.322862   -0.711502    0.999896
 H   -0.267984   -0.617768    2.562056
 H    2.587996   -0.383358    1.903502
 H    1.791086    0.160430    3.391776
 H    2.233008    2.073981    1.883984
 H    0.491182    1.841745    2.057202
 H    1.140730    2.289343   -0.303829
 H    4.639103   -1.772468   -1.817112
 H    5.471650    0.709527   -1.969376
 H    3.731994    2.364506   -0.966772
 H   -0.777536   -1.690427   -0.743777
 H   -2.553913   -3.347838   -1.063631
 H   -4.921577   -2.677611   -0.955987
 H   -5.525001   -0.329144   -0.528743
 H   -4.857181    1.989701   -0.094295
 H   -3.077886    3.660783    0.237686
 H   -0.735775    3.016828    0.195614
