45 
4mm7_ligand_xtb.xyz
 O    2.426054    0.494400   -0.632584
 C    1.057903    0.726761   -0.247949
 C    0.427369    1.758827   -1.194753
 C    0.993261    1.247631    1.193234
 C    1.621489    2.635755    1.333462
 C    0.951114    3.630678    0.393153
 C    1.051252    3.146055   -1.048807
 C    0.347826   -0.647844   -0.446188
 C    0.968384   -1.773008    0.393310
 N    2.386491   -2.026834    0.021933
 C    2.504602   -2.871162   -1.174311
 C    3.160531   -2.592107    1.134351
 C   -1.145989   -0.588499   -0.204112
 C   -1.700584   -0.644825    1.071764
 C   -3.065748   -0.584629    1.256998
 C   -3.922670   -0.470564    0.163493
 O   -5.247257   -0.416147    0.397629
 C   -3.377642   -0.424508   -1.116072
 C   -2.008823   -0.486688   -1.289437
 H    2.883022    1.344214   -0.614137
 H   -0.637522    1.821672   -0.971825
 H    0.540664    1.411345   -2.223888
 H    1.505542    0.560100    1.870484
 H   -0.054386    1.306707    1.485609
 H    2.694908    2.592377    1.125103
 H    1.509946    2.967466    2.366268
 H   -0.100199    3.733528    0.667159
 H    1.420910    4.609471    0.491729
 H    2.098451    3.133127   -1.366016
 H    0.527999    3.836245   -1.710710
 H    0.490786   -0.891175   -1.504798
 H    0.937624   -1.505054    1.448562
 H    0.390371   -2.689944    0.259120
 H    2.744399   -1.063994   -0.216069
 H    2.117250   -3.867915   -0.965817
 H    3.547799   -2.952408   -1.472593
 H    1.943535   -2.438223   -1.998477
 H    4.192986   -2.750832    0.828926
 H    3.152107   -1.914741    1.985820
 H    2.733785   -3.547558    1.438172
 H   -1.074595   -0.739516    1.945177
 H   -3.494592   -0.626678    2.244662
 H   -5.744764   -0.341492   -0.426440
 H   -4.026605   -0.343704   -1.976553
 H   -1.608885   -0.452422   -2.292171
