45 
4mm7_ligand_ani.xyz
 O    2.438046    0.425339   -0.654388
 C    1.087611    0.711393   -0.242330
 C    0.518567    1.792030   -1.184285
 C    1.091921    1.243495    1.204181
 C    1.804692    2.592438    1.347644
 C    1.242919    3.637930    0.380050
 C    1.255146    3.129746   -1.063928
 C    0.307842   -0.630937   -0.415068
 C    0.900798   -1.797850    0.409001
 N    2.288089   -2.151524    0.002382
 C    2.310018   -3.021809   -1.188899
 C    3.044944   -2.786651    1.093245
 C   -1.190387   -0.527022   -0.190066
 C   -1.769880   -0.583717    1.081460
 C   -3.143725   -0.492413    1.262876
 C   -3.982566   -0.344761    0.159460
 O   -5.322303   -0.259945    0.392157
 C   -3.432130   -0.292683   -1.118764
 C   -2.053383   -0.383383   -1.280671
 H    2.993424    1.178778   -0.419748
 H   -0.537603    1.948759   -0.929787
 H    0.562773    1.426814   -2.218113
 H    1.554576    0.510113    1.875546
 H    0.049506    1.369811    1.523771
 H    2.883509    2.465215    1.173626
 H    1.710666    2.943712    2.381155
 H    0.205670    3.864627    0.665381
 H    1.803079    4.576788    0.463640
 H    2.291854    3.010036   -1.411791
 H    0.793976    3.866823   -1.730874
 H    0.450763   -0.890158   -1.473415
 H    0.905330   -1.558890    1.477275
 H    0.269800   -2.688266    0.295056
 H    2.728492   -1.256139   -0.246742
 H    1.772865   -3.955664   -0.979708
 H    3.343128   -3.265816   -1.450371
 H    1.837316   -2.525983   -2.038888
 H    4.068719   -2.981049    0.765660
 H    3.066263   -2.134227    1.969090
 H    2.575331   -3.737839    1.373652
 H   -1.142935   -0.701033    1.965446
 H   -3.583824   -0.536100    2.253780
 H   -5.781760   -0.161806   -0.451347
 H   -4.078064   -0.180885   -1.987943
 H   -1.639740   -0.324957   -2.286611
