41 
4mm8_ligand_ani.xyz
 F    5.421690    0.892574    0.229172
 C    4.654761   -0.207255    0.129697
 F    4.876966   -0.950387    1.232159
 F    5.114011   -0.925830   -0.914025
 C    3.199806    0.120331   -0.027489
 C    2.293766   -0.908494   -0.262416
 C    0.935851   -0.640948   -0.398975
 C    0.489774    0.678094   -0.296742
 C    1.398419    1.712021   -0.050757
 C    2.748289    1.432391    0.077921
 O   -0.830740    1.045377   -0.383221
 C   -1.733997    0.237129   -1.165146
 C   -2.881569    1.123444   -1.654352
 C   -3.712101    1.745910   -0.533586
 N   -2.865557    2.626811    0.313464
 C   -3.398965    2.858209    1.662016
 C   -2.222835   -0.974831   -0.383806
 C   -2.706409   -2.072869   -1.098604
 C   -3.188506   -3.198540   -0.438502
 C   -3.200305   -3.236200    0.953456
 C   -2.727488   -2.142873    1.674137
 C   -2.243388   -1.018689    1.010831
 H    2.658413   -1.927808   -0.344674
 H    0.237779   -1.455344   -0.567946
 H    1.030369    2.731108    0.030587
 H    3.458267    2.234303    0.259514
 H   -1.186766   -0.121220   -2.046696
 H   -3.534540    0.515426   -2.290754
 H   -2.464906    1.908715   -2.297790
 H   -4.127600    0.955668    0.099217
 H   -4.553579    2.308089   -0.951257
 H   -1.929716    2.186021    0.371582
 H   -2.755661    3.535209   -0.174478
 H   -3.573657    1.901831    2.166514
 H   -4.356337    3.388363    1.626446
 H   -2.696063    3.439444    2.259954
 H   -2.705920   -2.043019   -2.187729
 H   -3.555785   -4.046115   -1.011748
 H   -3.577493   -4.112830    1.473574
 H   -2.732362   -2.164965    2.761161
 H   -1.874255   -0.171783    1.584191
