41 
4mm8_ligand_dft.xyz
 F    5.435705    0.795176   -0.191462
 C    4.640740   -0.223046    0.169836
 F    4.856116   -0.450044    1.475679
 F    5.034872   -1.313726   -0.500369
 C    3.191573    0.099130   -0.089463
 C    2.324003   -0.869893   -0.574657
 C    0.973279   -0.584839   -0.760502
 C    0.508939    0.689213   -0.456070
 C    1.371391    1.670912    0.027612
 C    2.711448    1.373607    0.211933
 O   -0.810762    1.079866   -0.598677
 C   -1.734659    0.228217   -1.282649
 C   -2.910090    1.138771   -1.679537
 C   -3.725783    1.630147   -0.490675
 N   -2.879117    2.471990    0.432738
 C   -3.429865    2.612485    1.809409
 C   -2.192267   -0.941879   -0.430081
 C   -2.888020   -1.988293   -1.038740
 C   -3.378813   -3.043654   -0.277244
 C   -3.177532   -3.063636    1.100875
 C   -2.477100   -2.028406    1.712002
 C   -1.986729   -0.970191    0.950198
 H    2.695819   -1.860790   -0.809228
 H    0.309945   -1.363884   -1.115966
 H    0.989802    2.664953    0.238430
 H    3.389289    2.136397    0.579610
 H   -1.260601   -0.132251   -2.203263
 H   -3.589390    0.571714   -2.322742
 H   -2.531127    1.978697   -2.272360
 H   -4.084929    0.788457    0.105523
 H   -4.579780    2.238214   -0.796018
 H   -1.935831    2.038815    0.443833
 H   -2.744626    3.395590    0.012993
 H   -3.475043    1.619989    2.258820
 H   -4.429675    3.043496    1.749074
 H   -2.775300    3.259902    2.393257
 H   -3.039262   -1.987183   -2.116156
 H   -3.910435   -3.856070   -0.761971
 H   -3.554008   -3.890768    1.693576
 H   -2.296576   -2.051258    2.782121
 H   -1.401683   -0.191393    1.432605
