47 
4mm9_ligand_xtb.xyz
 C   -4.278821   -0.987572    2.252662
 O   -3.896010   -0.780631    0.895176
 C   -4.356938   -1.825735    0.016871
 C   -3.666737   -1.702430   -1.338459
 C   -2.370574   -2.508642   -1.463708
 C   -1.243093   -2.148972   -0.492541
 C   -0.759169   -0.696777   -0.625577
 N   -1.507466    0.154566    0.360582
 O   -1.633119    1.475048   -0.127232
 C   -2.632145    2.266057    0.522713
 C   -2.915243    3.465866   -0.375285
 N   -1.737518    4.374508   -0.467683
 C    0.725861   -0.547119   -0.399209
 C    1.278488   -0.853913    0.842131
 C    2.637698   -0.715991    1.056858
 C    3.450693   -0.277732    0.020374
 C    2.915327    0.011486   -1.226642
 C    1.553097   -0.122322   -1.431136
 C    4.924103   -0.049863    0.268089
 F    5.401521   -0.821512    1.242737
 F    5.659116   -0.256259   -0.822868
 F    5.124832    1.229810    0.643343
 H   -3.924243   -0.133478    2.826487
 H   -3.843420   -1.908766    2.646846
 H   -5.364949   -1.048068    2.330416
 H   -5.440437   -1.716980   -0.085939
 H   -4.150032   -2.800592    0.469678
 H   -4.353042   -2.079241   -2.096338
 H   -3.503343   -0.645013   -1.560834
 H   -2.000296   -2.401119   -2.483983
 H   -2.606507   -3.563645   -1.322412
 H   -1.536194   -2.355151    0.538351
 H   -0.399004   -2.803860   -0.711906
 H   -1.017719   -0.316450   -1.617865
 H   -0.964041    0.163179    1.240117
 H   -2.503958   -0.294092    0.564251
 H   -2.284342    2.584447    1.514318
 H   -3.559506    1.691147    0.635193
 H   -3.768128    4.019911    0.021606
 H   -3.158280    3.114152   -1.380409
 H   -0.916320    3.854255   -0.809734
 H   -1.505382    4.786795    0.448037
 H   -1.926646    5.148580   -1.121767
 H    0.662352   -1.229734    1.647608
 H    3.068146   -0.957894    2.015953
 H    3.560239    0.332633   -2.029487
 H    1.138477    0.093725   -2.403773
