47 
4mm9_ligand_ani.xyz
 C   -4.664675   -0.074393    1.899413
 O   -4.078663   -0.374887    0.648453
 C   -4.656578   -1.520158    0.031302
 C   -3.905279   -1.904406   -1.236236
 C   -2.629531   -2.733505   -1.029771
 C   -1.520540   -2.179613   -0.116145
 C   -0.922328   -0.839534   -0.553094
 N   -1.640749    0.276378    0.138922
 O   -1.421711    1.612592   -0.267935
 C   -2.245923    2.567627    0.449848
 C   -1.975863    3.894203   -0.259189
 N   -0.512525    3.986025   -0.581245
 C    0.581394   -0.726411   -0.324011
 C    1.195524   -1.207725    0.834984
 C    2.563052   -1.056965    1.030470
 C    3.334039   -0.422222    0.061185
 C    2.737878    0.064671   -1.099012
 C    1.368869   -0.086489   -1.282437
 C    4.812826   -0.244801    0.251874
 F    5.252545   -0.790917    1.399056
 F    5.511327   -0.806708   -0.754824
 F    5.154586    1.059083    0.271362
 H   -4.225301    0.855299    2.272478
 H   -4.469584   -0.880300    2.621014
 H   -5.750170    0.065105    1.796340
 H   -5.707007   -1.294828   -0.207238
 H   -4.644465   -2.361500    0.743419
 H   -4.587710   -2.515953   -1.841481
 H   -3.715747   -1.004500   -1.836875
 H   -2.195862   -2.939825   -2.017378
 H   -2.928387   -3.709160   -0.623607
 H   -1.874865   -2.173036    0.927088
 H   -0.714571   -2.924750   -0.135932
 H   -1.081704   -0.735574   -1.634573
 H   -1.336010    0.211354    1.146625
 H   -2.665198    0.091841    0.053005
 H   -1.947782    2.610812    1.507679
 H   -3.311316    2.313025    0.383627
 H   -2.278282    4.735681    0.359303
 H   -2.534499    3.933653   -1.192600
 H   -0.211675    3.011536   -0.768256
 H    0.018898    4.365061    0.222482
 H   -0.352541    4.565513   -1.416292
 H    0.606625   -1.714167    1.597921
 H    3.033451   -1.437569    1.931932
 H    3.347877    0.558595   -1.848800
 H    0.898427    0.300433   -2.183189
