47 
4mm9_ligand_dft.xyz
 C   -4.987909    1.614867    1.207222
 O   -4.295109    0.620339    0.453967
 C   -5.173197   -0.331173   -0.168809
 C   -4.381169   -1.266235   -1.065830
 C   -3.505349   -2.318141   -0.371374
 C   -2.326489   -1.813707    0.478440
 C   -1.385876   -0.858235   -0.285562
 N   -1.712851    0.552295    0.159989
 O   -0.945288    1.494077   -0.549985
 C   -0.206682    2.383840    0.302583
 C    0.815236    3.070436   -0.582113
 N    1.873050    2.110034   -1.054486
 C    0.103121   -1.031651   -0.102456
 C    0.679723   -0.940299    1.167010
 C    2.060381   -0.844220    1.306841
 C    2.867855   -0.875741    0.171795
 C    2.312475   -1.101462   -1.087542
 C    0.927504   -1.164584   -1.223398
 C    4.312034   -0.456765    0.278755
 F    4.841531   -0.705898    1.462983
 F    5.073607   -0.964688   -0.675641
 F    4.328495    0.918756    0.112102
 H   -4.238081    2.277396    1.645003
 H   -5.569435    1.147451    2.008183
 H   -5.652339    2.196082    0.559343
 H   -5.914669    0.218879   -0.760214
 H   -5.700344   -0.884237    0.619035
 H   -5.108946   -1.805125   -1.681422
 H   -3.802184   -0.661987   -1.779730
 H   -3.108332   -2.988934   -1.141800
 H   -4.134709   -2.940461    0.273524
 H   -2.698363   -1.329159    1.390406
 H   -1.738112   -2.673378    0.811204
 H   -1.622389   -0.862964   -1.352775
 H   -1.515448    0.632651    1.164653
 H   -2.765378    0.746774    0.053884
 H    0.285659    1.818720    1.105233
 H   -0.868328    3.141885    0.734977
 H    1.310924    3.875122   -0.035923
 H    0.335255    3.487889   -1.469307
 H    1.459661    1.222589   -1.380911
 H    2.565645    1.852923   -0.333258
 H    2.409883    2.507502   -1.833910
 H    0.058917   -0.927959    2.061543
 H    2.506367   -0.730975    2.289624
 H    2.954153   -1.199129   -1.958193
 H    0.489736   -1.308305   -2.207911
