27 
4mo8_ligand_dft.xyz
 S    2.773172   -0.101032   -0.209322
 O    3.162251    0.879273   -1.207851
 O    2.765191    0.253844    1.200599
 N    1.317926   -0.683777   -0.733679
 C    0.460790   -1.409767    0.197254
 C   -0.308942   -0.520408    1.175864
 N   -1.996030    2.279021   -0.430707
 N   -3.102017   -1.135521   -0.090646
 C   -2.442524    0.120483   -0.099203
 C   -2.895878    1.293603   -0.648923
 C   -0.999796    1.723245    0.247814
 C    0.210440    2.480418    0.682912
 N   -1.214213    0.396748    0.484210
 O   -4.195455   -1.184082   -0.635224
 O   -2.551048   -2.093986    0.451177
 N    3.667000   -1.502920   -0.278100
 H    0.861827   -0.005810   -1.335056
 H    1.089529   -2.104906    0.759640
 H   -0.238391   -2.007561   -0.391138
 H    0.390110    0.081515    1.756015
 H   -0.893731   -1.141672    1.852587
 H   -3.824456    1.450313   -1.177677
 H    1.070895    2.286848    0.034406
 H   -0.028387    3.542641    0.615341
 H    0.510041    2.246873    1.707491
 H    3.894413   -1.756143   -1.235173
 H    4.496678   -1.416284    0.301248
