51 
4mot_ligand_dft.xyz
 C    2.048656    5.308812    0.219803
 C    0.946460    4.624634   -0.595133
 C   -0.440719    4.943151   -0.027136
 N    1.356808    0.909608    0.370774
 C    2.652299    0.373775    0.234227
 C    2.728024   -1.076623    0.019526
 C    1.590335   -1.822374   -0.118596
 C    0.314788   -1.216959   -0.018477
 C    0.247726    0.135395    0.223342
 C   -1.863919   -1.002559   -0.007738
 C   -6.694093   -0.476554    0.018066
 C   -7.891745   -1.053393   -0.082436
 C   -8.115666   -2.524877   -0.311916
 C    5.162395   -1.123697   -0.672512
 C    1.183658    3.112686   -0.740431
 C    1.244158    2.353606    0.585967
 O    3.618278    1.127478    0.302937
 S   -1.411482    0.677301    0.293363
 N   -0.906968   -1.854653   -0.147670
 N   -3.186380   -1.401774   -0.089048
 C   -4.271689   -0.553735    0.037579
 O   -4.137342    0.641753    0.236959
 N   -5.486769   -1.178720   -0.080861
 C    4.062625   -1.712889   -0.040775
 C    6.363228   -1.818479   -0.717750
 C    6.435302   -3.076566   -0.128574
 N    5.407401   -3.652513    0.497761
 C    4.263015   -2.972423    0.537988
 H    2.007936    5.015599    1.275592
 H    3.043327    5.051677   -0.160317
 H    1.939745    6.397969    0.180590
 H    0.985521    5.033950   -1.613558
 H   -1.231011    4.440961   -0.596617
 H   -0.531440    4.631484    1.020358
 H   -0.634115    6.020750   -0.059935
 H    1.646274   -2.887113   -0.324500
 H   -6.555573    0.584340    0.184692
 H   -8.758780   -0.408076    0.006964
 H   -7.716468   -2.854908   -1.280851
 H   -7.644221   -3.138623    0.467985
 H   -9.180903   -2.766131   -0.306236
 H    5.072508   -0.137354   -1.110174
 H    2.130866    2.936758   -1.262813
 H    0.385979    2.683983   -1.361458
 H    2.122660    2.648792    1.159980
 H    0.354706    2.529386    1.199202
 H   -3.296143   -2.391956   -0.258878
 H   -5.527331   -2.173339   -0.245874
 H    7.233960   -1.391070   -1.204359
 H    7.361272   -3.647374   -0.152836
 H    3.449782   -3.449597    1.083224
