30 
4mp7_ligand_ani.xyz
 N    0.764634    0.833717   -0.028487
 C   -0.476871    1.497524    0.060136
 C    1.050817   -0.432385   -0.499523
 C    1.947656    1.447771    0.320874
 C   -1.725072    0.675132   -0.009100
 O   -0.497942    2.706484    0.148948
 C    2.413293   -0.647062   -0.411412
 C    2.989132    0.562405    0.119362
 C   -1.971751   -0.451414    0.796172
 C   -2.748434    1.114937   -0.846510
 C    3.247734   -1.748219   -0.726825
 C    4.388864    0.646061    0.327957
 C   -3.173425   -1.144616    0.699732
 O   -1.015111   -0.822470    1.683811
 C   -3.949886    0.432308   -0.963734
 C    4.604853   -1.635320   -0.509817
 C    5.173419   -0.443706    0.015799
 C   -4.154301   -0.707839   -0.187192
 O   -5.302018   -1.432994   -0.239681
 H    0.268186   -1.072805   -0.883149
 H    1.938440    2.471282    0.675625
 H   -2.586085    2.023059   -1.420282
 H    2.826889   -2.665695   -1.132034
 H    4.827169    1.556328    0.729115
 H   -3.367395   -2.026106    1.307636
 H   -1.312656   -1.612194    2.153278
 H   -4.724485    0.786916   -1.640552
 H    5.257334   -2.471794   -0.743484
 H    6.247307   -0.396068    0.172617
 H   -5.902737   -1.030570   -0.879490
