31 
4mpc_ligand_xtb.xyz
 O   -4.508898   -2.580291    0.029565
 C   -1.772324    0.488871   -0.069216
 C   -2.720627    0.403212   -1.068105
 C   -2.661850   -1.478694    0.966275
 C   -3.624751   -1.562315   -0.035669
 C   -3.650788   -0.617647   -1.060990
 C   -1.727181   -0.452549    0.956078
 O   -0.628286    2.572908    1.128791
 C    3.961740   -0.445450    1.126210
 C    4.760904   -1.310615    0.442131
 C    4.439660   -1.740101   -0.869325
 C    3.316419   -1.309192   -1.507750
 O   -0.721005    2.518547   -1.328854
 S   -0.593725    1.825394   -0.084803
 O   -0.764967   -0.334015    1.888984
 N    0.885804    0.982638   -0.121230
 C    1.269536    0.204614   -1.171598
 C    2.458593   -0.411996   -0.834033
 C    2.785660    0.025571    0.502468
 C    1.778480    0.884244    0.898945
 H   -5.127672   -2.536795   -0.710459
 H   -2.708404    1.153085   -1.842414
 H   -2.659431   -2.225677    1.745801
 H   -4.395805   -0.684761   -1.840147
 H    4.207928   -0.116429    2.124749
 H    5.666437   -1.685937    0.896689
 H    5.113326   -2.425534   -1.363332
 H    3.074225   -1.635280   -2.508450
 H   -0.856848   -1.021186    2.562782
 H    0.678061    0.178674   -2.063718
 H    1.611581    1.430160    1.803541
