31 
4mpc_ligand_ani.xyz
 O   -4.647118   -2.464669   -0.374155
 C   -1.780889    0.496131   -0.022699
 C   -2.633619    0.498875   -1.117903
 C   -2.870503   -1.486191    0.803718
 C   -3.721574   -1.473161   -0.299684
 C   -3.607525   -0.476895   -1.270294
 C   -1.897992   -0.502636    0.947105
 O   -0.573558    2.347175    1.421907
 C    3.806353   -0.876496    1.197707
 C    4.771921   -1.466755    0.409369
 C    4.695626   -1.422780   -1.008506
 C    3.653138   -0.786101   -1.647206
 O   -0.652617    2.574109   -1.110475
 S   -0.548838    1.768281    0.093261
 O   -1.058620   -0.487835    2.006963
 N    0.879580    0.901977   -0.019229
 C    1.499829    0.537151   -1.195886
 C    2.644359   -0.167944   -0.864076
 C    2.719044   -0.214889    0.571543
 C    1.613222    0.460910    1.061877
 H   -5.169490   -2.351012   -1.178026
 H   -2.517336    1.287328   -1.854513
 H   -2.983202   -2.274115    1.545005
 H   -4.269497   -0.465144   -2.133060
 H    3.875110   -0.914885    2.281935
 H    5.609566   -1.976462    0.876968
 H    5.475483   -1.900573   -1.594835
 H    3.595997   -0.753861   -2.732173
 H   -1.243941   -1.249487    2.570013
 H    1.077056    0.831917   -2.149158
 H    1.281567    0.694412    2.065946
