32 
4mpe_ligand_ani.xyz
 C    0.526389    0.873390   -1.299009
 O   -2.909468   -0.440742    2.173660
 C   -2.401193   -0.894132    1.020281
 C   -1.709782   -2.054863    1.003629
 C   -1.158756   -2.613510   -0.232923
 O   -0.459232   -3.616871   -0.230401
 C   -1.511378   -1.920681   -1.486639
 C   -2.251668   -0.798522   -1.480498
 C   -2.675096   -0.103934   -0.234914
 S   -1.847561    1.524935   -0.150396
 N   -0.211090    1.165729   -0.163167
 C    1.807516    0.539659   -0.905082
 C    1.853936    0.641392    0.527398
 C    3.049759    0.361946    1.232156
 C    4.167516   -0.014485    0.512752
 O    5.300648   -0.280370    1.217878
 C    4.131370   -0.119162   -0.907261
 C    2.976673    0.152520   -1.608147
 C    0.593886    1.022100    0.951623
 O   -2.145826    2.083970    1.166007
 O   -2.135380    2.236657   -1.380744
 H    0.054605    0.924920   -2.274484
 H   -2.988429    0.529474    2.130687
 H   -1.523360   -2.590621    1.928066
 H   -1.150278   -2.367347   -2.404666
 H   -2.522973   -0.301042   -2.405678
 H   -3.741645    0.176436   -0.285046
 H    3.108647    0.434833    2.314460
 H    6.000371   -0.539420    0.606833
 H    5.031281   -0.418419   -1.441791
 H    2.965072    0.068685   -2.691535
 H    0.204357    1.231965    1.940266
