33 
4mpn_ligand_xtb.xyz
 C   -2.305034   -0.394468   -0.508480
 C   -2.052994    0.140049    0.805765
 O    2.831783   -0.151180    2.195833
 C    2.876212    0.276551    0.931220
 C    3.597686    1.434248    0.644277
 C    3.677190    1.918978   -0.653513
 O    4.391944    3.043431   -0.864792
 C    3.033377    1.246231   -1.697128
 C    2.314770    0.104719   -1.420821
 C    2.234962   -0.376794   -0.125343
 S    1.228000   -1.805072    0.159166
 N   -0.333832   -1.129088    0.180486
 C   -1.213628   -1.163984   -0.855420
 C   -0.815464   -0.336777    1.186573
 C   -3.001340    0.974611    1.434448
 C   -4.159102    1.254313    0.764815
 C   -4.415431    0.729331   -0.531225
 C   -3.518820   -0.079426   -1.170945
 O   -3.727297   -0.595046   -2.409711
 O   -5.085244    2.059592    1.360379
 O    1.270159   -2.705426   -0.943909
 O    1.480561   -2.305993    1.485465
 H    2.363919   -1.014264    2.241341
 H    4.100249    1.954221    1.442364
 H    4.380281    3.280017   -1.801037
 H    3.100147    1.621453   -2.707763
 H    1.810144   -0.444088   -2.199540
 H   -1.001026   -1.745162   -1.727520
 H   -0.252679   -0.202272    2.086526
 H   -2.827154    1.380739    2.415852
 H   -5.352312    0.983044   -1.015739
 H   -4.592314   -0.320214   -2.738398
 H   -5.849979    2.162772    0.782383
