40 
4mq2_ligand_xtb.xyz
 N    5.600404   -2.075580   -0.078507
 C    6.038380   -0.810114   -0.025837
 C    7.863180    0.641800    0.029831
 C    3.961326    0.078630    0.022109
 C    1.763211    1.126604    0.066913
 C    1.973512   -1.309901   -0.028327
 C   -2.444130    0.785868    0.000905
 C   -5.222402    1.136200   -0.045758
 C   -4.390731    2.238788   -0.052579
 C   -3.017334    2.067213   -0.028627
 C   -5.598876   -1.303918   -0.003113
 O    1.156795    2.185953    0.105584
 N    3.147532    1.158030    0.069627
 N    5.275894    0.275276    0.024657
 O    7.348082   -0.677747   -0.026525
 C    4.306259   -2.267882   -0.079997
 C    3.385437   -1.209913   -0.029698
 C    1.175916   -0.206877    0.016615
 C   -0.306847   -0.447189    0.008116
 O   -0.738817   -1.583790   -0.013564
 N   -1.061053    0.680214    0.020872
 C   -3.294708   -0.316095    0.008495
Cl   -1.995315    3.465984   -0.036785
 C   -4.673515   -0.142874   -0.013705
 O   -6.802109   -1.211944   -0.042798
 O   -4.954919   -2.475364    0.058121
 C   -5.772592   -3.634475    0.073204
 H    7.535242    1.220252   -0.836040
 H    7.528718    1.146845    0.938053
 H    8.945522    0.536915    0.029196
 H    1.504168   -2.283556   -0.065030
 H   -6.295129    1.246322   -0.064227
 H   -4.799655    3.236515   -0.076983
 H    3.579086    2.076082    0.105662
 H    3.973182   -3.296186   -0.123258
 H   -0.551420    1.569851    0.041555
 H   -2.874700   -1.307747    0.030117
 H   -6.438893   -3.618526    0.938470
 H   -6.379148   -3.683710   -0.833705
 H   -5.094827   -4.482418    0.127179
