55 
4mqu_ligand_ani.xyz
 C    5.849902   -1.242871    1.101249
 C    6.426168   -2.437354    0.718973
 C    6.729833   -2.627144   -0.644282
 N    7.250948   -3.826281   -1.088438
 N    6.496131   -1.697597   -1.575348
 C    5.946754   -0.544904   -1.187534
 C    5.591623   -0.279752    0.125719
 S    4.823008    1.250828    0.561535
 O    5.157722    2.222716   -0.463173
 O    5.094887    1.488948    1.967076
 N    3.186146    0.962828    0.436564
 C    2.628450    0.774028   -0.901560
 C    1.113921    0.988333   -0.883679
 C    0.757861    2.414006   -0.724225
 C    0.457215    3.576707   -0.624623
 C    0.071543    4.982617   -0.497404
 C    2.561090    0.140670    1.472065
 C    1.060764    0.397391    1.474765
 N    0.512905    0.138568    0.149723
 C   -0.882988   -0.052165    0.044468
 C   -1.391072   -0.675867   -1.100009
 C   -2.750274   -0.911724   -1.226337
 C   -1.780507    0.334182    1.047638
 C   -3.144181    0.111134    0.906732
 C   -3.638764   -0.513729   -0.231919
 C   -5.122367   -0.759926   -0.412443
 C   -5.901210    0.576172   -0.445447
 F   -5.894148    1.200367    0.740015
 F   -7.183037    0.359873   -0.786603
 F   -5.375309    1.411812   -1.345829
 C   -5.668459   -1.684324    0.700787
 F   -6.936365   -2.038817    0.430636
 F   -5.657391   -1.095649    1.904366
 F   -4.942561   -2.802561    0.790277
 O   -5.348562   -1.403580   -1.635692
 H    5.608131   -1.037976    2.141146
 H    6.636082   -3.220496    1.441691
 H    7.802524   -4.352142   -0.427676
 H    7.648732   -3.778645   -2.015658
 H    5.790027    0.205923   -1.959558
 H    2.839274   -0.240632   -1.267860
 H    3.102284    1.490548   -1.576336
 H    0.726674    0.663470   -1.853966
 H   -0.074288    5.440378   -1.481093
 H    0.840448    5.555196    0.031097
 H   -0.864988    5.080276    0.061351
 H    2.984982    0.420304    2.438662
 H    2.760248   -0.925995    1.294485
 H    0.873417    1.435930    1.796714
 H    0.586372   -0.276515    2.196572
 H   -0.701806   -0.995816   -1.878071
 H   -3.147479   -1.398800   -2.112372
 H   -1.413921    0.827438    1.941457
 H   -3.811103    0.428613    1.700991
 H   -6.301547   -1.549728   -1.732711
