55 
4mqu_ligand_xtb.xyz
 C    5.771739   -1.297464    1.145207
 C    6.247805   -2.554218    0.854503
 C    6.434625   -2.900464   -0.498061
 N    6.851886   -4.136951   -0.860590
 N    6.175331   -2.051351   -1.496319
 C    5.724125   -0.847406   -1.199863
 C    5.502988   -0.424802    0.096669
 S    4.835758    1.193985    0.432299
 O    5.224354    2.087881   -0.615811
 O    5.122343    1.533554    1.794648
 N    3.185577    1.007317    0.322361
 C    2.628183    0.793872   -0.985065
 C    1.139840    1.173945   -0.953465
 C    0.991500    2.604138   -0.708070
 C    0.846865    3.762210   -0.434550
 C    0.690202    5.168353   -0.143000
 C    2.542387    0.213954    1.334417
 C    1.059397    0.587823    1.396848
 N    0.464718    0.399281    0.087878
 C   -0.891395    0.161622   -0.024422
 C   -1.431300   -0.297620   -1.234114
 C   -2.768950   -0.596658   -1.354846
 C   -1.769712    0.299458    1.057742
 C   -3.110375   -0.003628    0.940321
 C   -3.623949   -0.456036   -0.268458
 C   -5.100490   -0.773416   -0.426207
 C   -5.915266    0.546558   -0.406427
 F   -5.769840    1.265797    0.704934
 F   -7.230130    0.302185   -0.549004
 F   -5.560004    1.325079   -1.429703
 C   -5.597032   -1.696767    0.718018
 F   -6.768713   -2.263686    0.383897
 F   -5.794033   -1.076734    1.882453
 F   -4.741821   -2.694745    0.942912
 O   -5.335043   -1.412086   -1.642711
 H    5.619453   -0.960168    2.158586
 H    6.480114   -3.264539    1.632472
 H    7.253235   -4.751580   -0.175727
 H    7.088373   -4.273490   -1.827988
 H    5.546439   -0.179483   -2.030642
 H    2.728395   -0.260003   -1.294795
 H    3.170949    1.436429   -1.678556
 H    0.696345    0.934183   -1.923477
 H    0.592338    5.732904   -1.069461
 H    1.561221    5.529275    0.402627
 H   -0.201987    5.325273    0.462692
 H    3.032329    0.437162    2.282008
 H    2.639714   -0.862263    1.112974
 H    0.970685    1.629760    1.732831
 H    0.566180   -0.074255    2.109267
 H   -0.794189   -0.444491   -2.091752
 H   -3.163271   -0.954388   -2.291384
 H   -1.416592    0.674638    2.003675
 H   -3.748920    0.135942    1.798304
 H   -6.275013   -1.619308   -1.753218
