42 
4mr3_ligand_dft.xyz
 O   -4.546567    2.523656    0.277074
 C   -4.023777    3.829050    0.406288
 C   -3.671258    1.498996    0.169738
 C   -4.267681    0.232046    0.048410
 C   -3.479637   -0.899678   -0.069501
 N    0.180016   -1.579352   -0.185460
 C   -5.386805   -2.295675   -0.193807
 O   -3.985808   -2.138602   -0.186203
 C   -2.061279   -0.785542   -0.068542
 O    6.209401    0.570176   -0.014504
 N   -0.119461    0.717165    0.084144
 C   -1.178056   -1.939973   -0.218979
 C    0.660125   -0.308397   -0.033111
 O   -1.465075   -3.111838   -0.375555
 C    2.128406   -0.125975   -0.011355
 C    2.658619    1.120001   -0.358361
 C    4.025564    1.352167   -0.361829
 C    4.610472    2.684287   -0.744094
 C    4.876754    0.299200    0.003782
 C    4.379781   -0.956539    0.373998
 C    5.322560   -2.058841    0.787314
 C    3.001038   -1.149062    0.358450
 C   -1.487400    0.498484    0.057957
 C   -2.295358    1.640524    0.176957
 H   -3.413518    3.926831    1.312379
 H   -3.421528    4.106173   -0.467516
 H   -4.887077    4.491500    0.476824
 H   -5.348578    0.185943    0.053147
 H    0.809351   -2.350044   -0.363127
 H   -5.835738   -1.942304    0.743070
 H   -5.845612   -1.766708   -1.038642
 H   -5.561082   -3.366637   -0.298490
 H    6.706061   -0.214414    0.245355
 H    1.971063    1.914855   -0.629293
 H    5.279282    2.588202   -1.606126
 H    3.820407    3.396563   -0.995673
 H    5.206586    3.101474    0.074501
 H    6.010962   -2.336044   -0.022536
 H    5.924973   -1.777716    1.661510
 H    4.770329   -2.961996    1.058220
 H    2.619344   -2.113760    0.684824
 H   -1.797128    2.595804    0.274410
