42 
4mr3_ligand_ani.xyz
 O   -4.590033    2.488613    0.367482
 C   -4.057676    3.785721    0.521321
 C   -3.702678    1.471196    0.228593
 C   -4.277690    0.195544    0.055259
 C   -3.460294   -0.912926   -0.102742
 N    0.205319   -1.547904   -0.175963
 C   -5.355528   -2.310730   -0.295283
 O   -3.953845   -2.150266   -0.270783
 C   -2.047259   -0.774463   -0.091724
 O    6.230228    0.511217   -0.053321
 N   -0.137536    0.753814    0.107738
 C   -1.140227   -1.915236   -0.284523
 C    0.652134   -0.259801   -0.006313
 O   -1.418052   -3.072106   -0.513551
 C    2.128351   -0.082582    0.021812
 C    2.678850    1.103226   -0.458801
 C    4.053882    1.308368   -0.491719
 C    4.632694    2.591292   -1.032134
 C    4.881938    0.290008   -0.004877
 C    4.360967   -0.904219    0.518585
 C    5.271080   -1.985030    1.049435
 C    2.983668   -1.068784    0.519808
 C   -1.499453    0.509670    0.090616
 C   -2.336446    1.634508    0.249506
 H   -3.446811    3.861853    1.429815
 H   -3.451435    4.074443   -0.346737
 H   -4.914102    4.456198    0.603657
 H   -5.358794    0.129620    0.049846
 H    0.861805   -2.293825   -0.379459
 H   -5.811892   -1.999692    0.652733
 H   -5.809448   -1.749890   -1.121881
 H   -5.529932   -3.376601   -0.445662
 H    6.686214   -0.263735    0.296396
 H    2.007574    1.880819   -0.815698
 H    4.333991    2.740507   -2.076791
 H    4.260267    3.452030   -0.463873
 H    5.721566    2.590259   -0.982526
 H    5.931567   -2.387784    0.270809
 H    5.900724   -1.626859    1.873885
 H    4.680789   -2.821238    1.434482
 H    2.568534   -1.974063    0.957251
 H   -1.849357    2.592347    0.381793
