42 
4mr3_ligand_xtb.xyz
 O   -4.516160    2.542309    0.265679
 C   -4.003327    3.846327    0.405475
 C   -3.638337    1.511429    0.162903
 C   -4.230386    0.247460    0.034038
 C   -3.460516   -0.895180   -0.077033
 N    0.174726   -1.609904   -0.139488
 C   -5.358170   -2.309920   -0.242759
 O   -3.963343   -2.135980   -0.203972
 C   -2.048695   -0.781731   -0.059155
 O    6.188155    0.590348   -0.046804
 N   -0.111426    0.684008    0.085317
 C   -1.182926   -1.942901   -0.177978
 C    0.662189   -0.343452   -0.010478
 O   -1.492968   -3.107648   -0.304456
 C    2.112943   -0.145526    0.004534
 C    2.620567    1.108029   -0.336578
 C    3.978063    1.352789   -0.355817
 C    4.540294    2.687252   -0.731943
 C    4.856705    0.316770   -0.013149
 C    4.370492   -0.941577    0.353121
 C    5.323316   -2.039532    0.740526
 C    3.002521   -1.157547    0.353731
 C   -1.465487    0.495733    0.065723
 C   -2.263794    1.637776    0.177614
 H   -3.405075    3.944953    1.316333
 H   -3.397293    4.132647   -0.459395
 H   -4.872310    4.499197    0.470512
 H   -5.306755    0.211832    0.027331
 H    0.809579   -2.390277   -0.252329
 H   -5.832199   -1.971815    0.684458
 H   -5.805420   -1.784035   -1.092560
 H   -5.512907   -3.381294   -0.358270
 H    6.688281   -0.194797    0.205449
 H    1.920912    1.887046   -0.592689
 H    5.221325    2.581089   -1.574761
 H    3.746363    3.379526   -0.995210
 H    5.114190    3.097080    0.097633
 H    5.985450   -2.296221   -0.088726
 H    5.933866   -1.746433    1.596582
 H    4.772729   -2.934656    1.016003
 H    2.640321   -2.127145    0.664935
 H   -1.762343    2.585156    0.273683
