42 
4mr5_ligand_dft.xyz
 O    4.600842    2.476513   -0.262554
 C    4.110512    3.786762   -0.444693
 C    3.706683    1.467305   -0.165850
 C    4.270476    0.196628    0.016063
 C    3.457663   -0.923124    0.125312
 N   -0.271717   -1.647136    0.144933
 C    5.341570   -2.330310    0.395120
 O    3.944890   -2.157189    0.310751
 C    2.041584   -0.797374    0.051439
 O   -6.211932    0.593920    0.025782
 N    0.152205    0.635801   -0.157514
 C    1.101593   -1.949784    0.084638
 C   -0.685977   -0.433026    0.010756
 O    1.456118   -3.111080    0.062595
 C   -2.139239   -0.142833    0.024934
 C   -2.656538    1.106837    0.377387
 C   -4.023806    1.354165    0.380135
 C   -4.597457    2.688871    0.770856
 C   -4.882216    0.308791    0.016747
 C   -4.396665   -0.960882   -0.327537
 C   -5.351955   -2.066582   -0.700970
 C   -3.022993   -1.166723   -0.314000
 C    1.527866    0.492391   -0.112781
 C    2.332418    1.633970   -0.228434
 H    3.537355    3.873784   -1.376334
 H    3.483881    4.100639    0.399636
 H    4.988579    4.430710   -0.500307
 H    5.349214    0.133849    0.065735
 H    5.841707   -2.014746   -0.529083
 H    5.764695   -1.779562    1.244731
 H    5.494364   -3.399323    0.542828
 H   -6.713917   -0.192697   -0.217911
 H   -0.234492    1.536953   -0.390835
 H   -1.997001    1.907645    0.705798
 H   -5.279075    2.590702    1.622310
 H   -3.804354    3.390887    1.043704
 H   -5.177344    3.124385   -0.049964
 H   -6.043547   -2.304924    0.118450
 H   -5.950319   -1.811609   -1.586122
 H   -4.806246   -2.983353   -0.934775
 H   -2.609501   -2.138807   -0.564002
 H    1.872116    2.607000   -0.353111
