19 
4mre_ligand_ani.xyz
 C    2.541829   -0.618740    0.016300
 C    1.210413    0.084423    0.009476
 C    1.123342    1.472948    0.013839
 C   -0.110907    2.114423   -0.002253
 C   -1.280107    1.360192   -0.017509
 C   -1.221838   -0.028658   -0.009911
 N   -2.389484   -0.863054   -0.002881
 C    0.026819   -0.672608   -0.014056
 N    0.075294   -2.058957   -0.124265
 H    3.361589    0.100541   -0.068474
 H    2.697021   -1.187634    0.941878
 H    2.620239   -1.324929   -0.818262
 H    2.041536    2.058035    0.025006
 H   -0.164864    3.199963   -0.002255
 H   -2.250246    1.854967   -0.025421
 H   -3.179596   -0.372107   -0.408576
 H   -2.652347   -1.110183    0.948923
 H    0.816145   -2.531675    0.370949
 H   -0.827454   -2.504782   -0.049063
