19 
4mrh_ligand_ani.xyz
 N   -2.964360    1.005512    0.018738
 C   -1.621660    0.583912   -0.002914
 C   -0.549055    1.461773    0.019785
 C    0.781004    1.026226    0.015200
 C    1.887007    2.049668    0.027426
 C    0.986600   -0.354388   -0.003793
Cl    2.600738   -1.022807   -0.020377
 C   -0.073488   -1.259757   -0.009056
 C   -1.382746   -0.803334    0.005741
 N   -2.492415   -1.658241   -0.025649
 H   -3.064280    2.004996   -0.109038
 H   -3.522979    0.511916   -0.669444
 H   -0.744619    2.534501    0.036957
 H    1.852066    2.668269   -0.877880
 H    1.773849    2.724413    0.884441
 H    2.877432    1.594876    0.084185
 H    0.133670   -2.328046   -0.021740
 H   -3.228535   -1.352678    0.601535
 H   -2.257695   -2.626017    0.151431
