50 
4mro_ligand_xtb.xyz
 C    2.514498    1.863961   -1.319968
 C    1.341929    2.576917   -1.240779
 C    0.857186    2.929337    0.035487
 N   -0.287179    3.631710    0.186060
 N    1.521608    2.632954    1.156960
 C    2.650778    1.958421    1.063422
 C    3.180727    1.536296   -0.142155
 S    4.540908    0.389873   -0.178893
 O    5.169941    0.421353   -1.464998
 O    5.340871    0.538281    0.997953
 N    3.761150   -1.099956   -0.055346
 C    2.953319   -1.413207   -1.215517
 C    2.352335   -2.812373   -1.056916
 C    3.093361   -1.287751    1.214968
 C    2.494735   -2.695608    1.283486
 N    1.578097   -2.871784    0.169694
 C    0.345896   -2.243856    0.218561
 C   -0.321117   -1.809719   -0.937537
 C   -1.552773   -1.193074   -0.879882
 C   -0.331041   -2.062387    1.434859
 C   -1.561809   -1.449461    1.495512
 C   -2.184156   -0.993471    0.340639
 C   -3.509901   -0.261311    0.437394
 C   -4.495452   -0.713111   -0.672668
 F   -5.751874   -0.372533   -0.340666
 F   -4.486305   -2.034037   -0.834544
 F   -4.257933   -0.163616   -1.866347
 C   -3.249605    1.260324    0.283149
 F   -2.521506    1.717432    1.304844
 F   -2.592215    1.595388   -0.831195
 F   -4.393526    1.963183    0.286816
 O   -4.096383   -0.481382    1.680722
 H    2.942210    1.564689   -2.264675
 H    0.789566    2.858031   -2.123343
 H   -0.927388    3.710053   -0.583887
 H   -0.643772    3.726761    1.121607
 H    3.168474    1.749158    1.989045
 H    3.612044   -1.351023   -2.081934
 H    2.133483   -0.686194   -1.332417
 H    3.156052   -3.547183   -0.975233
 H    1.740843   -3.076838   -1.917696
 H    2.277026   -0.557860    1.349208
 H    3.843975   -1.128250    1.989070
 H    1.997826   -2.846175    2.238548
 H    3.286430   -3.441248    1.187707
 H    0.117218   -1.936857   -1.912421
 H   -2.002573   -0.858350   -1.801212
 H    0.099919   -2.405818    2.359819
 H   -2.052837   -1.317686    2.445325
 H   -4.967433   -0.061578    1.741278
