18 
4mrw_ligand_ani.xyz
 O   -2.874221    1.811654    0.001733
 C   -2.252689    0.613301    0.000444
 C   -3.026700   -0.523382   -0.001093
 C   -2.383184   -1.775153   -0.001152
 N   -1.082828   -1.950243    0.000083
 C   -0.306114   -0.834221    0.000607
 C    1.101805   -1.019789    0.001442
 C    1.934537    0.064562    0.000096
Cl    3.658757   -0.168859    0.000371
 C    1.427172    1.383537   -0.001867
 C    0.071363    1.580870   -0.001823
 C   -0.831174    0.484261   -0.000050
 H   -2.226511    2.527106    0.008345
 H   -4.109635   -0.448402   -0.001931
 H   -2.989335   -2.681368   -0.002203
 H    1.478281   -2.036377    0.002737
 H    2.117531    2.221508   -0.003354
 H   -0.305739    2.602680   -0.003965
