18 
4mrz_ligand_ani.xyz
 C   -0.315474    2.559708    0.163734
 C    0.421017    1.251080    0.056789
 C    1.816613    1.250172    0.040376
 C    2.503682    0.046728   -0.024349
 N    1.924661   -1.151087   -0.067750
 C    0.590446   -1.202928   -0.046542
 N    0.042578   -2.445063   -0.129837
 C   -0.190778   -0.011118    0.002870
 N   -1.633149   -0.114220   -0.019896
 O   -2.274020    0.778681   -0.549214
 O   -2.165557   -1.095302    0.500285
 H    0.400393    3.365857    0.348576
 H   -0.870730    2.785232   -0.748470
 H   -1.037513    2.538882    0.983714
 H    2.355703    2.190293    0.082908
 H    3.592191    0.044909   -0.039940
 H    0.699998   -3.203058   -0.027033
 H   -0.915094   -2.578403    0.156783
