14 
4ms0_ligand_ani.xyz
 N    1.989196   -2.149767   -0.057065
 C    1.152710   -1.073425   -0.007334
 C   -0.244529   -1.232152   -0.003529
 C   -0.957548   -0.052007    0.001149
Cl   -2.697799   -0.128805   -0.001539
 N   -0.433981    1.158386    0.007596
 C    0.908756    1.179468    0.010788
 N    1.490790    2.407140    0.052310
 N    1.733029    0.127713   -0.003240
 H    1.646680   -3.046503    0.247847
 H    2.959432   -1.953510    0.137048
 H   -0.725507   -2.202510   -0.017986
 H    0.902579    3.195201   -0.164422
 H    2.469824    2.461392   -0.179978
