14 
4ms0_ligand_dft.xyz
 N    1.983491   -2.149057   -0.000312
 C    1.155133   -1.076232    0.000397
 C   -0.245987   -1.232613    0.000146
 C   -0.955271   -0.049530    0.000449
Cl   -2.706099   -0.125950   -0.000189
 N   -0.429811    1.159911    0.000260
 C    0.915780    1.180083    0.000069
 N    1.492373    2.404514   -0.000338
 N    1.739802    0.125621    0.000216
 H    1.631624   -3.090176   -0.000546
 H    2.977376   -1.990470   -0.000428
 H   -0.728136   -2.200911   -0.000345
 H    0.909556    3.223599   -0.000262
 H    2.494332    2.481940   -0.000355
