17 
4msa_ligand_ani.xyz
 O    4.055102  -28.148996  -29.527095
 N    4.446041  -28.760529  -30.506156
 O    5.031544  -29.828836  -30.469494
 C    4.193338  -28.167252  -31.828118
 C    3.521641  -26.936488  -31.892197
 C    3.268327  -26.351508  -33.120221
 C    3.708268  -27.039416  -34.255150
 N    3.630531  -26.762402  -35.605054
 C    4.237396  -27.802901  -36.259347
 N    4.699017  -28.723941  -35.464694
 C    4.381510  -28.273380  -34.187460
 C    4.633177  -28.857008  -32.942593
 H    3.209486  -26.460358  -30.970442
 H    2.749787  -25.399762  -33.186702
 H    3.209144  -25.951956  -36.027616
 H    4.306892  -27.821143  -37.340692
 H    5.147796  -29.805123  -32.839970
