36 
4mse_ligand_ani.xyz
 C   -6.607905    2.150412   -0.262559
 C   -5.480321    1.177833   -0.120201
 N   -4.238325    1.486658   -0.269858
 C   -3.426241    0.378928   -0.082647
 C   -2.031628    0.399207   -0.181471
 C   -1.339035   -0.782852    0.020361
 C   -2.017014   -1.981366    0.324912
 C   -3.395006   -1.999989    0.429105
 C   -4.098713   -0.812386    0.222384
 S   -5.808739   -0.505771    0.271827
 O    0.013873   -0.888260   -0.066786
 C    0.746981    0.304894   -0.264514
 C    2.219063   -0.017166   -0.219894
 C    2.659598   -1.339588   -0.489946
 C    4.000734   -1.597976   -0.463494
 C    4.908192   -0.550083   -0.162253
 C    6.314983   -0.728731   -0.103842
 C    7.135795    0.325881    0.197074
 C    6.586013    1.607996    0.452068
 C    5.232477    1.807972    0.400887
 C    4.360344    0.731030    0.092385
 N    3.020444    0.980177    0.054409
 H   -6.192256    3.128252   -0.511462
 H   -7.295863    1.836893   -1.054735
 H   -7.179421    2.226783    0.668485
 H   -1.543590    1.339528   -0.414071
 H   -1.431571   -2.883446    0.475148
 H   -3.911836   -2.926097    0.665994
 H    0.527383    1.039136    0.518020
 H    0.490193    0.746603   -1.237008
 H    1.925418   -2.108695   -0.705349
 H    4.384299   -2.596617   -0.666467
 H    6.724760   -1.717473   -0.301347
 H    8.212866    0.188962    0.243133
 H    7.250525    2.435011    0.690302
 H    4.783182    2.777618    0.592424
