52 
4msk_ligand_ani.xyz
 N    5.030261    0.347990    1.736558
 C    5.850480   -0.763747    1.907050
 O    5.821528   -1.406326    2.939728
 C    6.702605   -1.025108    0.738746
 C    7.604248   -2.093343    0.753103
 C    8.411994   -2.333697   -0.340561
 C    8.318235   -1.498287   -1.468356
 C    7.430439   -0.444840   -1.495001
 C    6.603347   -0.188267   -0.383754
 N    5.724237    0.888312   -0.447492
 C    4.996001    1.118900    0.587189
 C    4.084139    2.320055    0.646682
 C    3.318220    2.584721   -0.658954
 C    2.205302    1.574244   -0.880271
 O    2.410038    0.493559   -1.402818
 N    0.978576    1.976844   -0.410273
 C   -0.245499    1.287470   -0.460010
 C   -1.371031    1.942625    0.058620
 C   -2.611043    1.329672    0.039687
 C   -0.370836    0.001982   -0.994544
 C   -1.617084   -0.603336   -1.008449
 C   -4.037356   -0.623739   -0.543262
 C   -2.742201    0.046747   -0.499368
 N   -4.330953   -1.794053   -1.010923
 N   -5.690905   -1.964548   -0.824365
 C   -6.124130   -0.885846   -0.256956
 C   -7.488676   -0.550132    0.156202
 O   -5.128938    0.012063   -0.046361
 C   -8.510914   -1.473659   -0.070155
 C   -9.811302   -1.173652    0.315549
 C  -10.091711    0.046526    0.926550
 C   -9.071139    0.968433    1.151522
 C   -7.768055    0.673865    0.767578
 H    4.437579    0.579533    2.526700
 H    7.643849   -2.714661    1.644191
 H    9.116818   -3.160122   -0.335059
 H    8.955218   -1.686996   -2.329701
 H    7.341203    0.210796   -2.356359
 H    4.712912    3.189849    0.867900
 H    3.390830    2.216524    1.488038
 H    4.012775    2.498302   -1.497214
 H    2.911411    3.601783   -0.644615
 H    0.923699    2.905132   -0.020533
 H   -1.271646    2.941391    0.479680
 H   -3.479397    1.843150    0.440628
 H    0.499092   -0.503388   -1.391209
 H   -1.735066   -1.601560   -1.421888
 H   -8.264468   -2.418138   -0.548804
 H  -10.608563   -1.891078    0.140257
 H  -11.109407    0.279838    1.228497
 H   -9.292960    1.920290    1.628010
 H   -6.967609    1.387648    0.939537
