31 
4mss_ligand_xtb.xyz
 N    0.149124   -1.827450   -0.188278
 C    0.011064   -1.212272    1.148965
 N   -1.928163    0.324818    0.831427
 C   -0.487961    0.228946    1.062588
 C    0.234854    1.082073    0.003171
 O   -0.122109    2.406393    0.290806
 C    1.771539    0.937172    0.017277
 O    2.202696    1.889796   -0.928061
 C    2.314109   -0.478068   -0.344985
 O    2.834713   -1.156586    0.777549
 C    1.296904   -1.400295   -1.031584
 C   -2.604212   -0.196573   -0.201464
 O   -2.122996   -1.042366   -0.967528
 C   -4.012153    0.278251   -0.358777
 H    0.185103   -2.839368   -0.074282
 H   -0.839469   -1.548839   -0.674933
 H    0.968252   -1.245519    1.670407
 H   -0.716796   -1.796996    1.715788
 H   -2.379509    1.078164    1.329288
 H   -0.310048    0.707158    2.030112
 H   -0.123321    0.821966   -1.004752
 H    0.405676    2.990197   -0.271404
 H    2.130549    1.197038    1.024529
 H    3.136548    2.096835   -0.815781
 H    3.104678   -0.319742   -1.093112
 H    3.725511   -0.855138    0.983017
 H    1.841945   -2.291162   -1.347502
 H    0.923893   -0.895503   -1.923812
 H   -4.560003    0.175284    0.574991
 H   -4.016377    1.329430   -0.642670
 H   -4.506660   -0.298672   -1.135200
