31 
4mss_ligand_ani.xyz
 N    0.064761   -1.904967   -0.012464
 C   -0.075698   -1.070253    1.227702
 N   -1.968189    0.514773    0.743254
 C   -0.522855    0.377115    0.976815
 C    0.297007    1.115285   -0.095198
 O    0.077534    2.496829    0.099954
 C    1.799520    0.823732    0.021346
 O    2.450629    1.833678   -0.755995
 C    2.271137   -0.580044   -0.426675
 O    2.967230   -1.249627    0.619642
 C    1.190332   -1.536288   -0.941583
 C   -2.699242   -0.156745   -0.181866
 O   -2.248455   -1.080421   -0.862563
 C   -4.129894    0.301966   -0.358941
 H    0.193950   -2.890188    0.276777
 H   -0.853899   -1.807552   -0.525303
 H    0.886078   -1.063221    1.740214
 H   -0.802215   -1.551557    1.882184
 H   -2.384165    1.348797    1.131679
 H   -0.340351    0.917751    1.910043
 H   -0.053267    0.818229   -1.096546
 H    0.798258    2.931680   -0.381767
 H    2.060598    0.942168    1.084613
 H    3.318802    2.004303   -0.372882
 H    2.944974   -0.412120   -1.278387
 H    3.813366   -0.804880    0.746863
 H    1.697948   -2.455015   -1.239967
 H    0.756529   -1.109678   -1.847875
 H   -4.476233    0.967479    0.436884
 H   -4.218938    0.821841   -1.318584
 H   -4.774790   -0.578949   -0.401387
