46 
4msu_ligand_dft.xyz
 N    3.499127   -1.106634   -0.089277
 C   -5.496997    1.513483   -0.006065
 C    2.957514   -0.626798    1.181921
 C    2.811888   -0.534866   -1.246638
 C   -3.433899    0.024153    0.310545
 C   -0.625060   -0.291209    0.187523
 C    1.473680   -0.965648    1.252031
 C    6.386247    2.504425   -1.023670
 C   -2.691645    0.610719   -0.719405
 C   -1.316648    0.467530   -0.770313
 C    5.941415    1.192135   -1.341463
 C    6.538091    2.690719    0.321227
 S    6.155468    1.280997    1.226875
 C    5.772689    0.422454   -0.223375
 S    5.158583   -1.233597   -0.200026
 O    5.609401   -1.842311    1.037395
 O    5.439918   -1.801269   -1.504654
 C    1.331228   -0.871663   -1.149361
 N    0.776070   -0.390177    0.114004
 C   -1.374344   -0.894852    1.203204
 C   -2.754326   -0.734335    1.259523
 C   -4.954284    0.120390    0.413371
 C   -5.602598   -0.999539   -0.435017
 F   -6.935768   -0.958901   -0.387203
 F   -5.231912   -0.891072   -1.717540
 F   -5.209929   -2.194379    0.010998
 F   -5.340269    1.777929   -1.311587
 F   -4.842360    2.460939    0.689265
 F   -6.792508    1.635599    0.273544
 O   -5.411026   -0.114590    1.719390
 H    3.084161    0.463459    1.275543
 H    3.488558   -1.122038    1.995962
 H    3.230875   -0.975106   -2.152796
 H    2.942783    0.558983   -1.277403
 H    1.071357   -0.532937    2.172023
 H    1.355262   -2.061753    1.300524
 H    6.593501    3.269781   -1.761507
 H   -3.179669    1.203193   -1.482739
 H   -0.764528    0.978070   -1.552739
 H    5.774064    0.815880   -2.343384
 H    6.874148    3.583190    0.832008
 H    1.203747   -1.963133   -1.239725
 H    0.810285   -0.403219   -1.985497
 H   -0.894952   -1.518320    1.949088
 H   -3.312561   -1.235586    2.042909
 H   -4.937550    0.490543    2.306491
