46 
4msu_ligand_ani.xyz
 N    3.505311   -1.027566    0.111691
 C   -5.408950    1.539118    0.108659
 C    2.932946   -0.282874    1.231224
 C    2.768571   -0.869320   -1.141778
 C   -3.451731   -0.078563    0.309429
 C   -0.657414   -0.434612    0.237120
 C    1.479632   -0.697002    1.421877
 C    6.465747    2.254145   -1.495765
 C   -2.735748    0.191716   -0.854816
 C   -1.361206    0.018037   -0.887322
 C    6.019509    0.903841   -1.529651
 C    6.567664    2.737183   -0.224157
 S    6.133454    1.562180    0.952862
 C    5.773127    0.412461   -0.281361
 S    5.154223   -1.203686    0.049960
 O    5.584520   -1.559997    1.387737
 O    5.448419   -2.028914   -1.106213
 C    1.326283   -1.295137   -0.916551
 N    0.743931   -0.525880    0.178520
 C   -1.388748   -0.741162    1.393326
 C   -2.765045   -0.570953    1.414201
 C   -4.963737    0.078873    0.377533
 C   -5.644187   -0.870886   -0.629017
 F   -6.957797   -0.954934   -0.427862
 F   -5.448681   -0.452939   -1.895540
 F   -5.131589   -2.104533   -0.537885
 F   -4.863004    2.059535   -0.995662
 F   -5.025745    2.306522    1.153281
 F   -6.734427    1.642503   -0.000762
 O   -5.473779   -0.280669    1.630500
 H    2.989503    0.796853    1.039954
 H    3.508522   -0.510765    2.131290
 H    3.237739   -1.500533   -1.899358
 H    2.810662    0.176667   -1.476936
 H    1.036424   -0.061695    2.195096
 H    1.444783   -1.742762    1.777672
 H    6.702330    2.839625   -2.376632
 H   -3.237315    0.537669   -1.751446
 H   -0.811913    0.270164   -1.788842
 H    5.885840    0.304301   -2.425213
 H    6.881352    3.726914    0.081294
 H    1.291918   -2.377569   -0.702369
 H    0.751268   -1.133004   -1.831247
 H   -0.885602   -1.129091    2.273124
 H   -3.327736   -0.824224    2.309533
 H   -5.387677    0.487730    2.213424
