56 
4mt9_ligand_ani.xyz
 N   -0.076003   -1.354492    0.591943
 C   -1.196746   -1.867234    0.017002
 O   -1.233395   -2.192638   -1.160041
 C   -2.398888   -2.043394    0.933079
 C   -2.620884   -0.955033    1.980900
 S   -2.679910    0.732689    1.311531
 C   -4.310897    0.768870    0.635127
 N   -4.564483    1.912391   -0.086569
 C   -5.780613    2.178037   -0.715399
 O   -5.941204    3.197647   -1.354977
 N   -5.156059   -0.179288    0.824893
 C   -6.421297   -0.011196    0.261788
 C   -6.773144    1.112917   -0.500013
 C   -8.052907    1.230377   -1.049751
 C   -8.989475    0.238002   -0.842295
 C   -8.645347   -0.888440   -0.076473
 C   -7.384232   -1.016033    0.467372
 C    3.207124   -1.959286   -1.260855
 C    1.929660   -2.308645   -0.496837
 C    1.101401   -1.050040   -0.202683
 C    1.942119    0.009173    0.513208
 C    3.222076    0.335997   -0.256838
 C    4.039252   -0.933437   -0.498769
 O    5.197727   -0.662307   -1.285417
 C    6.287047   -0.096861   -0.703048
 C    6.390667    0.253062    0.645033
 C    7.574755    0.805603    1.121330
 C    8.653071    1.019739    0.264561
 C    8.541118    0.670654   -1.087860
 C    7.369805    0.116572   -1.565430
 C    9.875239    1.593722    0.761231
 N   10.860181    2.055676    1.159644
 H   -0.089765   -1.060014    1.556690
 H   -2.303191   -3.010725    1.445679
 H   -3.276568   -2.115640    0.286596
 H   -1.835571   -0.945060    2.742211
 H   -3.571625   -1.128390    2.488756
 H   -3.841184    2.613316   -0.203223
 H   -8.275798    2.118644   -1.634951
 H   -9.986300    0.323342   -1.265352
 H   -9.382091   -1.670761    0.089968
 H   -7.102194   -1.880750    1.060947
 H    2.953877   -1.533529   -2.241797
 H    3.809266   -2.855329   -1.448523
 H    2.185184   -2.793488    0.456642
 H    1.309059   -3.011620   -1.062322
 H    0.750123   -0.650067   -1.161979
 H    2.205413   -0.372953    1.512030
 H    1.340796    0.914846    0.660475
 H    3.817012    1.085657    0.277161
 H    2.974232    0.774593   -1.233041
 H    4.345893   -1.375093    0.460694
 H    5.564716    0.105752    1.332216
 H    7.660733    1.073239    2.170066
 H    9.380342    0.836210   -1.757358
 H    7.262307   -0.165593   -2.608256
