56 
4mt9_ligand_xtb.xyz
 N   -0.158839   -1.745058    0.461818
 C   -1.401577   -1.561097   -0.036276
 O   -1.616044   -1.125136   -1.144695
 C   -2.514705   -1.928527    0.939814
 C   -2.598411   -0.920212    2.079166
 S   -2.581765    0.797821    1.465149
 C   -4.155988    0.866285    0.701901
 N   -4.411255    1.994180   -0.012677
 C   -5.618934    2.219118   -0.675701
 O   -5.794700    3.246441   -1.289956
 N   -4.980021   -0.102408    0.857154
 C   -6.203939   -0.006127    0.243508
 C   -6.565789    1.117600   -0.523154
 C   -7.820618    1.169573   -1.131209
 C   -8.704734    0.125145   -0.979411
 C   -8.347874   -0.986397   -0.217811
 C   -7.114277   -1.057517    0.388310
 C    3.208332   -2.175353   -1.228724
 C    1.945381   -2.583045   -0.478648
 C    1.043279   -1.368273   -0.249978
 C    1.802840   -0.282741    0.516830
 C    3.066061    0.119247   -0.236255
 C    3.969171   -1.098811   -0.454032
 O    5.108377   -0.764779   -1.232691
 C    6.173333   -0.143833   -0.678823
 C    6.317758    0.191596    0.667192
 C    7.471764    0.808312    1.108815
 C    8.500860    1.107759    0.218823
 C    8.359383    0.775399   -1.131778
 C    7.212251    0.158312   -1.568738
 C    9.675114    1.741124    0.678443
 N   10.629235    2.254986    1.054645
 H   -0.043367   -2.114193    1.392212
 H   -2.347136   -2.926403    1.349811
 H   -3.457410   -1.921310    0.391917
 H   -1.740824   -0.979045    2.749113
 H   -3.523177   -1.043311    2.640224
 H   -3.700251    2.711397   -0.096777
 H   -8.068694    2.042872   -1.715227
 H   -9.675569    0.164052   -1.449500
 H   -9.047819   -1.801172   -0.103376
 H   -6.825243   -1.912294    0.979531
 H    2.949409   -1.777267   -2.210518
 H    3.858183   -3.038889   -1.377163
 H    2.216302   -3.018528    0.487390
 H    1.403339   -3.337681   -1.049974
 H    0.705398   -0.972886   -1.213191
 H    2.071422   -0.662909    1.507004
 H    1.157637    0.586768    0.652204
 H    3.602733    0.893537    0.315292
 H    2.802088    0.528471   -1.213064
 H    4.285238   -1.513533    0.514305
 H    5.540722   -0.023304    1.383638
 H    7.579336    1.063946    2.152802
 H    9.154557    1.005920   -1.824811
 H    7.084383   -0.108706   -2.605657
