86 
4mti_ligand_ani.xyz
 C   -1.523112    2.145063    2.754614
 C   -1.582875    3.400881    1.888430
 C   -1.742607    3.146990    0.387897
 N   -2.923978    2.290289    0.043704
 C   -4.233006    2.937630    0.036079
 C   -0.585710    2.418175   -0.334416
 O   -0.879177    1.842404   -1.382972
 N    0.668702    2.438440    0.189431
 C    1.661598    1.463706   -0.246582
 C    3.063653    2.084349   -0.445368
 C    3.594776    2.836863    0.782265
 C    5.010199    3.358819    0.528085
 C    5.042782    4.277371   -0.695338
 C    4.482432    3.568823   -1.930857
 C    3.081834    3.008809   -1.670314
 C    1.702914    0.330383    0.795736
 O    1.666355    0.615240    1.987729
 N    1.832524   -0.971157    0.381142
 C    1.972112   -1.990882    1.438708
 C    2.863227   -3.114583    0.935878
 C    2.983635   -4.367434    1.799039
 C    3.367588   -5.482946    0.799001
 C    3.099900   -4.889849   -0.604073
 N    2.326752   -3.651230   -0.355206
 C    2.347158   -2.603734   -1.394458
 C    1.415412   -1.472482   -0.941746
 C   -0.041622   -2.003694   -0.895741
 O   -0.284549   -3.157965   -0.537335
 N   -1.021370   -1.142422   -1.253263
 C   -2.419673   -1.537199   -1.353532
 C   -3.037332   -0.899729   -2.600890
 C   -4.544045   -1.073721   -2.583382
 O   -5.112663   -0.398875   -1.466671
 C   -4.548962   -0.674006   -0.257927
 C   -5.314425   -0.350230    0.868449
 C   -4.790182   -0.522694    2.138188
 C   -3.496524   -1.021062    2.291493
 C   -2.746125   -1.350627    1.166833
 C   -3.246612   -1.177933   -0.125335
 H   -2.457402    1.573758    2.708073
 H   -1.364718    2.416458    3.803017
 H   -0.707943    1.476054    2.458034
 H   -0.688540    4.015937    2.043149
 H   -2.428781    4.021790    2.208486
 H   -1.871329    4.107839   -0.129087
 H   -2.670970    1.923462   -0.898098
 H   -2.934972    1.481071    0.693913
 H   -4.585979    3.159318    1.052693
 H   -4.199923    3.887015   -0.515253
 H   -4.966818    2.287183   -0.449384
 H    0.742147    2.671919    1.172515
 H    1.313718    1.109073   -1.216393
 H    3.750729    1.246770   -0.643764
 H    2.937891    3.693889    0.993806
 H    3.561183    2.190961    1.666868
 H    5.384952    3.885204    1.414098
 H    5.683108    2.504740    0.362680
 H    4.436060    5.170913   -0.487017
 H    6.063669    4.631102   -0.885362
 H    5.151366    2.739271   -2.204306
 H    4.464939    4.249992   -2.790089
 H    2.371643    3.829978   -1.499403
 H    2.728690    2.468016   -2.558403
 H    0.983844   -2.380552    1.721654
 H    2.400795   -1.496772    2.310140
 H    3.861661   -2.706468    0.722078
 H    3.715889   -4.241645    2.599635
 H    2.016443   -4.586759    2.267600
 H    2.775381   -6.386426    0.969499
 H    4.420494   -5.761862    0.892794
 H    4.042696   -4.621548   -1.096309
 H    2.551264   -5.561534   -1.267758
 H    1.310382   -3.880393   -0.220887
 H    2.025853   -3.006521   -2.359760
 H    3.369681   -2.220500   -1.500939
 H    1.484213   -0.657963   -1.658994
 H   -0.813242   -0.161665   -1.429774
 H   -2.431092   -2.629889   -1.451126
 H   -2.795573    0.171334   -2.619897
 H   -2.609160   -1.358589   -3.497637
 H   -5.016102   -0.627171   -3.461385
 H   -4.812342   -2.140690   -2.547560
 H   -6.311312    0.051062    0.710722
 H   -5.386024   -0.266072    3.009291
 H   -3.067273   -1.138686    3.283118
 H   -1.745785   -1.756613    1.293649
