55 
4muf_ligand_xtb.xyz
 O   -0.565755   -1.952194   -2.291052
 C   -1.257564   -2.641907   -1.409088
 O   -1.848701   -3.650871   -1.671848
 C   -1.275892   -2.039795    0.017463
 N   -2.089399   -0.852876    0.057973
 C   -3.438568   -0.853582    0.263603
 C   -4.334312   -1.916027    0.384090
 C   -5.655050   -1.612169    0.585417
 C   -6.115806   -0.277467    0.669590
 O   -7.457177   -0.158776    0.874786
 C   -8.009958    1.132261    0.947601
 C   -5.239566    0.778065    0.543113
 C   -3.883600    0.488379    0.338276
 C   -2.743318    1.300262    0.168808
 C   -1.662110    0.456227   -0.010298
 C   -0.290604    0.821310   -0.329788
 O    0.492528    0.075357   -0.918601
 N    0.118558    2.049612    0.060873
 S    1.564974    2.741660   -0.590761
 O    1.716407    3.932220    0.187460
 O    1.399302    2.856770   -2.002363
 C    2.798144    1.540727   -0.169023
 C    3.171139    1.403017    1.149899
 C    4.113426    0.445476    1.489350
 C    4.683967   -0.374923    0.519925
 C    5.708078   -1.448299    0.851651
 C    5.140486   -2.814133    0.439099
 C    7.001356   -1.162500    0.075369
 C    6.049142   -1.501762    2.343271
 C    4.286867   -0.199809   -0.806893
 C    3.349129    0.751788   -1.157367
 H   -0.103717   -1.168153   -1.886813
 H   -0.253793   -1.800032    0.321548
 H   -1.697679   -2.782786    0.699138
 H   -4.009454   -2.940267    0.294761
 H   -6.393521   -2.392273    0.677596
 H   -7.595539    1.699927    1.787315
 H   -7.851173    1.689688    0.018812
 H   -9.077833    0.988056    1.102926
 H   -5.558402    1.806232    0.592004
 H   -2.727040    2.371882    0.131878
 H   -0.509633    2.670895    0.543456
 H    2.729943    2.047447    1.893931
 H    4.394083    0.348534    2.524783
 H    4.212366   -3.012138    0.970858
 H    4.937303   -2.856039   -0.626758
 H    5.851165   -3.600570    0.681943
 H    6.837177   -1.187134   -0.997733
 H    7.389805   -0.181344    0.339454
 H    7.753463   -1.908626    0.320870
 H    6.475423   -0.560722    2.682421
 H    5.170248   -1.734174    2.939812
 H    6.785320   -2.283743    2.515625
 H    4.709178   -0.817231   -1.583700
 H    3.023468    0.887957   -2.175334
