47 
4mwq_ligand_xtb.xyz
 C   -0.887793    2.814050   -0.945694
 O   -1.428789    2.196276   -1.825828
 O   -0.084227    3.843706   -1.155787
 C   -1.013088    2.501404    0.539559
 C   -2.290289    1.717553    0.845777
 C   -2.282902    0.308228    0.243885
 C   -1.045144   -0.467214    0.708558
 N   -0.841958   -1.782769    0.107941
 C   -1.669310   -2.774149   -0.195211
 O   -2.910141   -2.701883   -0.106726
 C   -1.026263   -4.035546   -0.675081
 C    0.230650    0.329512    0.339076
 C    0.212798    1.707941    1.003044
 O    1.318952   -0.459023    0.753024
 C    2.555652   -0.267788    0.045004
 C    3.676274   -0.605360    1.027871
 C    2.585386   -1.152203   -1.210255
 C    3.687114   -0.757593   -2.186331
 C    3.784548    0.419176    2.150049
 N   -3.516862   -0.404258    0.643464
 H    0.000471    4.052655   -2.101211
 H   -1.031695    3.458148    1.067221
 H   -3.148982    2.264475    0.452209
 H   -2.394832    1.646019    1.931364
 H   -2.273951    0.379443   -0.848039
 H   -1.066927   -0.584313    1.801924
 H    0.158632   -1.974459    0.075399
 H   -0.572547   -4.555280    0.167758
 H   -0.251126   -3.828806   -1.408106
 H   -1.782116   -4.682650   -1.111531
 H    0.244467    0.453617   -0.754535
 H    1.125218    2.248640    0.751763
 H    0.187545    1.582095    2.086507
 H    2.638949    0.784771   -0.254279
 H    4.618249   -0.651670    0.483591
 H    3.473494   -1.590993    1.449147
 H    1.621889   -1.067701   -1.723382
 H    2.716636   -2.193168   -0.906289
 H    4.669780   -0.887335   -1.742958
 H    3.580070    0.282209   -2.486636
 H    3.634127   -1.378014   -3.076954
 H    4.573972    0.135443    2.839911
 H    2.849599    0.477675    2.701234
 H    4.017815    1.403598    1.750320
 H   -4.336324   -0.017236    0.177179
 H   -3.663282   -0.362186    1.653004
 H   -3.349560   -1.546458    0.306587
