51 
4mx0_ligand_xtb.xyz
 C   -1.123344    0.695003   -0.907633
 N   -1.849959    1.662790   -0.113708
 C   -1.251085    2.577078    0.693867
 N   -2.124390    3.218512    1.554716
 N    0.008541    2.792913    0.651447
 C   -0.406738   -0.377236   -0.043819
 C    1.103405   -0.471705   -0.335400
 C    1.858832   -1.360937    0.682448
 C    3.354542   -1.353714    0.334384
 C    4.115867   -2.539765    0.914784
 C    1.605349   -1.037604    2.163590
 C    1.885786    0.397544    2.596602
 N    1.676520    0.849587   -0.443858
 C    2.416440    1.210495   -1.511242
 C    2.795275    2.678957   -1.496489
 O    2.776680    0.440201   -2.382296
 C   -1.139865   -1.717739   -0.292419
 O   -0.377119   -2.555810   -1.118181
 C   -2.471750   -1.332760   -1.001540
 C   -3.577991   -1.147348    0.002140
 O   -4.042620   -0.102806    0.384825
 O   -4.015256   -2.323563    0.460846
 C   -2.108329   -0.075444   -1.789893
 H   -0.400355    1.250565   -1.508676
 H   -2.767337    1.351123    0.180921
 H   -3.107217    3.170021    1.339873
 H   -1.819645    4.101361    1.931765
 H    0.314462    3.541667    1.263506
 H   -0.544061   -0.093213    1.000828
 H    1.235425   -0.942930   -1.317336
 H    1.491867   -2.379393    0.515464
 H    3.809659   -0.425669    0.680895
 H    3.452054   -1.373547   -0.751458
 H    4.122112   -2.519144    2.002325
 H    3.666760   -3.476591    0.591409
 H    5.148492   -2.521617    0.573858
 H    2.235320   -1.706834    2.753419
 H    0.571293   -1.287769    2.415569
 H    1.168718    1.090428    2.166749
 H    2.882200    0.706755    2.295777
 H    1.821646    0.471014    3.681454
 H    1.233590    1.592738    0.104657
 H    3.181878    2.965365   -2.470142
 H    3.569955    2.839134   -0.749817
 H    1.932947    3.287502   -1.238543
 H   -1.345150   -2.229414    0.659979
 H   -0.815444   -3.409776   -1.197361
 H   -2.776594   -2.155223   -1.654753
 H   -4.719118   -2.198356    1.117819
 H   -1.609314   -0.375278   -2.709767
 H   -2.980978    0.527339   -2.036420
