43 
4mx1_ligand_dft.xyz
 C  -25.124102    8.711365   -8.669640
 N  -25.907219    7.758857   -8.079815
 O  -22.119884    8.600128  -10.539040
 C  -23.068567    9.075688   -9.958173
 N  -24.009259    8.250721   -9.327897
 O  -25.418233   14.873160   -8.744499
 C  -23.400405   10.506359   -9.800458
 N  -25.438313    9.962299   -8.550530
 O  -24.903360   14.106732  -13.842766
 C  -24.589166   10.871191   -9.126706
 N  -24.947526   12.161679   -9.048835
 C  -24.132584   13.044416   -9.600922
 N  -22.557650   11.404239  -10.308934
 C  -22.916527   12.672255  -10.201350
 N  -24.147881   15.274139  -10.581506
 C  -24.628195   14.473101   -9.578541
 N  -26.106127   15.731313  -12.790977
 C  -24.804198   16.547128  -10.820460
 N  -26.355571   13.495888  -12.170703
 C  -26.179970   16.366552  -11.479258
 C  -25.720415   14.405269  -12.984497
 C  -26.189900   12.096310  -12.165254
 C  -27.150192   11.341126  -11.483956
 C  -27.040987    9.959433  -11.417690
 C  -25.968658    9.308485  -12.021325
 C  -25.004672   10.063204  -12.682596
 C  -25.104431   11.449326  -12.763583
 H  -26.783778    8.120037   -7.731745
 H  -25.953452    6.839570   -8.492521
 H  -23.788405    7.263270   -9.348645
 H  -22.218352   13.412341  -10.584042
 H  -23.711961   14.830435  -11.378302
 H  -25.611582   16.293600  -13.473636
 H  -24.919675   17.057671   -9.861720
 H  -24.152910   17.152897  -11.458531
 H  -27.130051   13.839261  -11.622469
 H  -26.662388   17.340625  -11.605907
 H  -26.817566   15.785652  -10.808032
 H  -27.979965   11.840191  -10.990315
 H  -27.795929    9.394441  -10.879650
 H  -25.881135    8.227133  -11.974201
 H  -24.149872    9.573724  -13.139527
 H  -24.358989   12.023792  -13.293845
