43 
4mx1_ligand_ani.xyz
 C  -24.709062    8.672523   -8.259905
 N  -25.513848    7.597102   -7.954319
 O  -21.204352    9.008405   -8.698635
 C  -22.367681    9.332675   -8.639743
 N  -23.368315    8.381981   -8.380409
 O  -25.367842   14.968105   -8.335981
 C  -22.939413   10.688462   -8.810870
 N  -25.212860    9.854762   -8.371822
 O  -25.608338   14.106678  -14.721851
 C  -24.331112   10.887924   -8.644993
 N  -24.855033   12.116267   -8.747470
 C  -24.027651   13.107769   -9.054308
 N  -22.116237   11.699630   -9.111562
 C  -22.656185   12.895246   -9.249672
 N  -24.353267   15.084263  -10.370277
 C  -24.645676   14.478571   -9.182738
 N  -25.467303   15.620413  -13.043949
 C  -24.912658   16.368512  -10.742325
 N  -26.175353   13.450656  -12.585946
 C  -25.976087   16.239581  -11.832714
 C  -25.753088   14.360869  -13.535541
 C  -26.459621   12.083563  -12.784265
 C  -26.520084   11.272025  -11.646421
 C  -26.812806    9.918102  -11.768479
 C  -27.060673    9.365369  -13.019695
 C  -27.007999   10.181113  -14.144921
 C  -26.708884   11.535089  -14.040669
 H  -26.496283    7.820431   -8.044135
 H  -25.265524    6.719374   -8.388324
 H  -23.022140    7.451473   -8.178544
 H  -21.983243   13.715021   -9.491309
 H  -23.736163   14.629848  -11.027804
 H  -25.211034   16.241306  -13.796877
 H  -25.354496   16.788412   -9.836742
 H  -24.104239   17.025399  -11.079254
 H  -26.036048   13.701001  -11.615581
 H  -26.354439   17.236881  -12.083761
 H  -26.828030   15.664682  -11.450968
 H  -26.331309   11.701846  -10.663779
 H  -26.845460    9.298654  -10.875112
 H  -27.293584    8.309013  -13.123544
 H  -27.198474    9.760047  -15.129440
 H  -26.658109   12.165956  -14.918346
