65 
4mxc_ligand_dft.xyz
 C   -2.963304   -1.482916    0.713506
 C   -2.345719   -2.636731    1.196690
 C   -3.215910   -3.599294    1.690132
 N   -4.538892   -3.466875    1.716815
 N   -4.273042   -1.307183    0.722530
 C   -4.464486    2.142405   -0.404426
 S   -5.874950    3.103482   -0.942965
 O   -5.487883    3.853552   -2.136641
 O   -6.427063    3.799162    0.216635
 C   -7.087632    1.861198   -1.485842
 C   -7.533643    0.946720   -0.383881
 C   -6.807250   -0.215359   -0.135419
 C   -8.622259    1.271477    0.425655
 C   -8.978728    0.424838    1.469227
 C   -8.230475   -0.714069    1.743205
 C   -7.123553   -1.029335    0.952064
 N   -6.366845   -2.173975    1.259983
 C   -5.003572   -2.307189    1.222782
 O   -2.295236   -0.417076    0.210954
 C   -0.932272   -0.514308    0.021206
 C   -0.418315   -1.246272   -1.043725
 F   -1.271862   -1.916804   -1.825840
 C    0.938215   -1.314724   -1.304617
 C   -0.056176    0.179835    0.842615
 C    1.308857    0.135300    0.598914
 C    1.816271   -0.611609   -0.472403
 N    3.205890   -0.606233   -0.650095
 C    3.930360   -1.260995   -1.596161
 O    3.461347   -1.980002   -2.464921
 C    5.450372   -1.067060   -1.555574
 C    6.230694   -2.214525   -2.165830
 C    6.123052   -1.173766   -2.910109
 C    6.108338   -0.220514   -0.475810
 O    5.466039    0.360882    0.397007
 N    7.465240   -0.158196   -0.555126
 C    8.374651    0.530640    0.278299
 C    7.989207    1.309846    1.373007
 C    8.958195    1.952657    2.136572
 C   10.296084    1.816375    1.807089
 F   11.224137    2.439557    2.548722
 C   10.699635    1.048741    0.725647
 C    9.732252    0.407835   -0.035163
 H   -1.273866   -2.778225    1.193904
 H   -2.824134   -4.532010    2.090112
 H   -4.067267    1.572542   -1.245713
 H   -3.722830    2.867172   -0.062224
 H   -4.746468    1.471036    0.407304
 H   -6.620298    1.326461   -2.317651
 H   -7.902480    2.472498   -1.885493
 H   -5.966761   -0.474702   -0.766257
 H   -9.177259    2.186689    0.246095
 H   -9.831595    0.667122    2.095495
 H   -8.489563   -1.349201    2.586263
 H   -6.820438   -2.910429    1.780843
 H    1.303825   -1.897210   -2.137996
 H   -0.458389    0.757388    1.667990
 H    1.988661    0.683703    1.243989
 H    3.763238   -0.057830    0.004742
 H    6.510483   -3.239398   -1.987563
 H    6.241521   -0.645814   -3.841644
 H    7.886519   -0.673522   -1.313936
 H    6.943007    1.409952    1.621685
 H    8.676183    2.561023    2.988709
 H   11.753639    0.958377    0.488746
 H   10.041581   -0.196219   -0.884854
