29 
4myd_ligand_ani.xyz
 O   -1.726262    2.238422   -0.883798
 C   -2.140244    1.577382    0.035675
 O   -3.230036    1.935881    0.746125
 C   -1.511172    0.285106    0.563172
 C   -2.568503   -0.787299    0.916563
 C   -3.096227   -1.393117   -0.327917
 C   -2.270287   -1.586900   -1.400833
 C   -0.955482   -1.058367   -1.421630
 O   -2.011419   -1.775728    1.793016
 C   -0.529372   -0.242437   -0.416526
 C    0.860098    0.251761   -0.306033
 O    1.174662    0.984830    0.615011
 C    1.914481   -0.165893   -1.328451
 C    3.276070    0.411590   -0.975351
 C    3.824703   -0.207055    0.286583
 O    3.582617   -1.324481    0.676637
 O    4.671066    0.617045    0.930077
 H   -3.542395    2.766530    0.351704
 H   -0.982489    0.566531    1.485951
 H   -3.373933   -0.331849    1.500008
 H   -4.089846   -1.826487   -0.309197
 H   -2.611625   -2.190034   -2.237288
 H   -0.285127   -1.313629   -2.238695
 H   -1.408726   -2.320186    1.264951
 H    1.607699    0.169599   -2.327403
 H    1.975372   -1.261020   -1.349743
 H    3.232059    1.495807   -0.850535
 H    3.998977    0.197621   -1.773566
 H    4.970609    0.130730    1.715760
