44 
4myq_ligand_dft.xyz
 C   -2.445842   -0.130305    0.152220
 C   -3.343336   -2.201391    0.405975
 C   -2.084355   -2.788520    0.304694
 C   -2.303278    3.752353   -0.093398
 O    4.931192    1.269192    1.393075
 C    5.866889    0.886253    0.507370
 O    7.026161    1.155162    0.675589
 C    5.370504    0.136500   -0.735282
 C    4.020462   -0.520170   -0.596101
 C    2.850115    0.137195   -0.981812
 C    1.593050   -0.434470   -0.814000
 C    3.895360   -1.790647   -0.026394
 C    2.650268   -2.370462    0.155392
 C    1.482065   -1.699838   -0.230967
 N    0.266772   -2.381168   -0.051649
 C   -1.010406   -1.891211    0.088468
 C   -1.881648   -4.283197    0.360763
 C   -1.743352   -4.919616   -1.030132
 C   -4.590620   -3.022336    0.605607
 N   -3.532299   -0.873622    0.334496
 N   -1.193831   -0.574503    0.018474
 C   -2.630828    1.321302    0.085461
 C   -3.802675    2.022535    0.153560
 C   -3.620613    3.428385    0.050333
 S   -1.261801    2.371987   -0.102646
Cl   -1.649228    5.340368   -0.250724
 H    4.062985    0.934904    1.118157
 H    6.148858   -0.588914   -0.985673
 H    5.357619    0.871319   -1.549344
 H    2.915813    1.121024   -1.441006
 H    0.706376    0.095755   -1.128167
 H    4.785204   -2.330171    0.287338
 H    2.580066   -3.354796    0.612691
 H    0.370110   -3.367112    0.127739
 H   -2.721491   -4.746438    0.885326
 H   -1.003302   -4.528472    0.974716
 H   -2.651581   -4.753240   -1.617897
 H   -0.908497   -4.484700   -1.589802
 H   -1.579020   -5.998901   -0.952633
 H   -4.685449   -3.805010   -0.154388
 H   -4.588990   -3.512131    1.586158
 H   -5.459873   -2.365968    0.549073
 H   -4.759576    1.530157    0.272878
 H   -4.417435    4.160706    0.080390
