50 
4mz4_ligand_xtb.xyz
 C   -4.447192    0.253244    1.001471
 C   -4.622012   -0.476702   -0.206028
 C   -5.826835   -1.177345   -0.414417
 C   -2.425301    0.247144   -0.857105
 C   -3.565103   -0.460948   -1.136561
 C   -2.361434    0.930022    0.376336
 C    2.906925   -1.287545    0.484885
 C    2.802599    1.864373    0.357405
 C    2.560879    3.209946    0.197045
 C    1.885453    0.934915   -0.138466
 C    0.716636    1.368670   -0.805451
 C    0.692775   -0.858635   -0.803471
 C    1.855690   -0.490545   -0.148756
 C    0.075851   -2.200902   -0.961647
 C   -1.278104    0.305452   -1.837340
 C    3.812311   -2.119899   -0.348948
 C    5.335993   -2.221668    1.375079
 C    3.124804   -1.284122    1.806649
 C   -6.813371   -1.150135    0.531195
 C   -6.641366   -0.424524    1.721838
 C   -5.483973    0.263206    1.957106
 N   -3.315194    0.937440    1.261309
 N    0.006951    0.272012   -1.186869
 C    1.385646    3.600647   -0.470568
 C    0.456526    2.726799   -0.979181
 O   -1.118702   -2.358673   -0.884134
 N    5.100046   -2.278227    0.134264
 C    4.293314   -1.990000    2.411947
 O    3.465832   -2.635294   -1.394612
 O    0.891074   -3.223847   -1.170542
 C    3.495624    4.261688    0.708092
 F    1.159521    4.925557   -0.619916
 H   -5.951834   -1.735354   -1.331409
 H   -3.660272   -1.017268   -2.058265
 H   -1.475895    1.494495    0.643013
 H    3.697062    1.527402    0.860103
 H   -1.335177    1.233527   -2.417346
 H   -1.355626   -0.537921   -2.527353
 H    6.369133   -2.327933    1.686194
 H    2.446594   -0.776065    2.476931
 H   -7.735931   -1.688448    0.370085
 H   -7.436302   -0.417195    2.453326
 H   -5.330480    0.824840    2.865212
 H   -0.425564    3.101696   -1.472306
 H    4.712003   -1.413717    3.240965
 H    3.968170   -2.947285    2.838003
 H    1.834061   -2.972720   -1.347566
 H    4.382718    3.810324    1.143414
 H    3.795193    4.926345   -0.101049
 H    3.000186    4.870384    1.463998
