50 
4mz4_ligand_dft.xyz
 C   -4.849513   -0.149108    0.107246
 C   -3.886706   -1.091468    0.560843
 C   -4.178562   -1.889162    1.698009
 C   -2.463121   -0.384002   -1.244059
 C   -2.671467   -1.191109   -0.153867
 C   -3.496197    0.514171   -1.610484
 C    3.220194   -0.717889    0.503533
 C    2.043273    2.252978    0.470470
 C    1.358975    3.447644    0.353063
 C    1.515924    1.080249   -0.094111
 C    0.287544    1.128450   -0.777907
 C    1.026951   -0.981167   -0.872052
 C    1.980765   -0.275400   -0.165452
 C    0.908044   -2.451837   -1.089715
 C   -1.179863   -0.438960   -2.041579
 C    4.385854   -1.186196   -0.298384
 C    5.797653   -1.027049    1.517866
 C    3.367089   -0.643793    1.835485
 C   -5.373152   -1.748742    2.353686
 C   -6.330633   -0.806022    1.903628
 C   -6.077608   -0.024264    0.807109
 N   -4.639066    0.642417   -0.981335
 N   -0.002883   -0.130453   -1.236513
 C    0.131720    3.437147   -0.345775
 C   -0.430985    2.322842   -0.920703
 O   -0.157706   -3.027326   -1.016003
 N    5.685884   -1.112759    0.249518
 C    4.669713   -0.937906    2.497666
 O    4.257116   -1.639035   -1.423528
 O    2.029640   -3.109578   -1.337120
 C    1.868667    4.740090    0.931880
 F   -0.523850    4.607465   -0.447050
 H   -3.439724   -2.611592    2.034577
 H   -1.912554   -1.909815    0.144953
 H   -3.354020    1.157861   -2.480954
 H    2.995648    2.226370    0.993851
 H   -1.218175    0.280421   -2.867915
 H   -1.042228   -1.431643   -2.468442
 H    6.811365   -1.002618    1.923371
 H    2.525546   -0.357076    2.460800
 H   -5.592990   -2.361514    3.222668
 H   -7.272490   -0.707677    2.435125
 H   -6.795227    0.702848    0.441552
 H   -1.385464    2.391852   -1.427710
 H    4.909779   -0.170233    3.245483
 H    4.614409   -1.878431    3.067765
 H    2.784025   -2.497705   -1.514369
 H    1.163201    5.155410    1.659217
 H    2.827529    4.586089    1.434121
 H    2.008725    5.496352    0.152514
