117 
4mz6_ligand_dft.xyz
 N    1.684602    0.373953   -2.954364
 C    1.638660   -1.131295   -3.012804
 C    0.154212   -1.501972   -2.855991
 O   -0.585593   -1.333351   -3.819759
 C    2.632521   -1.711634   -2.012313
 O    2.213927   -1.391070   -0.710745
 N   -0.256502   -1.898243   -1.638929
 C   -1.675113   -2.036265   -1.325312
 C   -2.225470   -0.607553   -1.135703
 O   -2.297590   -0.068466   -0.033823
 C   -1.858307   -2.893821   -0.081212
 C   -3.325999   -3.152402    0.262955
 C   -3.451294   -3.872992    1.606749
 C   -4.879671   -4.032030    2.113296
 N   -5.527344   -2.706142    2.336552
 N   -2.561450    0.010959   -2.288814
 C   -2.879606    1.426769   -2.346889
 C   -1.636439    2.248130   -1.959430
 O   -0.522327    1.922092   -2.397022
 C   -4.176677    1.777316   -1.603695
 C   -5.336991    0.870667   -2.008302
 C   -6.625197    1.216361   -1.252437
 N   -7.590524    0.134069   -1.314912
 C   -7.440721   -1.010211   -0.578852
 N   -8.458403   -1.914981   -0.722186
 N   -6.444125   -1.267939    0.213540
 N   -1.816137    3.343946   -1.215349
 C   -0.766749    4.322651   -0.907635
 C    0.084674    3.819906    0.278422
 O    0.016624    4.304624    1.393314
 C   -1.394278    5.672998   -0.607326
 N    0.899989    2.786987   -0.058043
 C    1.694836    2.078853    0.912504
 C    3.026365    1.699456    0.273001
 O    3.112463    1.423174   -0.936622
 C    0.989908    0.815722    1.447444
 C   -0.248139    1.145819    2.283450
 C   -0.746661   -0.081790    3.044933
 N   -1.845301    0.204390    3.945951
 C   -3.138801   -0.196644    3.785800
 N   -3.917693    0.012904    4.894462
 N   -3.661819   -0.721816    2.718116
 N    4.101321    1.652182    1.065448
 C    5.395523    1.234725    0.544780
 C    5.439629   -0.294555    0.372859
 O    4.493073   -1.026396    0.676400
 C    6.372612    1.734945    1.624439
 C    5.563828    1.566335    2.913340
 C    4.150986    1.986049    2.500106
 N    6.597468   -0.768216   -0.103411
 C    6.921197   -2.183452   -0.168816
 C    8.440052   -2.258778   -0.264293
 O    8.873809   -3.515408   -0.258427
 C    6.238505   -2.903574   -1.334862
 O    9.152780   -1.285464   -0.340762
 H    2.270435    0.759147   -3.697066
 H    0.743463    0.806664   -3.036397
 H    2.100533    0.717018   -2.045050
 H    1.910722   -1.430465   -4.026691
 H    2.683163   -2.797839   -2.169333
 H    3.626797   -1.295535   -2.221444
 H    2.996102   -1.267917   -0.128717
 H    0.425428   -1.890060   -0.881838
 H   -2.161448   -2.504885   -2.186621
 H   -1.336052   -3.844350   -0.238507
 H   -1.371190   -2.391587    0.763553
 H   -3.798441   -3.748668   -0.527879
 H   -3.865560   -2.199137    0.295186
 H   -3.012668   -4.874669    1.533433
 H   -2.875182   -3.328533    2.364666
 H   -5.497385   -4.593901    1.406804
 H   -4.877279   -4.571573    3.062914
 H   -6.258142   -2.764527    3.045413
 H   -5.977945   -2.306272    1.452704
 H   -4.815409   -1.944889    2.619590
 H   -2.257490   -0.442136   -3.145576
 H   -3.029358    1.648505   -3.410167
 H   -4.437200    2.819380   -1.831005
 H   -4.011571    1.692148   -0.524002
 H   -5.070910   -0.169267   -1.797368
 H   -5.520453    0.933633   -3.087017
 H   -7.096903    2.101619   -1.685437
 H   -6.400465    1.469978   -0.204815
 H   -8.530940    0.366483   -1.597011
 H   -8.937553   -1.954653   -1.609935
 H   -8.302328   -2.814529   -0.294296
 H   -5.839913   -0.461615    0.345428
 H   -2.723754    3.513796   -0.807388
 H   -0.128720    4.383870   -1.795201
 H   -2.006001    6.006532   -1.449971
 H   -0.613337    6.414722   -0.429274
 H   -2.004507    5.624916    0.299107
 H    0.794453    2.393116   -0.984663
 H    1.857685    2.775567    1.739192
 H    0.715154    0.183484    0.594624
 H    1.707943    0.235744    2.043536
 H   -1.048577    1.521127    1.638975
 H   -0.010207    1.943839    2.997116
 H   -1.075356   -0.852673    2.343499
 H    0.074240   -0.515000    3.631309
 H   -1.660961    0.849626    4.700252
 H   -3.516070   -0.105253    5.812138
 H   -4.893117   -0.222957    4.808355
 H   -3.071425   -0.605867    1.895685
 H    5.570945    1.699049   -0.429776
 H    7.317302    1.187713    1.637750
 H    6.595974    2.790635    1.443449
 H    5.945187    2.170550    3.738023
 H    5.566587    0.518026    3.228802
 H    3.996532    3.061967    2.635980
 H    3.379534    1.447090    3.054971
 H    7.385989   -0.149722   -0.268088
 H    6.616554   -2.662065    0.768975
 H    9.843591   -3.500644   -0.325204
 H    5.157582   -2.871353   -1.183768
 H    6.553275   -3.948670   -1.372255
 H    6.488385   -2.423395   -2.285778
