117 
4mz6_ligand_ani.xyz
 N    1.810396    0.742416   -2.776785
 C    1.592864   -0.713194   -3.066504
 C    0.076632   -0.946894   -3.008466
 O   -0.622848   -0.543152   -3.938172
 C    2.443443   -1.567251   -2.127412
 O    2.099903   -1.300730   -0.779520
 N   -0.425641   -1.545321   -1.910902
 C   -1.863454   -1.718688   -1.727292
 C   -2.479550   -0.383667   -1.235741
 O   -2.806306   -0.212126   -0.064217
 C   -2.118488   -2.883212   -0.774165
 C   -3.591371   -3.277342   -0.655879
 C   -3.819484   -4.380702    0.380772
 C   -5.291736   -4.613144    0.738694
 N   -5.885848   -3.444836    1.442284
 N   -2.632552    0.545820   -2.213082
 C   -2.849626    1.972460   -2.001960
 C   -1.498679    2.663096   -1.703297
 O   -0.463434    2.242421   -2.221667
 C   -3.969537    2.294738   -1.005915
 C   -5.296866    1.621592   -1.347533
 C   -6.283330    1.698728   -0.182732
 N   -7.504681    0.949123   -0.442154
 C   -7.502198   -0.428146   -0.339061
 N   -8.767024   -0.988120   -0.433330
 N   -6.485375   -1.194508   -0.157833
 N   -1.499228    3.762574   -0.913399
 C   -0.288567    4.516156   -0.593147
 C    0.463583    3.863783    0.586210
 O    0.619539    4.428080    1.657499
 C   -0.612417    5.969347   -0.292079
 N    0.916494    2.608256    0.326468
 C    1.672186    1.813464    1.260137
 C    3.054726    1.481548    0.668388
 O    3.245994    1.447207   -0.546583
 C    0.916676    0.512817    1.586229
 C   -0.331265    0.741051    2.440234
 C   -1.076969   -0.561136    2.705973
 N   -2.259637   -0.342632    3.524749
 C   -3.380633   -1.140835    3.428938
 N   -4.120117   -1.237758    4.601631
 N   -3.802983   -1.723833    2.366859
 N    4.054578    1.186412    1.535603
 C    5.404981    0.941260    1.038969
 C    5.551524   -0.442857    0.375145
 O    4.652360   -1.273443    0.273966
 C    6.272994    1.081316    2.304471
 C    5.330365    0.660212    3.433495
 C    3.983762    1.237530    2.999064
 N    6.799832   -0.703097   -0.088220
 C    7.168775   -2.011649   -0.580593
 C    8.664611   -2.168674   -0.388722
 O    9.082723   -3.410666   -0.671721
 C    6.784565   -2.218791   -2.050013
 O    9.411271   -1.283311   -0.041575
 H    2.541247    1.143242   -3.382319
 H    0.925423    1.265059   -2.908477
 H    2.134568    0.845691   -1.794535
 H    1.871349   -0.915083   -4.099877
 H    2.299623   -2.631754   -2.347305
 H    3.502011   -1.332709   -2.299174
 H    2.932425   -1.218115   -0.275552
 H    0.188514   -1.702595   -1.118221
 H   -2.282249   -1.938833   -2.716664
 H   -1.523777   -3.738266   -1.118643
 H   -1.735536   -2.610099    0.223087
 H   -3.970625   -3.612782   -1.632180
 H   -4.169942   -2.383936   -0.399985
 H   -3.395851   -5.322903    0.009900
 H   -3.275184   -4.139741    1.304235
 H   -5.877704   -4.804186   -0.162419
 H   -5.384151   -5.483429    1.387944
 H   -6.632019   -3.741065    2.097502
 H   -6.301355   -2.762187    0.747071
 H   -5.133306   -2.918808    1.976333
 H   -2.153133    0.322176   -3.083112
 H   -3.143421    2.361016   -2.987370
 H   -4.131695    3.382180   -0.984187
 H   -3.641387    1.983765   -0.009176
 H   -5.134588    0.571752   -1.607982
 H   -5.755418    2.088660   -2.227829
 H   -6.570992    2.741040   -0.006945
 H   -5.795511    1.344808    0.743436
 H   -8.349384    1.370838   -0.080505
 H   -9.359415   -0.560488   -1.132537
 H   -8.709114   -1.991880   -0.551302
 H   -5.612808   -0.693087   -0.019271
 H   -2.327954    3.991007   -0.385999
 H    0.351501    4.442826   -1.481620
 H   -1.117875    6.428810   -1.147064
 H    0.306054    6.525520   -0.086921
 H   -1.250588    6.052557    0.593532
 H    0.773482    2.231691   -0.604224
 H    1.789260    2.414899    2.167783
 H    0.635570    0.036885    0.636146
 H    1.592276   -0.195013    2.088061
 H   -1.004236    1.446874    1.936707
 H   -0.047604    1.198454    3.399099
 H   -1.396575   -0.980276    1.749865
 H   -0.397224   -1.295636    3.171002
 H   -2.086236    0.039952    4.443572
 H   -3.581072   -1.395801    5.442545
 H   -4.852451   -1.928550    4.496415
 H   -3.282028   -1.447583    1.539066
 H    5.663580    1.692462    0.283378
 H    7.187022    0.479114    2.269173
 H    6.567556    2.129130    2.420962
 H    5.647201    1.030100    4.411714
 H    5.264427   -0.431432    3.482312
 H    3.855919    2.272803    3.347453
 H    3.140647    0.649431    3.373543
 H    7.561824   -0.056384    0.066867
 H    6.657209   -2.768470    0.024510
 H   10.045236   -3.415322   -0.536707
 H    5.706106   -2.074354   -2.153806
 H    7.041624   -3.230386   -2.373158
 H    7.294540   -1.494807   -2.692709
