52 
4mzo_ligand_dft.xyz
 S    3.311234    0.690640   -0.402501
 N    2.359805   -0.032218   -1.578855
 C    0.032552   -0.217891   -1.194210
 C    0.580459   -1.651892   -1.385369
 C   -1.402325   -0.059821   -1.689859
 C    1.099189    0.626214   -1.921171
 C    2.108438   -1.482919   -1.497727
 N   -2.070082    1.068521   -1.345253
 C    0.145358   -2.561731   -0.238515
 N   -2.260627   -1.224098    1.857656
 O    3.580565    2.037295   -0.875060
 O    4.366424   -0.258269   -0.103902
 C    2.258808    0.847691    1.034983
 C   -2.395181   -2.485019    1.871788
 O   -1.939934   -0.951403   -2.352048
 O    0.898516   -2.962334    0.636230
 N   -1.187639   -2.844976   -0.252374
 O   -3.820836    2.421225    0.396030
 C   -1.583604    2.152061   -0.497421
 C   -3.489600    1.196602   -1.666665
 C   -1.838225   -3.477218    0.864208
 C   -4.279831    1.324219   -0.367269
 C   -2.463814    2.261383    0.747860
 C    1.664101    2.078112    1.303753
 C    1.934170   -0.289565    1.772800
 C    0.946242   -0.202613    2.747340
 C    0.700920    2.159838    2.306575
 C    0.322795    1.016700    3.007546
 H    0.071213    0.032559   -0.128625
 H    0.162750   -2.042154   -2.318291
 H    0.952100    0.571323   -3.006100
 H    1.122712    1.681022   -1.640828
 H    2.490121   -1.954759   -2.406485
 H    2.628286   -1.927201   -0.648567
 H   -1.702957   -0.957687    1.037912
 H   -2.964599   -2.928492    2.693970
 H   -1.740027   -2.465682   -1.016127
 H   -0.548177    1.990576   -0.204807
 H   -1.636549    3.088071   -1.067512
 H   -3.633869    2.095902   -2.277452
 H   -3.792737    0.321042   -2.239760
 H   -1.109852   -4.119440    1.370265
 H   -2.650236   -4.120869    0.508095
 H   -5.336180    1.508656   -0.577195
 H   -4.187403    0.392240    0.212962
 H   -2.331960    1.368600    1.378312
 H   -2.182733    3.145007    1.326799
 H    1.959054    2.950569    0.729592
 H    2.409811   -1.240319    1.565411
 H    0.653714   -1.094405    3.290690
 H    0.235474    3.115415    2.529009
 H   -0.458481    1.072169    3.758649
