47 
4n00_ligand_ani.xyz
 C   -3.541501   -0.777166   -0.066455
 C   -4.524065   -1.536463   -0.699845
 C   -5.837265   -1.080914   -0.755438
 C   -6.134785    0.131102   -0.153452
 N   -5.217972    0.878192    0.471427
 C   -3.993651    0.426588    0.496269
 C   -2.126600   -1.209160   -0.001170
 C   -1.795132   -2.554484    0.206799
 C   -0.474592   -2.960039    0.268868
 C    0.550599   -2.025364    0.105771
 C    0.246505   -0.685911   -0.146806
 C   -1.087762   -0.294878   -0.164073
 O    1.825216   -2.493497    0.160222
 C    2.837110   -1.513519    0.405933
 C    2.679904   -0.356490   -0.576297
 C    1.334540    0.354976   -0.365092
 C    4.185405   -2.189439    0.206391
 C    5.306750   -1.154552    0.215936
 O    5.082780   -0.143023   -0.747281
 C    3.888097    0.570695   -0.490328
 N    1.044322    1.270894   -1.465212
 C    0.700561    2.539096   -1.033405
 N    0.982501    2.576331    0.338147
 C    1.360592    1.341792    0.819053
 O    1.666702    1.099729    1.966207
 N    0.215837    3.443611   -1.783006
 C    0.793711    3.739772    1.171583
 F   -3.112666    1.201790    1.149404
 H   -4.253169   -2.475769   -1.175276
 H   -6.607761   -1.660977   -1.252950
 H   -7.145854    0.531172   -0.163617
 H   -2.584397   -3.289771    0.347256
 H   -0.208914   -3.998135    0.440374
 H   -1.331590    0.751590   -0.328181
 H    2.725937   -1.136581    1.434337
 H    2.656361   -0.779316   -1.587557
 H    4.348707   -2.945256    0.982906
 H    4.172211   -2.702767   -0.762547
 H    6.268481   -1.611228   -0.035166
 H    5.394530   -0.701055    1.219485
 H    3.934154    1.039260    0.505477
 H    3.812703    1.361626   -1.242089
 H    0.554056    0.930631   -2.279202
 H    0.045466    4.299291   -1.260098
 H    1.379005    4.585457    0.794470
 H   -0.264795    4.023162    1.216856
 H    1.137937    3.479857    2.172757
