27 
4n07_ligand_ani.xyz
 C    3.161608    1.756551   -0.642445
 C    3.917501    0.493959   -0.350734
 C    2.689570    0.829025    0.442079
 N    1.524493    0.040098    0.189315
 C    1.618381   -1.372933    0.495269
 N    0.752097   -2.176870   -0.368140
 S   -0.858821   -1.903983   -0.047655
 O   -1.117782   -2.408770    1.288069
 O   -1.634472   -2.360761   -1.185565
 C   -0.904800   -0.128362   -0.016827
 C    0.262858    0.639868    0.180224
 C    0.100239    2.025321    0.311919
 C   -1.148885    2.624926    0.214237
 C   -2.263000    1.835185   -0.023601
 F   -3.467301    2.415316   -0.132989
 C   -2.156790    0.462465   -0.146110
 H    2.564490    1.789706   -1.547807
 H    3.618465    2.698199   -0.346608
 H    4.886303    0.567267    0.134804
 H    3.832175   -0.315740   -1.069511
 H    2.836572    1.154032    1.476143
 H    1.395775   -1.574317    1.550948
 H    2.637484   -1.699417    0.292807
 H    0.940084   -1.994345   -1.350060
 H    0.960851    2.656136    0.496752
 H   -1.263860    3.698938    0.314107
 H   -3.039686   -0.136937   -0.344510
