60 
4n1b_ligand_dft.xyz
 C   -0.424068    3.394404   -0.895355
 C   -0.790789    2.788044    0.444322
 C   -1.916983    3.551892    1.161222
 C   -3.301551    3.353070    0.537430
 C   -3.629006    1.867880    0.375692
 C   -2.541343    1.150185   -0.421406
 C   -0.125162    0.487742   -0.498171
 O   -0.307567    0.217451   -1.682864
 C    2.716559    1.178737    1.429353
 C    3.323838   -0.578745   -0.281323
 C    4.283005   -1.278961   -1.017342
 C    5.638762   -1.036717   -0.841298
 C    6.051902   -0.079117    0.081464
 C    5.103001    0.624981    0.811319
 C   -0.650751   -2.811094   -1.247916
 C   -2.068276   -2.652991   -0.765958
 C   -3.267214   -2.683223   -1.464867
 C   -4.444833   -2.437187   -0.760199
 C   -4.428800   -2.171972    0.613637
 C   -3.226081   -2.150599    1.311918
 O    0.884934    3.208604   -1.166195
 O   -1.162419    3.967709   -1.660105
 C   -1.178185    1.290100    0.268216
 N    0.980983    0.047933    0.171790
 C    1.394836    0.424195    1.516047
 C    3.737299    0.388247    0.642341
 C    1.857908   -0.897404   -0.498214
 C    1.533888   -2.348351   -0.023478
 N    0.122542   -2.631471   -0.025383
 C   -2.061104   -2.396600    0.598826
 C   -0.657114   -2.356072    1.075279
 O   -0.254431   -2.105676    2.201069
 H    0.115873    2.847391    1.055394
 H   -1.667232    4.618011    1.200034
 H   -1.936001    3.193013    2.199547
 H   -4.052028    3.845677    1.166531
 H   -3.325077    3.839464   -0.442388
 H   -4.595690    1.745762   -0.125497
 H   -3.726253    1.395958    1.364834
 H   -2.780815    0.089190   -0.530520
 H   -2.478081    1.563893   -1.432614
 H    3.095425    1.385390    2.436722
 H    2.545235    2.144733    0.936154
 H    3.960622   -2.016676   -1.748787
 H    6.369137   -1.589691   -1.424155
 H    7.109233    0.117451    0.231309
 H    5.422095    1.374685    1.531573
 H   -0.403276   -2.036682   -1.982349
 H   -0.464651   -3.800088   -1.685974
 H   -3.293106   -2.872000   -2.534027
 H   -5.393323   -2.443649   -1.289042
 H   -5.362775   -1.978874    1.132188
 H   -3.180628   -1.942575    2.376404
 H    1.029354    3.535091   -2.068935
 H   -1.272114    0.868921    1.278040
 H    1.490983   -0.481741    2.122987
 H    0.627314    1.030987    1.991904
 H    1.629607   -0.817950   -1.562906
 H    2.057407   -3.064884   -0.664754
 H    1.891521   -2.493401    0.999010
