29 
4n1u_ligand_xtb.xyz
 C   -1.228264    0.020024    0.499683
 C   -3.827658   -3.158522    0.145207
 N   -2.612046    3.502846   -0.960438
 C   -2.145338    2.307813   -0.519284
 N   -0.827013    2.192709   -0.383282
 C   -0.378002    1.037946    0.114725
 C    1.086394    0.938667    0.273064
 C    1.769458    2.023605    0.815322
 C    3.136529    1.981304    1.007631
 C    3.853207    0.852086    0.652006
 C    3.192455   -0.226384    0.086474
Cl    4.094772   -1.620766   -0.384001
 C    1.814742   -0.187741   -0.106877
Cl    1.049817   -1.523685   -0.879720
 C   -2.600855    0.233703    0.282555
 N   -3.536276   -0.691373    0.600924
 C   -3.238261   -2.047272    0.951223
 C   -2.558452   -2.946814   -0.041277
 N   -3.052780    1.375408   -0.235655
 H   -0.870923   -0.885323    0.954839
 H   -4.722782   -3.685933   -0.073295
 H   -1.945066    4.126303   -1.379208
 H   -3.568827    3.538525   -1.263802
 H    1.196385    2.898214    1.078826
 H    3.651057    2.828061    1.434761
 H    4.920401    0.800690    0.797866
 H   -4.479423   -0.451923    0.332887
 H   -3.056695   -2.178579    2.016959
 H   -1.641057   -3.161982   -0.530131
