29 
4n1u_ligand_ani.xyz
 C   -1.233961    0.030558    0.464497
 C   -4.007375   -3.156495    0.487390
 N   -2.597704    3.454581   -1.146604
 C   -2.137716    2.302530   -0.576161
 N   -0.812430    2.212288   -0.399608
 C   -0.372228    1.051379    0.096582
 C    1.103439    0.921428    0.295093
 C    1.769233    1.935650    0.987603
 C    3.123341    1.843339    1.276141
 C    3.850654    0.741207    0.848150
 C    3.220043   -0.261231    0.121040
Cl    4.172801   -1.607606   -0.411482
 C    1.852948   -0.173650   -0.165515
Cl    1.126398   -1.401973   -1.149407
 C   -2.604007    0.258518    0.270491
 N   -3.557839   -0.663070    0.622697
 C   -3.207727   -2.001867    0.961432
 C   -2.857203   -3.011109   -0.080043
 N   -3.062478    1.390556   -0.262346
 H   -0.856053   -0.898929    0.872321
 H   -4.925344   -3.698922    0.639138
 H   -1.963582    4.237827   -1.136983
 H   -3.582090    3.644568   -1.039423
 H    1.200212    2.804946    1.304277
 H    3.616043    2.635079    1.831700
 H    4.910704    0.650316    1.061549
 H   -4.460641   -0.470368    0.214783
 H   -2.713847   -2.045086    1.940019
 H   -2.095278   -3.338621   -0.771441
