62 
4n4v_ligand_ani.xyz
 C    4.379942    1.479767    1.068091
 C    4.790363    2.772013    1.383890
 C    5.512331    3.523291    0.460974
 C    5.827255    2.972550   -0.777808
 C    5.416523    1.679231   -1.088127
 C    4.678683    0.922089   -0.176940
 C    4.295291   -0.493620   -0.551531
 C    5.337385   -1.595029   -0.190177
 C    6.236319   -1.938603   -1.366072
 C    6.137698   -1.287143    1.067685
 O    4.503181   -2.741016    0.078626
 C    3.215507   -2.373273    0.279733
 O    2.345327   -3.158283    0.567601
 N    3.105011   -1.012951    0.096870
 C    1.813151   -0.340202   -0.019365
 C    0.975842   -0.862064   -1.194069
 C   -0.351155   -0.108559   -1.300440
 C   -1.149925   -0.185963    0.012920
 C   -0.296741    0.317247    1.189459
 C    1.024981   -0.443193    1.286876
 C   -2.475741    0.537161   -0.077471
 C   -3.687287   -0.148016   -0.037918
 C   -4.899257    0.520709   -0.103328
 C   -4.862107    1.938761   -0.251822
 N   -3.698411    2.601483   -0.296108
 C   -2.559175    1.918794   -0.207513
 N   -7.332463    0.353222    0.115353
 C   -8.417519   -0.405697    0.227199
 C   -8.365149   -1.790249    0.207180
 C   -7.101425   -2.343864    0.074402
 N   -5.999789   -1.604079   -0.018438
 C   -6.146763   -0.274568   -0.001267
 N   -5.982484    2.693306   -0.389055
 H    3.820340    0.900342    1.800890
 H    4.541466    3.193225    2.354265
 H    5.829648    4.533026    0.707797
 H    6.391393    3.551425   -1.505033
 H    5.670537    1.252239   -2.057107
 H    4.163855   -0.507961   -1.650028
 H    6.821914   -1.062039   -1.665943
 H    5.640247   -2.277497   -2.218408
 H    6.933273   -2.737180   -1.092692
 H    6.766242   -2.142532    1.329628
 H    6.766753   -0.407408    0.902108
 H    5.476692   -1.069636    1.914322
 H    2.040669    0.720390   -0.204751
 H    0.792695   -1.933726   -1.036327
 H    1.550123   -0.762744   -2.123608
 H   -0.951577   -0.515315   -2.121969
 H   -0.163900    0.947533   -1.545023
 H   -1.363035   -1.251110    0.198940
 H   -0.093965    1.390346    1.059754
 H   -0.863243    0.220133    2.122708
 H    1.637677   -0.049906    2.106533
 H    0.848102   -1.503823    1.501532
 H   -3.710784   -1.229186    0.051714
 H   -1.650052    2.521500   -0.249478
 H   -9.366879    0.115568    0.329414
 H   -9.256176   -2.401330    0.290847
 H   -6.956942   -3.422242    0.049141
 H   -6.872208    2.267937   -0.159600
 H   -5.848152    3.688062   -0.307148
