20 
4n6g_ligand_dft.xyz
 O    0.591265    2.626734    0.001234
 C    0.652424    1.411701    0.000942
 C   -0.546814    0.530817    0.000685
 C   -1.806869    1.132157   -0.000846
 C   -2.950176    0.348503   -0.001809
 N    1.873253    0.767973    0.000217
 C    2.135762   -0.594045   -0.000735
 C    0.934651   -1.518501    0.004086
 C   -0.421679   -0.858706    0.001301
 C   -1.578460   -1.638915    0.000220
 C   -2.832727   -1.041725   -0.001327
 N    3.355606   -0.958725   -0.004281
 H   -1.858904    2.215729   -0.001329
 H   -3.930643    0.813875   -0.003017
 H    2.688081    1.369979   -0.001345
 H    1.023639   -2.167612    0.883861
 H    1.023191   -2.177024   -0.868607
 H   -1.493253   -2.722849    0.000625
 H   -3.723778   -1.662407   -0.002202
 H    3.422868   -1.976019   -0.004502
