43 
4n6z_ligand_ani.xyz
 O   -1.869935    2.559362    0.115630
 C   -1.521965    1.387327   -0.034594
 C   -2.477622    0.236394   -0.058874
 C   -3.873324    0.414776    0.147641
 N   -4.412824    1.627056    0.394820
 N   -4.707456   -0.634717    0.111385
 C   -4.164867   -1.827140   -0.121309
 C   -2.803102   -2.008772   -0.317467
 N   -1.965513   -0.975433   -0.279579
 N   -0.239523    0.969934   -0.196423
 C    0.964311    1.685711   -0.111609
 C    1.046090    3.073058   -0.057985
 N    2.203922    3.732865    0.023667
 C    3.324128    3.010860    0.060238
 C    3.356764    1.619287    0.021595
 C    2.151187    0.930963   -0.067941
 N    2.035376   -0.485315   -0.121477
 C    1.868937   -1.049232   -1.470872
 C    1.269359   -2.449943   -1.362028
 C    2.098055   -3.318341   -0.403413
 C    3.039910   -1.237999    0.621376
 C    2.454220   -2.621922    0.917825
 N    1.233635   -2.423820    1.781228
 H   -5.412172    1.690736    0.485694
 H   -3.816566    2.442656    0.374179
 H   -4.845908   -2.675284   -0.151352
 H   -2.381689   -2.993534   -0.506158
 H   -0.147202   -0.034509   -0.288830
 H    0.132841    3.659714   -0.086256
 H    4.252983    3.572950    0.131639
 H    4.303995    1.088862    0.058695
 H    1.224800   -0.383761   -2.053456
 H    2.842585   -1.082535   -1.993557
 H    1.236901   -2.913277   -2.355228
 H    0.227229   -2.375055   -1.020152
 H    1.590417   -4.268874   -0.198134
 H    3.046993   -3.578439   -0.891198
 H    3.261908   -0.710459    1.553779
 H    3.981554   -1.347669    0.057194
 H    3.175619   -3.222649    1.470509
 H    1.507898   -2.319103    2.775897
 H    0.578538   -3.218378    1.683255
 H    0.772955   -1.550432    1.457597
