56 
4n70_ligand_dft.xyz
 C    1.013890   -3.335784   -0.263433
 C    2.284666   -2.563817   -0.703919
 N    2.399235   -1.302348    0.028508
 C    2.145315   -1.472777    1.454307
 C    0.665767   -1.804109    1.666506
 C    0.027782   -2.366297    0.399340
 C    3.517132   -0.461217   -0.240320
 C    4.790674   -0.900863   -0.571101
 C    5.792930    0.052683   -0.745505
 N    5.602166    1.360890   -0.594818
 C    4.375042    1.793584   -0.300444
 C    3.297384    0.923908   -0.138026
 N    1.961249    1.311842    0.068877
 C    0.376468   -4.073158   -1.438543
 C    1.456402    2.557462    0.295779
 C   -0.049889    2.612567    0.170974
 O    2.103994    3.554763    0.547166
 C   -0.657581    3.852829    0.006611
 C   -2.026251    3.901079   -0.211611
 C   -2.713641    2.699403   -0.267077
 C   -2.055190    1.486338   -0.070030
 N   -0.737316    1.460889    0.159240
 C   -2.808773    0.207210   -0.177137
 F   -4.018092    2.688287   -0.507502
 N   -0.131450   -0.599259    2.082405
 C   -3.126856   -0.318941   -1.430810
 C   -3.870683   -1.477346   -1.590325
 C   -4.347245   -2.126104   -0.453098
 C   -4.057317   -1.643166    0.820452
 C   -3.292266   -0.495738    0.919647
 F   -2.946611   -0.049527    2.152823
 F   -2.684385    0.329912   -2.507773
 O   -1.179804   -2.954256    0.834233
 H    1.289226   -4.078756    0.496655
 H    3.160298   -3.214698   -0.557785
 H    2.229899   -2.318979   -1.769361
 H    2.760746   -2.280190    1.880412
 H    2.425684   -0.555560    1.980469
 H    0.538648   -2.536463    2.467951
 H   -0.179802   -1.540465   -0.299437
 H    5.016090   -1.955865   -0.681620
 H    6.801707   -0.258513   -1.003921
 H    4.236979    2.863155   -0.192247
 H    1.305494    0.605368   -0.245031
 H   -0.446161   -4.712031   -1.104379
 H   -0.004121   -3.365199   -2.185464
 H    1.108667   -4.717054   -1.934441
 H   -0.047499    4.748023    0.040208
 H   -2.555531    4.836367   -0.356566
 H   -0.187149    0.128529    1.323046
 H   -1.104014   -0.868620    2.274392
 H    0.242644   -0.156888    2.925240
 H   -4.090894   -1.836702   -2.588751
 H   -4.951846   -3.020314   -0.560815
 H   -4.408386   -2.138879    1.717483
 H   -1.776158   -3.058940    0.081935
