34 
4n7e_ligand_dft.xyz
 C   -2.148344   -1.497788   -0.691003
 C   -2.838217    0.609496    0.243026
 C   -1.415467    2.552662    0.652215
 C   -4.544979   -1.212227   -0.011870
 O    1.217163    1.775439   -1.065435
 C    0.904047    0.711216   -0.532631
 N    1.809557   -0.193835   -0.086864
 C    3.219190   -0.144427   -0.126738
 C    3.947355    0.891296   -0.712005
 C    5.330322    0.779387   -0.664217
 C    5.920367   -0.322423   -0.056096
 C    5.098437   -1.302689    0.499343
 C    5.656691   -2.523640    1.177991
 N    3.764659   -1.207360    0.458928
 C   -0.530243    0.284571   -0.366053
 C   -0.851037   -1.016832   -0.770694
 C   -3.144495   -0.677654   -0.173413
 C   -1.544449    1.123613    0.133496
 O   -2.184315    2.948416    1.494895
 O   -0.494591    3.349663    0.131561
 F   -4.848605   -2.088524   -0.984045
 F   -5.459821   -0.234912   -0.042570
 F   -4.683332   -1.856777    1.158333
 H   -2.381962   -2.500193   -1.032283
 H   -3.601987    1.249438    0.669129
 H    1.472334   -1.010617    0.406500
 H    3.448555    1.732215   -1.170671
 H    5.946387    1.557990   -1.103485
 H    6.999386   -0.423735   -0.009759
 H    6.749362   -2.532468    1.155252
 H    5.327923   -2.559506    2.221386
 H    5.288052   -3.430640    0.688844
 H   -0.075471   -1.654062   -1.184852
 H    0.072602    2.886348   -0.526249
