132 
4n7h_ligand_ani.xyz
 N   -1.333942    0.204241   -1.557297
 C   -2.143475   -0.936325   -2.037706
 C   -1.424900   -2.272566   -1.756070
 O   -1.112367   -3.032101   -2.662448
 C   -2.484942   -0.785281   -3.519947
 C   -3.650499   -1.673529   -3.968151
 C   -4.897400   -1.439782   -3.156969
 O   -5.139255   -0.132281   -2.966368
 O   -5.607213   -2.313462   -2.693268
 N   -1.194836   -2.506025   -0.440172
 C   -0.496077   -3.644460    0.135150
 C    1.016234   -3.353996    0.213232
 O    1.622627   -2.862436   -0.739959
 C   -0.736657   -4.971134   -0.591087
 N    1.656495   -3.690079    1.353328
 C    3.067813   -3.336842    1.541857
 C    3.937132   -4.029300    0.486078
 O    3.813181   -5.218208    0.247406
 C    3.369811   -3.853213    2.959333
 C    2.410389   -5.034047    3.122544
 C    1.142376   -4.551441    2.423512
 N    4.854810   -3.253348   -0.185661
 C    5.495361   -2.035435    0.312651
 C    4.854421   -0.712465   -0.131169
 O    5.413797    0.350046    0.149357
 C    6.920585   -2.122694   -0.265751
 C    6.707851   -2.862445   -1.586634
 C    5.648934   -3.908525   -1.236102
 N    3.697693   -0.762849   -0.821904
 C    3.137920    0.415425   -1.476477
 C    2.321121    1.322849   -0.527915
 O    1.202025    1.725906   -0.831132
 C    2.335597    0.014105   -2.713945
 O    1.162274   -0.719761   -2.436848
 N    2.941114    1.655533    0.632503
 C    2.413761    2.671853    1.536236
 C    1.122787    2.236921    2.256357
 O    0.325494    3.080622    2.666782
 C    2.201281    4.053916    0.888805
 C    3.446069    4.591363    0.229968
 C    3.636361    4.494833   -1.148378
 C    4.460667    5.178260    0.992699
 C    4.795249    4.972548   -1.754376
 C    5.622132    5.658938    0.406241
 C    5.791279    5.557018   -0.974446
 O    6.949661    6.044940   -1.501703
 N    0.963027    0.910785    2.443392
 C   -0.220079    0.320567    3.071221
 C   -1.438054    0.642992    2.192894
 O   -1.705752   -0.091082    1.240943
 C   -0.375379    0.699275    4.540969
 N   -2.153634    1.756739    2.506623
 C   -3.061251    2.383693    1.547039
 C   -4.136327    1.422230    1.029133
 O   -4.518150    1.459457   -0.136620
 C   -2.315626    3.128952    0.424039
 C   -3.230399    3.918966   -0.520829
 C   -3.580274    3.195539   -1.800393
 O   -2.828680    2.457973   -2.411342
 O   -4.781063    3.530941   -2.277085
 N   -4.677497    0.594850    1.952203
 C   -5.842264   -0.226138    1.673472
 C   -5.531473   -1.104225    0.447671
 O   -4.501285   -1.729560    0.344538
 C   -7.177678    0.555067    1.603147
 C   -7.257712    1.640085    2.679706
 C   -8.366622   -0.396518    1.746554
 O   -6.509873   -1.163094   -0.460696
 H   -0.345743    0.121271   -1.859540
 H   -1.380929    0.244625   -0.529405
 H   -1.738456    1.078128   -1.929013
 H   -3.064069   -0.929882   -1.438938
 H   -2.738432    0.264524   -3.686124
 H   -1.600271   -1.024041   -4.118130
 H   -3.892864   -1.460125   -5.016056
 H   -3.392675   -2.731311   -3.892476
 H   -5.840638   -0.027828   -2.297315
 H   -1.466882   -1.775767    0.210811
 H   -0.878840   -3.725382    1.159810
 H   -0.256253   -4.968625   -1.569548
 H   -0.340584   -5.807956   -0.004871
 H   -1.808541   -5.124770   -0.735122
 H    3.176765   -2.252332    1.464937
 H    4.419072   -4.135969    3.093043
 H    3.141344   -3.064294    3.684839
 H    2.807653   -5.900087    2.586382
 H    2.239094   -5.306685    4.166908
 H    0.555168   -5.378546    2.010772
 H    0.493361   -3.977943    3.101132
 H    5.508466   -2.016564    1.409914
 H    7.550417   -2.711668    0.409520
 H    7.362463   -1.130159   -0.376001
 H    7.626941   -3.308076   -1.977356
 H    6.314705   -2.176077   -2.344895
 H    6.086172   -4.837926   -0.852234
 H    5.001188   -4.170475   -2.078246
 H    3.279713   -1.668777   -1.003427
 H    4.000044    1.014475   -1.804829
 H    2.990637   -0.542868   -3.400794
 H    2.014191    0.924630   -3.227818
 H    1.375134   -1.562328   -1.994617
 H    3.938400    1.459643    0.672441
 H    3.167464    2.769643    2.330870
 H    1.850964    4.729864    1.674772
 H    1.395225    3.959393    0.156945
 H    2.860278    4.034205   -1.758128
 H    4.335457    5.263352    2.071908
 H    4.922866    4.894939   -2.833224
 H    6.408704    6.116458    0.999186
 H    6.941177    5.911255   -2.457881
 H    1.642007    0.301985    2.014766
 H   -0.088986   -0.762700    2.982935
 H   -1.319729    0.308222    4.930911
 H   -0.353430    1.781848    4.675743
 H    0.448920    0.268422    5.116620
 H   -1.605971    2.440338    3.018455
 H   -3.605035    3.144474    2.130682
 H   -1.627783    3.823953    0.920428
 H   -1.692076    2.429015   -0.142152
 H   -4.154903    4.235129   -0.032473
 H   -2.720391    4.835026   -0.846639
 H   -4.913532    2.992529   -3.076398
 H   -4.264812    0.560257    2.870763
 H   -5.897922   -0.938622    2.506821
 H   -7.211740    1.039043    0.620955
 H   -8.221353    2.156917    2.614972
 H   -7.181694    1.210117    3.687210
 H   -6.469276    2.389572    2.564812
 H   -9.306036    0.159321    1.653045
 H   -8.356704   -1.181177    0.989001
 H   -8.357647   -0.869057    2.737511
 H   -6.244008   -1.816901   -1.154697
