177 
4n84_ligand_ani.xyz
 N    2.906201    1.648561   -3.619561
 C    3.883947    0.533278   -3.696348
 C    3.288996   -0.815323   -3.280348
 O    2.153412   -1.102593   -4.076643
 O    0.374008   -0.585938   -2.110332
 C    0.627366   -1.841325   -1.566075
 C    2.174096   -2.029138   -1.292407
 C    2.638464   -3.310389   -1.999655
 N    2.886498   -0.808117   -1.851350
 C    2.465540   -2.130176    0.224439
 C    3.923704   -2.329577    0.664197
 C    4.033068   -2.921446    2.076115
 C    3.505783   -1.992697    3.171990
 C    3.586700   -2.559182    4.593231
 C    5.011739   -2.782332    5.096720
 N   -0.255650   -1.970499   -0.376552
 C   -1.562651   -2.711143   -0.536486
 C   -2.597593   -1.816858   -1.241923
 O   -2.306998   -0.720092   -1.730207
 C   -2.062504   -3.233229    0.833568
 C   -2.025014   -4.766774    1.005788
 C   -0.608553   -5.329918    0.865875
 C   -3.006906   -5.480092    0.074695
 N   -3.860201   -2.302411   -1.329897
 C   -4.938551   -1.374593   -1.623283
 C   -5.073488   -0.392706   -0.445662
 O   -5.187985   -0.804604    0.707476
 C   -6.266822   -2.108760   -1.890498
 C   -6.889581   -2.768970   -0.675712
 O   -6.105880   -3.734528   -0.137478
 O   -7.976450   -2.514919   -0.214709
 O   -3.567394    3.453209    1.004061
 C   -4.125960    2.354789    1.003491
 C   -5.345155    2.085694    0.076269
 C   -5.491807    3.293769   -0.849827
 N   -5.052286    0.920635   -0.781395
 C   -6.610803    1.898392    0.952058
 C   -7.969946    2.005854    0.244706
 C   -8.236001    0.941373   -0.821688
 C   -9.683263    0.898003   -1.320463
 C  -10.657074    0.246571   -0.336021
 C  -12.079338    0.166255   -0.883128
 N   -3.724878    1.340020    1.797447
 C   -2.443681    1.389782    2.503687
 C   -1.338124    1.232999    1.438954
 O   -0.833967    0.141701    1.166270
 C   -2.427364    0.322757    3.596221
 C   -1.250305    0.325066    4.599115
 C   -0.021696   -0.436010    4.097214
 C   -0.872407    1.733362    5.064852
 N   -1.002865    2.378976    0.793872
 C   -0.262601    2.321077   -0.462137
 C    1.243545    2.248797   -0.178381
 O    1.885821    1.231194   -0.430108
 C   -0.663862    3.480829   -1.376669
 C   -0.270462    3.246471   -2.828039
 O    0.237406    2.228415   -3.235905
 O   -0.541103    4.247896   -3.677368
 N    1.804187    3.336671    0.397598
 C    3.187841    3.362461    0.851334
 C    4.139847    3.092792   -0.340269
 O    3.775042    3.210061   -1.502523
 C    3.438320    2.431199    2.057892
 C    2.409271    2.529798    3.194252
 C    2.791857    1.563890    4.314692
 C    2.270764    3.948669    3.748816
 N    5.428779    2.781539   -0.018948
 C    6.358995    2.299235   -1.023679
 C    6.355248    0.756978   -1.052850
 O    5.353076    0.123425   -0.735511
 C    7.746712    2.911629   -0.827021
 N    7.482590    0.141546   -1.500098
 C    7.753759   -1.248362   -1.193956
 C    6.766035   -2.174561   -1.895501
 O    6.155647   -1.924673   -2.903758
 C    7.840351   -1.490284    0.318570
 O    8.743586   -0.514642    0.815484
 O    6.709657   -3.382705   -1.295605
 H    3.090631    2.340879   -4.356625
 H    1.932347    1.325786   -3.727305
 H    2.999711    2.150361   -2.721230
 H    4.741024    0.785435   -3.072164
 H    4.243929    0.438852   -4.725346
 H    4.048092   -1.587360   -3.422838
 H    2.454309   -1.254663   -4.983893
 H   -0.603781   -0.508387   -2.112082
 H    0.326861   -2.609116   -2.285839
 H    3.728233   -3.414923   -1.976150
 H    2.333744   -3.315435   -3.049152
 H    2.199172   -4.185998   -1.507284
 H    3.714341   -0.584332   -1.276009
 H    2.223937   -0.018783   -1.702265
 H    1.921444   -3.006754    0.604881
 H    2.062890   -1.241056    0.736134
 H    4.465019   -2.983928   -0.028123
 H    4.446343   -1.367511    0.648328
 H    3.497464   -3.881570    2.114969
 H    5.087079   -3.156855    2.273319
 H    2.455963   -1.736737    2.968936
 H    4.068162   -1.046478    3.119683
 H    3.061685   -1.875727    5.274753
 H    3.033159   -3.507557    4.631121
 H    5.590408   -1.851468    5.064588
 H    5.016560   -3.142824    6.130821
 H    5.543416   -3.523071    4.489397
 H   -0.486368   -1.010767   -0.040729
 H    0.257412   -2.442693    0.375622
 H   -1.377578   -3.561354   -1.205957
 H   -3.084749   -2.879973    1.026357
 H   -1.448268   -2.776165    1.622325
 H   -2.354791   -4.965916    2.034946
 H    0.077614   -4.861986    1.582321
 H   -0.197096   -5.159675   -0.137979
 H   -0.597534   -6.410567    1.047446
 H   -4.037251   -5.141244    0.240470
 H   -2.767448   -5.313624   -0.983679
 H   -2.979058   -6.563574    0.240715
 H   -4.114242   -3.095773   -0.756677
 H   -4.663790   -0.826272   -2.525787
 H   -7.003476   -1.400764   -2.284700
 H   -6.093212   -2.871744   -2.656411
 H   -6.594405   -4.064215    0.636376
 H   -5.711812    4.190908   -0.266860
 H   -4.560194    3.472334   -1.393797
 H   -6.293162    3.138915   -1.580289
 H   -4.789430    1.143160   -1.733167
 H   -6.550034    0.929150    1.455693
 H   -6.569230    2.674505    1.728918
 H   -8.087047    3.008262   -0.190049
 H   -8.739158    1.930451    1.023741
 H   -7.576640    1.113390   -1.681267
 H   -7.981591   -0.047368   -0.414526
 H   -9.713712    0.327446   -2.259699
 H  -10.028206    1.913581   -1.569181
 H  -10.662762    0.804009    0.610060
 H  -10.294692   -0.762115   -0.096292
 H  -12.470939    1.164366   -1.112714
 H  -12.111954   -0.422511   -1.807364
 H  -12.758199   -0.302680   -0.163573
 H   -4.189091    0.440535    1.682141
 H   -2.360965    2.390193    2.943445
 H   -3.358099    0.461061    4.161540
 H   -2.487781   -0.665094    3.118476
 H   -1.624623   -0.220781    5.477696
 H    0.465238    0.093756    3.272611
 H    0.719729   -0.552752    4.898028
 H   -0.287378   -1.436918    3.739749
 H   -0.182848    1.690638    5.915879
 H   -1.752936    2.307211    5.377756
 H   -0.365467    2.296856    4.268402
 H   -1.642045    3.158158    0.927832
 H   -0.487918    1.382719   -0.972024
 H   -0.230209    4.428992   -1.035347
 H   -1.756183    3.602093   -1.332497
 H   -0.954999    4.987669   -3.211068
 H    1.192777    4.060771    0.740010
 H    3.385409    4.397274    1.154051
 H    3.460544    1.394380    1.694850
 H    4.424996    2.654437    2.488180
 H    1.430360    2.214074    2.801442
 H    3.761175    1.834976    4.750933
 H    2.045081    1.575856    5.116878
 H    2.866921    0.536614    3.943541
 H    3.233496    4.311011    4.132128
 H    1.919875    4.661456    2.994170
 H    1.554986    3.967666    4.579625
 H    5.623613    2.532958    0.939557
 H    5.946504    2.627369   -1.983583
 H    8.271768    2.459780    0.023805
 H    7.637405    3.983054   -0.642446
 H    8.371019    2.794319   -1.719996
 H    8.302569    0.716657   -1.597665
 H    8.729371   -1.482933   -1.635083
 H    8.185988   -2.512294    0.513925
 H    6.838632   -1.365813    0.752634
 H    8.687262   -0.516428    1.777353
 H    6.114419   -3.925459   -1.839095
