29 
4n99_ligand_xtb.xyz
Cl  -21.078744    1.102471  -23.725379
 C  -22.755318    0.907445  -24.089694
 C  -23.537982    0.319036  -23.119290
 C  -24.894967    0.122492  -23.368267
 C  -25.971817   -0.425817  -22.620105
 C  -25.987081   -1.002782  -21.243599
 C  -27.431064   -1.083009  -20.743285
 C  -28.338680   -1.711664  -21.800577
 C  -28.449784   -0.802105  -23.027748
 C  -27.086291   -0.350004  -23.411877
 N  -26.768278    0.221553  -24.615448
 C  -25.434691    0.522232  -24.622238
 C  -24.645823    1.103328  -25.590946
 C  -23.291329    1.311186  -25.331447
 C  -22.539883    1.953993  -26.428919
 O  -21.308505    2.376696  -26.120970
 O  -22.998035    2.116231  -27.537310
 H  -23.098291    0.016062  -22.182636
 H  -25.544344   -2.004021  -21.261064
 H  -25.384270   -0.390657  -20.569578
 H  -27.791191   -0.077418  -20.516379
 H  -27.470944   -1.670266  -19.824530
 H  -29.331710   -1.889775  -21.385030
 H  -27.920815   -2.673905  -22.102521
 H  -29.070939    0.068220  -22.788958
 H  -28.929781   -1.330165  -23.855973
 H  -27.409058    0.389808  -25.372280
 H  -25.037657    1.410412  -26.548502
 H  -20.903728    2.788423  -26.900449
