29 
4n99_ligand_dft.xyz
Cl  -21.028112    1.054180  -23.675532
 C  -22.724722    0.902786  -24.082932
 C  -23.522336    0.316259  -23.115689
 C  -24.885231    0.126178  -23.366387
 C  -25.969900   -0.427331  -22.612015
 C  -25.994277   -1.005865  -21.228864
 C  -27.442826   -1.113743  -20.727693
 C  -28.370114   -1.705665  -21.796724
 C  -28.455362   -0.799894  -23.035710
 C  -27.081163   -0.345874  -23.408066
 N  -26.754168    0.233008  -24.613928
 C  -25.409478    0.530972  -24.615852
 C  -24.613956    1.111918  -25.588503
 C  -23.256452    1.315770  -25.332883
 C  -22.529057    1.969679  -26.459616
 O  -21.308541    2.438422  -26.167555
 O  -23.008264    2.105202  -27.566738
 H  -23.080778    0.004119  -22.175564
 H  -25.525942   -2.000348  -21.225398
 H  -25.405567   -0.386561  -20.541202
 H  -27.805639   -0.114325  -20.453284
 H  -27.478695   -1.726481  -19.820776
 H  -29.373686   -1.860269  -21.387175
 H  -27.990419   -2.690502  -22.097547
 H  -29.089462    0.071721  -22.820420
 H  -28.928561   -1.334442  -23.868915
 H  -27.391086    0.395661  -25.376048
 H  -25.004950    1.420061  -26.551930
 H  -20.982255    2.833363  -26.992056
