55 
4n9d_ligand_dft.xyz
 C    8.790604    0.276307    0.519896
 C    7.767789    0.935104   -0.425715
 C    8.233014    0.707757   -1.870478
 C    7.726879    2.453335   -0.165580
 C    6.380060    0.340405   -0.160095
 C    5.807352    0.463194    1.116612
 C    4.557477   -0.056669    1.405667
 C    3.849799   -0.717504    0.403262
 C    4.387031   -0.863129   -0.866293
 C    5.646296   -0.331385   -1.138651
 S    2.247718   -1.394533    0.768150
 O    2.276554   -2.058111    2.062060
 O    1.806644   -2.100178   -0.430163
 N    1.328883   -0.027412    1.022280
 C    0.721371    0.679823   -0.106016
 C   -0.764529    0.427519   -0.249730
 C   -1.251646   -0.860966   -0.494967
 C   -2.614202   -1.081205   -0.626161
 C   -3.520192   -0.025194   -0.494895
 C   -3.036421    1.262440   -0.263057
 C   -1.667510    1.483032   -0.141567
 C   -4.979706   -0.341575   -0.655368
 O   -5.360338   -1.270498   -1.345145
 N   -5.824424    0.487056    0.046966
 C   -7.228482    0.459475    0.097142
 C   -7.868170    1.309468    1.001344
 C   -9.252710    1.315912    1.060484
 C   -9.956690    0.470436    0.209104
 N   -9.360303   -0.345579   -0.658845
 C   -8.028269   -0.356232   -0.717423
 H    8.545288    0.449694    1.572475
 H    8.831030   -0.806011    0.357615
 H    9.790112    0.687631    0.338688
 H    8.312837   -0.358362   -2.109485
 H    7.557643    1.176836   -2.594486
 H    9.224418    1.151549   -2.008917
 H    7.000815    2.942590   -0.823793
 H    7.452919    2.683849    0.868853
 H    8.712032    2.894453   -0.355031
 H    6.350232    0.974099    1.906089
 H    4.131615    0.042160    2.398787
 H    3.828511   -1.393699   -1.629798
 H    6.048763   -0.456578   -2.137045
 H    0.735815   -0.162697    1.834310
 H    1.245255    0.367235   -1.014863
 H    0.908141    1.751632    0.019778
 H   -0.552179   -1.686929   -0.589833
 H   -2.998531   -2.073603   -0.836912
 H   -3.713800    2.111191   -0.213798
 H   -1.300792    2.491962    0.030136
 H   -5.384990    1.118708    0.700028
 H   -7.285527    1.958383    1.651982
 H   -9.775984    1.965484    1.754303
 H  -11.043768    0.447154    0.223888
 H   -7.570179   -1.034435   -1.425284
