58 
4n9e_ligand_dft.xyz
 C    2.500089    4.936578    0.287241
 C    3.892365    4.969393    0.252654
 C    4.618953    3.785958    0.315836
 C    3.957427    2.559619    0.384300
 C    2.561632    2.531164    0.430406
 C    1.835678    3.716938    0.386403
 C    4.783135    1.312174    0.527764
 O    5.725990    1.285518    1.304939
 N    4.398633    0.206474   -0.193498
 C    5.065474   -1.060589    0.064287
 C    4.034360   -2.189363    0.083572
 C    3.218659   -2.225691   -1.214521
 C    2.602057   -0.848104   -1.485941
 C    3.672974    0.240945   -1.454840
 C    2.183107   -3.358029   -1.227929
 N    1.154575   -3.246164   -0.208697
 C    1.213262   -3.740931    1.072622
 N    0.168287   -3.481373    1.803422
 C   -0.663072   -2.761660    0.960790
 C   -0.062409   -2.604804   -0.304831
 C   -0.698414   -1.937200   -1.351855
 C   -1.950143   -1.407408   -1.088461
 C   -2.560964   -1.537040    0.178810
 C   -1.928235   -2.231063    1.203668
 C   -3.920057   -0.977181    0.479790
 O   -4.649460   -1.472338    1.320520
 N   -4.254861    0.141821   -0.252183
 C   -5.446394    0.883998   -0.212917
 C   -5.503882    2.069584   -0.948438
 C   -6.672549    2.814455   -0.943206
 C   -7.752797    2.347722   -0.201467
 N   -7.713574    1.218648    0.504717
 C   -6.590193    0.500394    0.504204
 H    1.933444    5.862137    0.248450
 H    4.412708    5.920132    0.187807
 H    5.704166    3.799162    0.322071
 H    2.044973    1.579517    0.524143
 H    0.751411    3.688769    0.437774
 H    5.588418   -0.977825    1.016537
 H    5.820141   -1.249312   -0.715387
 H    3.364062   -2.030841    0.937434
 H    4.546630   -3.147434    0.237817
 H    3.912187   -2.450342   -2.039899
 H    1.842952   -0.623915   -0.726785
 H    2.103724   -0.838412   -2.463270
 H    4.387096    0.073990   -2.277713
 H    3.232417    1.225855   -1.604031
 H    2.687146   -4.319576   -1.082835
 H    1.682673   -3.402257   -2.201100
 H    2.078686   -4.302705    1.403426
 H   -0.247788   -1.843026   -2.334541
 H   -2.485793   -0.924105   -1.900913
 H   -2.416086   -2.353235    2.164149
 H   -3.512184    0.554789   -0.796202
 H   -4.639877    2.403758   -1.519351
 H   -6.744045    3.739783   -1.505265
 H   -8.687908    2.902090   -0.172945
 H   -6.583182   -0.407414    1.092993
