58 
4n9e_ligand_ani.xyz
 C    6.897475    3.729888   -0.599699
 C    7.958284    2.828940   -0.656514
 C    7.745508    1.485263   -0.375006
 C    6.464802    1.024852   -0.068855
 C    5.409009    1.934085    0.013083
 C    5.625436    3.282978   -0.252299
 C    6.307399   -0.437891    0.238701
 O    7.171238   -1.044464    0.857955
 N    5.167838   -1.059638   -0.202936
 C    4.905960   -2.409940    0.277208
 C    3.430508   -2.549696    0.624807
 C    2.556292   -2.177833   -0.582134
 C    2.919016   -0.791696   -1.121768
 C    4.415830   -0.709328   -1.403753
 C    1.053291   -2.378550   -0.341627
 N    0.337502   -1.320624    0.354799
 C    0.759579   -0.491045    1.362621
 N   -0.171382    0.278567    1.853743
 C   -1.308555   -0.062733    1.141632
 C   -1.014246   -1.067283    0.205222
 C   -1.994565   -1.632762   -0.614067
 C   -3.283088   -1.150416   -0.480483
 C   -3.597537   -0.127378    0.440312
 C   -2.613492    0.411388    1.258478
 C   -4.986156    0.403933    0.645157
 O   -5.283675    1.005002    1.665764
 N   -5.862501    0.178485   -0.386978
 C   -7.238725    0.467018   -0.441574
 C   -7.987290   -0.052273   -1.499574
 C   -9.345376    0.218565   -1.558063
 C   -9.909962    1.007044   -0.561136
 N   -9.205319    1.512716    0.450754
 C   -7.901795    1.248680    0.512094
 H    7.064275    4.781890   -0.816222
 H    8.956298    3.176572   -0.912534
 H    8.566824    0.773597   -0.388038
 H    4.416269    1.593401    0.300133
 H    4.796440    3.982261   -0.199088
 H    5.550409   -2.585303    1.138680
 H    5.186239   -3.140060   -0.498354
 H    3.212268   -1.898815    1.479262
 H    3.222468   -3.578872    0.945803
 H    2.804338   -2.908332   -1.369620
 H    2.652772   -0.023485   -0.389472
 H    2.351480   -0.571335   -2.033778
 H    4.674595   -1.415789   -2.209274
 H    4.703822    0.282340   -1.754864
 H    0.895913   -3.330968    0.183426
 H    0.565367   -2.475867   -1.314387
 H    1.789555   -0.474746    1.692334
 H   -1.772318   -2.424065   -1.327040
 H   -4.062597   -1.613581   -1.081209
 H   -2.875945    1.177222    1.980875
 H   -5.480554   -0.226135   -1.227098
 H   -7.512857   -0.668594   -2.260077
 H   -9.957166   -0.174541   -2.365060
 H  -10.971663    1.244899   -0.571328
 H   -7.345322    1.664592    1.344925
