82 
4na7_ligand_ani.xyz
 C   -4.776402   -1.301167    3.994279
 C   -4.683644    0.082098    4.099928
 C   -4.356123   -1.924309    2.822819
 C    3.712785   -2.531020   -1.573645
 C    4.167736   -3.833124   -1.688156
 C   -4.904047   -0.087144   -3.068227
 C   -4.171466    0.837915    3.047867
 C   -3.844124   -1.165699    1.775254
 C   -3.524618   -0.045967   -2.962429
 C    1.093177   -0.477817   -0.549822
 C    3.335309    0.363509   -0.385848
 C    3.292741   -4.320086    0.496201
 C   -5.090386    0.500545   -0.757536
 C    1.477363    1.906644   -0.481815
 C    3.008733   -2.104334   -0.443416
 C    2.463655   -0.717665   -0.439963
 C    3.928785   -4.746316   -0.663259
 C   -5.714253    0.178532   -1.962423
 C    2.848912   -3.004663    0.628801
 C   -3.738199    0.226861    1.870093
 C    0.600012    0.824644   -0.556105
 C   -3.707098    0.554768   -0.623920
 C   -2.907899    0.284346   -1.747407
 C    2.850088    1.675331   -0.401898
 C   -7.204787    0.115455   -2.059010
 C    4.425467   -6.148813   -0.841169
 C    2.283799   -2.577725    1.949487
 C    3.576884    4.074160   -0.296389
 C   -1.578542    0.723754    0.728858
 C   -0.898208    1.081565   -0.593952
 C   -3.097940    1.004281    0.706013
 C   -3.345787    2.517571    0.818655
 C    4.094155    6.657031    1.397113
 C    5.944532    7.149870   -0.232687
 C    4.862785    4.896207   -0.252113
 C    4.639655    6.389083   -0.005428
 N   -7.905946    0.441054   -3.074992
 N   -1.521295    0.292284   -1.646624
 N   -7.836248   -0.294741   -0.894015
 N    3.837286   -7.094778   -0.041772
 N    3.796036    2.719136   -0.341584
 O    5.309765   -6.426778   -1.630846
 O    2.137745   -1.444550    2.340159
 O    2.469172    4.582010   -0.305014
 O    1.953251   -3.637401    2.724526
 H   -5.175107   -1.890607    4.815866
 H   -5.011184    0.584719    5.006607
 H   -4.422646   -3.004996    2.726300
 H    3.894175   -1.824203   -2.378452
 H    4.714951   -4.167351   -2.563252
 H   -5.357067   -0.359053   -4.020602
 H   -4.119234    1.917528    3.159315
 H   -3.531721   -1.658686    0.855043
 H   -2.905103   -0.263665   -3.830908
 H    0.411026   -1.320211   -0.642919
 H    4.407529    0.177183   -0.329715
 H    3.168827   -4.992110    1.339729
 H   -5.710670    0.714931    0.110385
 H    1.122243    2.929672   -0.485195
 H   -1.120244    1.273744    1.556030
 H   -1.408023   -0.343576    0.917979
 H   -1.035413    2.161226   -0.789521
 H   -2.945346    3.037488   -0.056350
 H   -2.862097    2.935583    1.708490
 H   -4.419120    2.732300    0.863722
 H    3.134315    6.155750    1.546162
 H    3.951610    7.731903    1.557835
 H    4.796248    6.294597    2.159625
 H    6.715042    6.808895    0.470803
 H    5.807719    8.226317   -0.081657
 H    6.325430    6.997187   -1.248759
 H    5.527257    4.479321    0.519794
 H    5.384671    4.753562   -1.210217
 H    3.892047    6.730354   -0.732710
 H   -7.312783    0.764668   -3.837602
 H   -1.057958    0.370205   -2.541725
 H   -8.816399   -0.502115   -1.038099
 H   -7.348295   -0.998811   -0.357621
 H    2.911921   -6.939024    0.326017
 H    4.084589   -8.049337   -0.258438
 H    4.758362    2.416108   -0.321248
 H    1.623862   -3.256360    3.555102
