63 
4nau_ligand_ani.xyz
 C   -3.074281   -4.366484    1.882214
 C   -2.266487   -3.181169    2.411013
 C   -1.724070   -2.304875    1.306485
 N   -0.856117   -0.740535   -0.783088
 C   -2.136983   -0.926588   -0.478652
 C   -3.158851   -0.269971   -1.381694
 C   -3.748404   -1.324619   -2.330137
 C   -4.796699   -0.712794   -3.260222
 C   -5.903126   -0.019508   -2.464195
 C   -5.321547    1.042333   -1.531851
 C   -4.273939    0.447846   -0.588848
 C   -2.510396    2.076443    2.364069
 C   -1.020375    1.906666    2.116016
 C   -0.213942    1.175317    2.985225
 C    1.716490    1.631061    1.625137
 C    3.062570   -0.091533   -1.713557
 C    4.059781   -0.837179   -0.983640
 C    3.630903   -1.712116    0.032987
 C   -0.359212   -2.139951    1.099133
 C    0.024123   -1.358270    0.023756
 N   -2.609876   -1.682251    0.518466
 C   -3.678013    1.561383    0.270516
 O   -3.532381    2.699080   -0.157751
 N   -3.327459    1.199332    1.540701
 C    1.147083    1.037691    2.747726
 C    0.904416    2.319194    0.718903
 C   -0.452644    2.461904    0.971456
Cl    1.552474    2.990047   -0.744058
Cl    3.420609    1.474778    1.373484
 C    1.456774   -1.200095   -0.289511
 N    1.760554   -0.350434   -1.301016
 O    3.253703    0.702309   -2.631297
 N    2.342678   -1.877036    0.385222
 O    4.486187   -2.439854    0.720823
 C    5.491857   -0.702278   -1.281915
 O    6.343153   -1.356144   -0.648096
 N    5.852567    0.146908   -2.258272
 H   -2.454360   -5.022647    1.261808
 H   -3.914836   -4.018506    1.273798
 H   -3.471857   -4.960383    2.711495
 H   -1.428488   -3.534851    3.023063
 H   -2.897433   -2.565578    3.063269
 H   -2.616831    0.476216   -1.970986
 H   -4.200556   -2.122952   -1.725624
 H   -2.942050   -1.784697   -2.914062
 H   -5.216663   -1.483643   -3.917385
 H   -4.306916    0.025084   -3.912958
 H   -6.443060   -0.767648   -1.864774
 H   -6.640313    0.431442   -3.139286
 H   -6.115366    1.519077   -0.945930
 H   -4.838021    1.841157   -2.107245
 H   -4.740248   -0.297949    0.070095
 H   -2.810582    3.103369    2.134018
 H   -2.748572    1.877889    3.414155
 H   -0.650792    0.716884    3.869767
 H    0.380824   -2.616545    1.731908
 H   -3.241907    0.202543    1.708931
 H    1.777986    0.475319    3.432706
 H   -1.081721    2.995617    0.262029
 H    1.016117    0.152374   -1.777060
 H    5.395579   -2.216402    0.370659
 H    6.833510    0.227388   -2.465839
 H    5.142291    0.655948   -2.772788
