35 
4nbl_ligand_ani.xyz
 C   -2.114782   -0.232488    0.972790
 C    2.406966    1.971328   -0.972155
 C   -2.201448   -1.611864    0.783749
 C    0.761632    1.170807    0.590197
 N    0.093838    2.329088    0.511322
 C    0.557837    3.288899   -0.284911
 C    1.707569    3.169049   -1.046572
 C    1.957173    0.937011   -0.161341
 N    0.263779    0.245776    1.449040
 C   -1.097712    0.341197    1.941418
 C   -3.084314   -2.181271   -0.127098
 C   -3.882629   -1.329618   -0.872320
 C   -3.829099    0.046868   -0.731313
 C   -2.946721    0.591133    0.199901
 O   -2.882776    1.934848    0.403657
 F   -4.741243   -1.850657   -1.763999
 C    2.732262   -0.331912   -0.128571
 N    2.266938   -1.383900    0.571856
 C    2.989153   -2.502403    0.558354
 C    4.184964   -2.605799   -0.129601
 C    4.587579   -1.469539   -0.815689
 N    3.874235   -0.346600   -0.825315
 H    3.315900    1.821202   -1.546121
 H   -1.553762   -2.263147    1.369375
 H   -0.029230    4.203764   -0.308742
 H    2.048243    3.981960   -1.679285
 H    0.724072   -0.663607    1.425261
 H   -1.141084   -0.205752    2.891992
 H   -1.311491    1.391858    2.136381
 H   -3.155947   -3.254392   -0.266873
 H   -4.477332    0.677204   -1.335920
 H   -3.427703    2.382315   -0.255290
 H    2.595149   -3.343088    1.124859
 H    4.770007   -3.517877   -0.132068
 H    5.514459   -1.452256   -1.386195
