40 
4ncg_ligand_xtb.xyz
 C   -0.302463    2.527907   -0.018058
 C    0.227048    1.267412   -0.113208
 C   -1.549466    2.736300    0.614240
 C   -2.194731    1.668462    1.144524
 C    4.397404   -2.391737   -2.143702
 C    4.078700   -1.910155    0.212648
 C    3.767683   -1.642295   -1.119613
 C    2.841981   -0.659055   -1.457166
 C    2.223946    0.058547   -0.444230
 C    2.541104   -0.177095    0.889338
 C    0.466925    3.682062   -0.605776
 C   -0.497138    0.113973    0.413776
 C   -2.625297   -2.949728   -0.533556
 C   -3.609424   -1.004035    0.754692
 C   -2.441441   -0.692771    1.627639
 C   -4.873978   -1.911445   -0.831941
 C    3.458585   -1.166890    1.201933
 F    0.579366    3.599955   -1.938393
 N    4.908441   -3.000766   -2.968039
 O    1.367603    1.068320   -0.809743
Cl    3.836696   -1.467560    2.855853
 N   -1.674924    0.418872    1.074395
 F    1.714567    3.754833   -0.115722
 F   -0.110133    4.862857   -0.344703
 O   -0.123670   -1.043231    0.289715
 N   -4.713842   -0.326965    0.777367
 N   -5.495558   -0.874764   -0.187300
 N   -3.631319   -1.977532   -0.201499
 O   -5.280100   -2.603314   -1.729284
 H   -1.966939    3.725785    0.673062
 H   -3.156761    1.748305    1.625234
 H    4.790459   -2.680490    0.464059
 H    2.596327   -0.455563   -2.487211
 H    2.075663    0.402462    1.671957
 H   -1.639753   -2.486119   -0.576237
 H   -2.614646   -3.757272    0.201757
 H   -2.887338   -3.362742   -1.507014
 H   -1.770128   -1.552230    1.690949
 H   -2.799140   -0.411494    2.619903
 H   -6.422650   -0.523773   -0.355809
