73 
4ng9_ligand_xtb.xyz
 C    3.202951   -0.152954   -0.032574
 C    2.719409   -0.605882   -1.255160
 C    0.769809    0.700490   -1.854739
 C    4.561500   -0.001278    0.207691
 C    5.477200   -0.330132   -0.813255
 C    4.972895   -0.760922   -2.037170
 C    3.618796   -0.894915   -2.266873
 C   -2.960032   -1.560477   -1.358762
 C   -3.873953    3.780469    0.686316
 C    7.562722   -0.330036    0.450341
 C   -3.586460    2.501371    0.260610
 N    0.380067    1.434794   -0.793692
 N   -5.318543   -3.526153    0.720032
 C   -4.454497   -4.037177    1.606519
 C   -3.126718   -3.722613    1.654112
 C   -2.597945   -2.854568    0.669100
 C   -3.484110   -2.352229   -0.321357
 C   -4.871387   -2.701198   -0.206205
 C   -1.246436   -2.483328    0.627489
 C   -0.759485   -1.657166   -0.366390
 C   -1.636231   -1.215839   -1.381015
 N   -5.781338   -2.208219   -1.090513
 N    0.555938   -1.229815   -0.315964
 C    1.233188   -0.721391   -1.490915
 O    0.817857    1.125479   -2.987656
 O    6.829671   -0.214772   -0.767223
 O    5.059848    0.467750    1.394399
 C    4.179024    0.742154    2.463086
 C    5.026077    1.176234    3.649693
 C    7.359476   -1.705774    1.082601
 C    9.021888   -0.109754    0.065454
 C   -0.001656    2.818463   -0.915886
 C   -1.362307    3.129648   -0.352279
 C   -2.354339    2.161120   -0.258920
 C   -2.891551    4.753128    0.583378
 C   -1.647938    4.424799    0.073306
 S   -4.829963    1.237041    0.404591
 O   -4.979232    0.571006   -0.863070
 O   -6.002009    1.774561    1.028504
 N   -4.093370    0.196889    1.489548
 H    2.497078    0.099728    0.742551
 H    5.687670   -0.988148   -2.811786
 H    3.263902   -1.224709   -3.230202
 H   -3.608454   -1.219640   -2.148883
 H   -4.853574    3.989443    1.084081
 H    7.247912    0.449624    1.153020
 H    0.315200    0.985811    0.106948
 H   -4.898417   -4.716707    2.322799
 H   -2.479203   -4.132435    2.413598
 H   -0.578325   -2.863643    1.388354
 H   -1.256544   -0.614692   -2.192416
 H   -5.616961   -1.270621   -1.431910
 H   -6.737396   -2.414986   -0.843872
 H    1.145956   -1.806102    0.269379
 H    1.059798   -1.352858   -2.375204
 H    3.481064    1.544207    2.184061
 H    3.600500   -0.156553    2.720919
 H    5.600132    2.061702    3.390959
 H    4.386107    1.401321    4.497975
 H    5.716749    0.383212    3.923526
 H    7.636585   -2.483290    0.373803
 H    7.977802   -1.799187    1.971109
 H    6.319383   -1.847653    1.365080
 H    9.136753    0.859421   -0.411776
 H    9.339985   -0.878408   -0.633926
 H    9.650936   -0.148072    0.950047
 H    0.748632    3.456834   -0.431821
 H    0.014259    3.037643   -1.990943
 H   -2.186606    1.148685   -0.592047
 H   -3.093766    5.763679    0.903431
 H   -0.883688    5.184674   -0.002640
 H   -3.778393   -0.664710    1.062767
 H   -4.683369    0.017653    2.284878
