80 
4nga_ligand_dft.xyz
 C   -2.659631   -1.528288    0.573130
 C   -4.393602    0.060279   -0.018748
 C   -3.050972   -0.292324    0.040314
 C   -5.371269   -0.843307    0.448730
 C   -4.973942   -2.059446    0.980443
 C   -3.624065   -2.405314    1.048590
 C   -7.316876   -0.426145   -0.851234
 C   -1.188246   -1.883693    0.665801
 C    4.097961    0.605906    0.652246
 C   -3.923256    2.189636   -0.981574
 C    4.785155   -0.251848    1.503880
 C    4.910747   -0.766277   -3.195652
 N    5.655498   -1.550262   -2.369312
 C    5.031150   -2.184440   -1.402331
 C    3.620178   -2.076862   -1.165591
 C    2.861397   -1.284056   -2.063348
 C    3.557686   -0.617841   -3.110268
 C    2.967064   -2.650980   -0.053629
 C    1.623230   -2.477800    0.152732
 C    0.850920   -1.711725   -0.761761
 C    1.477995   -1.128683   -1.849844
 N   -0.503928   -1.491437   -0.547495
 C   -0.538832   -1.174802    1.883572
 O   -0.371509   -1.746863    2.948919
 N   -0.203692    0.112319    1.629842
 O   -4.858829    1.240400   -0.496813
 O   -6.688706   -0.496404    0.440971
 C   -7.805265   -1.810911   -1.254898
 C   -8.432698    0.595049   -0.726680
 C   -4.707647    3.406502   -1.428065
 C    0.702429    0.854608    2.477174
 C    2.151306    0.551550    2.128087
 C    2.861266   -0.316632    2.957173
 C    4.164100   -0.706637    2.659344
 C    2.802522    1.008378    0.967535
 S    2.069171    2.183850   -0.177460
 O    0.627775    1.923184   -0.312225
 O    2.893011    2.225752   -1.383440
 C    2.242331    3.785902    0.672567
 C    3.714588    4.125773    0.877442
 C    1.497630    4.836256   -0.148946
 N    5.824800   -2.937370   -0.543466
 H   -2.292845    0.401205   -0.305108
 H   -5.743978   -2.731823    1.344599
 H   -3.329267   -3.359988    1.473223
 H   -6.582180   -0.067373   -1.580724
 H   -1.099085   -2.958088    0.875964
 H    4.549718    0.951349   -0.271776
 H   -3.209990    2.452472   -0.188871
 H   -3.354596    1.760684   -1.818436
 H    5.781873   -0.588904    1.240948
 H    5.475660   -0.248621   -3.967060
 H    3.020966    0.028815   -3.795510
 H    3.536170   -3.205998    0.685513
 H    1.162654   -2.909350    1.034120
 H    0.909679   -0.484573   -2.515449
 H   -1.078236   -1.366716   -1.366753
 H   -0.206266    0.406473    0.659407
 H   -6.971525   -2.519904   -1.289598
 H   -8.271592   -1.781838   -2.245545
 H   -8.542311   -2.177544   -0.532579
 H   -8.960823    0.704851   -1.679447
 H   -8.016518    1.563564   -0.437181
 H   -9.152471    0.280564    0.036236
 H   -5.263516    3.831515   -0.587776
 H   -4.026671    4.168417   -1.819290
 H   -5.419016    3.136624   -2.213803
 H    0.512600    0.567274    3.512718
 H    0.467905    1.917206    2.374164
 H    2.364736   -0.712260    3.838121
 H    4.686983   -1.384908    3.326890
 H    1.744843    3.639904    1.637864
 H    3.791341    5.088340    1.392565
 H    4.228693    3.374230    1.482935
 H    4.224418    4.206729   -0.086831
 H    1.960557    4.948344   -1.134067
 H    0.447304    4.567615   -0.282532
 H    1.551620    5.798610    0.368911
 H    6.752874   -3.064480   -0.927246
 H    5.420754   -3.806280   -0.222657
