80 
4nga_ligand_xtb.xyz
 C   -2.367689   -2.063913    0.208279
 C   -4.026137   -0.316320   -0.112894
 C   -2.714096   -0.767039   -0.156513
 C   -5.042960   -1.204483    0.291356
 C   -4.678290   -2.493622    0.667339
 C   -3.366799   -2.923440    0.635512
 C   -7.013689    0.036244   -0.413576
 C   -0.927598   -2.509817    0.204798
 C    3.704270    1.497582    0.385031
 C   -3.396035    1.835669   -0.974423
 C    4.789893    0.838066    0.931675
 C    5.140179    0.295952   -2.540260
 N    5.929516   -0.517044   -1.821971
 C    5.370917   -1.463983   -1.098514
 C    3.959911   -1.668342   -1.036477
 C    3.145154   -0.810402   -1.820528
 C    3.781053    0.195527   -2.586764
 C    3.332398   -2.643718   -0.240101
 C    1.973298   -2.766239   -0.210720
 C    1.153763   -1.911184   -0.982351
 C    1.753352   -0.957907   -1.782893
 N   -0.215822   -2.047199   -0.969029
 C   -0.277381   -1.983725    1.506011
 O   -0.092882   -2.680838    2.480596
 N    0.032729   -0.679809    1.431318
 O   -4.374163    0.969085   -0.432475
 O   -6.368289   -0.922642    0.420653
 C   -6.906561   -0.357758   -1.885822
 C   -8.467476    0.060504    0.047028
 C   -4.076377    3.165405   -1.261989
 C    0.821404    0.019314    2.413698
 C    2.195477    0.329845    1.869903
 C    3.296183   -0.348036    2.385825
 C    4.577866   -0.099685    1.927670
 C    2.422750    1.238845    0.840544
 S    1.140522    2.220343    0.021350
 O   -0.028431    1.412515   -0.284323
 O    1.742160    2.877910   -1.104711
 C    0.623097    3.523810    1.213410
 C    1.879376    4.213764    1.697174
 C   -0.312381    4.441019    0.452652
 N    6.231782   -2.212647   -0.334854
 H   -1.947005   -0.072251   -0.458196
 H   -5.466579   -3.155051    0.990249
 H   -3.122573   -3.928910    0.940220
 H   -6.565377    1.025207   -0.263633
 H   -0.893111   -3.606198    0.253439
 H    3.825271    2.211447   -0.413374
 H   -2.569203    1.974524   -0.265937
 H   -2.986308    1.411579   -1.901328
 H    5.784763    1.041060    0.569685
 H    5.672933    1.052266   -3.102592
 H    3.185809    0.874532   -3.176164
 H    3.927741   -3.304490    0.373188
 H    1.517662   -3.520588    0.410087
 H    1.144209   -0.285767   -2.370832
 H   -0.702083   -1.346181   -1.509199
 H   -0.137812   -0.151894    0.582002
 H   -5.867428   -0.364351   -2.204988
 H   -7.455477    0.351267   -2.499663
 H   -7.321661   -1.352501   -2.034404
 H   -9.029563    0.790102   -0.528912
 H   -8.517947    0.322209    1.100245
 H   -8.913521   -0.921664   -0.086094
 H   -4.472971    3.588221   -0.342482
 H   -3.361344    3.858635   -1.696043
 H   -4.898374    3.019693   -1.958093
 H    0.901899   -0.633047    3.287113
 H    0.301131    0.939867    2.702589
 H    3.134901   -1.081123    3.161789
 H    5.412127   -0.641797    2.344998
 H    0.102288    3.009582    2.020351
 H    1.630906    5.060970    2.333732
 H    2.509824    3.528921    2.260818
 H    2.440629    4.576352    0.838674
 H    0.213481    4.859172   -0.402665
 H   -1.168968    3.880235    0.086594
 H   -0.664607    5.251842    1.087308
 H    7.199854   -2.101089   -0.593132
 H    5.952322   -3.149218   -0.097594
