45 
4ngn_ligand_xtb.xyz
 O    4.793561    1.534174    0.693804
 C    5.050469    1.529859   -0.491656
 N    4.920030    0.496491   -1.330659
 C    4.363032   -0.793878   -0.971042
 C    2.931280   -0.945203   -1.495392
 C    2.240897   -2.229039   -1.030563
 C    1.948616   -2.332985    0.469978
 C    1.065145   -1.201469    1.031041
 N   -0.135865   -1.030731    0.255873
 C   -1.347873   -0.896198    0.887958
 O   -1.496486   -0.997876    2.088127
 N   -2.382748   -0.710769    0.016650
 C   -3.669982   -0.233902    0.442874
 C   -4.708583   -0.644593   -0.582528
 O   -4.464873   -1.030189   -1.693543
 O   -5.951636   -0.495946   -0.119846
 C   -3.688897    1.306103    0.607221
 C   -3.044507    2.014666   -0.590359
 C   -1.542496    1.798979   -0.591620
 O   -0.929801    1.266834   -1.489670
 O   -0.976148    2.253858    0.506893
 C    1.857602    0.093197    1.176390
 O    1.484403    1.170868    0.763196
 O    3.003232   -0.088378    1.792237
 H    5.460223    2.423099   -0.992911
 H    5.106490    0.645942   -2.310054
 H    5.000716   -1.578460   -1.389596
 H    4.390130   -0.866035    0.115821
 H    2.348359   -0.074845   -1.195197
 H    2.959854   -0.948458   -2.588497
 H    2.862594   -3.083461   -1.309361
 H    1.298615   -2.321492   -1.573214
 H    2.874644   -2.356472    1.043210
 H    1.426342   -3.275830    0.638539
 H    0.737366   -1.478477    2.043097
 H   -0.038044   -0.582611   -0.644975
 H   -2.208941   -0.678097   -0.976936
 H   -3.913421   -0.691748    1.407871
 H   -6.600528   -0.747126   -0.797043
 H   -3.130044    1.560100    1.508585
 H   -4.721150    1.634621    0.731850
 H   -3.224806    3.087318   -0.504486
 H   -3.456612    1.655501   -1.534273
 H   -0.019848    2.002203    0.553343
 H    3.611908    0.689411    1.677790
