55 
4nh8_ligand_xtb.xyz
 C   -4.725408   -2.635311   -1.381879
 C   -3.534066   -1.868230   -0.937972
 C   -2.244797   -2.296226   -0.850453
 N   -1.439004   -1.263828   -0.410298
 C   -2.218242   -0.167820   -0.205631
 C   -3.525091   -0.501836   -0.513484
 C   -4.629265    0.422218   -0.349005
 O   -5.793730    0.155388   -0.564380
 C   -4.195680    1.809062    0.108378
 C   -2.988818    1.813591    1.056091
 C   -2.616793    3.257214    1.402137
 C   -3.331327    1.059737    2.342392
 C   -1.795010    1.142923    0.349899
 C   -0.063525   -1.386450   -0.198233
 C    0.800133   -0.356565   -0.514384
 C    2.182159   -0.453628   -0.285395
 N    3.008978    0.569085   -0.577595
 C    2.610908    1.864474   -1.050740
 C    1.953227    2.747758    0.040005
 C    3.007809    3.833433    0.283170
 O    3.665833    3.988983   -0.954229
 C    3.850677    2.692648   -1.465363
 C    2.718523   -1.667494    0.237711
 C    4.180719   -1.792546    0.455355
 N    4.702546   -3.030702    0.555261
 O    4.927122   -0.818135    0.511233
 C    1.801030   -2.673107    0.541960
 F    2.225328   -3.836994    1.096259
 C    0.442968   -2.566156    0.349943
 H   -5.146784   -2.185188   -2.279478
 H   -5.497118   -2.600630   -0.615138
 H   -4.462465   -3.669974   -1.588402
 H   -1.821195   -3.247149   -1.105054
 H   -3.948204    2.372350   -0.797295
 H   -5.051699    2.298941    0.575580
 H   -1.741566    3.280424    2.048348
 H   -2.394660    3.827845    0.502580
 H   -3.437212    3.746568    1.921029
 H   -4.187507    1.518860    2.830655
 H   -3.577282    0.022314    2.130202
 H   -2.490418    1.081933    3.032860
 H   -1.458962    1.802316   -0.458768
 H   -0.963264    1.017916    1.047775
 H    0.406712    0.541576   -0.954350
 H    3.964152    0.442061   -0.239842
 H    1.939641    1.743667   -1.907621
 H    1.738904    2.174938    0.939504
 H    1.030611    3.193659   -0.328775
 H    2.589412    4.799972    0.562072
 H    3.721052    3.507138    1.053907
 H    3.974989    2.774211   -2.545012
 H    4.752892    2.234523   -1.032755
 H    5.691743   -3.092950    0.732561
 H    4.160311   -3.874145    0.564624
 H   -0.202261   -3.376134    0.644882
