55 
4nh9_ligand_xtb.xyz
 C   -4.733789   -2.621837   -1.389881
 C   -3.540094   -1.858229   -0.945937
 C   -2.251051   -2.288385   -0.864241
 N   -1.442737   -1.259170   -0.421449
 C   -2.219658   -0.163046   -0.209508
 C   -3.528020   -0.493751   -0.514988
 C   -4.630162    0.431056   -0.340688
 O   -5.796075    0.167226   -0.551870
 C   -4.192274    1.814968    0.121694
 C   -2.981455    1.813796    1.064387
 C   -2.606217    3.255501    1.414976
 C   -3.319100    1.054994    2.348988
 C   -1.791818    1.144417    0.350179
 C   -0.067699   -1.385005   -0.208511
 C    0.798648   -0.357393   -0.523724
 C    2.180010   -0.457098   -0.291641
 N    3.009718    0.562535   -0.586619
 C    2.614979    1.859141   -1.059419
 C    1.961174    2.743589    0.032573
 C    3.024526    3.818763    0.282941
 O    3.682407    3.977746   -0.953989
 C    3.857235    2.683552   -1.474382
 C    2.712723   -1.670219    0.237229
 C    4.173400   -1.794529    0.465988
 N    4.693938   -3.031707    0.582943
 O    4.920213   -0.820087    0.518299
 C    1.792459   -2.674446    0.538301
 F    2.211891   -3.839185    1.094615
 C    0.435296   -2.565547    0.340849
 H   -5.150237   -2.174334   -2.291093
 H   -5.507542   -2.579733   -0.625647
 H   -4.475069   -3.658630   -1.590996
 H   -1.829212   -3.238575   -1.124262
 H   -3.947156    2.381598   -0.782567
 H   -5.045558    2.304279    0.594504
 H   -1.727379    3.275100    2.056420
 H   -2.388773    3.830131    0.516840
 H   -3.423249    3.743098    1.940827
 H   -4.174701    1.510918    2.841162
 H   -3.563596    0.017841    2.134128
 H   -2.476450    1.076532    3.037287
 H   -1.457749    1.806710   -0.456952
 H   -0.957429    1.014488    1.043943
 H    0.407943    0.541356   -0.965050
 H    3.963434    0.434998   -0.244743
 H    1.942908    1.740405   -1.915945
 H    1.738689    2.169257    0.929059
 H    1.043911    3.199099   -0.337721
 H    2.614226    4.786634    0.569199
 H    3.735652    3.480924    1.050637
 H    3.976823    2.771829   -2.554057
 H    4.759074    2.217666   -1.049385
 H    5.681883   -3.092183    0.767549
 H    4.151308   -3.874786    0.597029
 H   -0.212228   -3.374400    0.633550
