66 
4nie_ligand_ani.xyz
 C   -2.905084   -0.033326    3.392501
 C   -4.371761    0.376689    3.508552
 C   -4.880540    1.112251    2.268402
 N   -4.831016    0.248760    1.031516
 C   -6.027996   -0.660992    0.917023
 C   -5.861596   -1.687647   -0.180432
 C   -4.708947   -2.475395   -0.240695
 C   -4.535386   -3.407874   -1.258329
 C   -5.514324   -3.562239   -2.236312
 C   -6.668757   -2.788412   -2.182109
 C   -6.840321   -1.859278   -1.158628
 C   -4.617844    1.078062   -0.225336
 C   -3.164250    1.443323   -0.417998
 C   -2.232599    0.436486   -0.679394
 C   -0.891219    0.738758   -0.860890
 C   -0.446218    2.061929   -0.772418
 N    0.928595    2.302574   -0.968378
 C    1.623097    3.465550   -0.771771
 O    1.119513    4.521995   -0.433245
 C    3.125851    3.369010   -1.060873
 C    3.772580    2.050229   -0.715148
 C    3.900739    1.664578    0.623210
 C    4.438135    0.428100    0.953319
 C    4.856884   -0.421264   -0.065144
 C    4.736722   -0.063131   -1.403233
 C    4.199978    1.179178   -1.720374
 S    5.569488   -1.992468    0.351942
 O    5.077330   -2.364429    1.676550
 O    5.386699   -2.879306   -0.795016
 C    7.323877   -1.633444    0.496473
 C    8.084469   -2.904733    0.843150
 C   -1.363926    3.077693   -0.512220
 C   -2.706141    2.757880   -0.339204
 H   -2.522612   -0.414837    4.344082
 H   -2.283824    0.819336    3.095307
 H   -2.758954   -0.821403    2.644928
 H   -4.997075   -0.504185    3.701459
 H   -4.501964    1.043533    4.367234
 H   -4.257037    1.988814    2.078257
 H   -5.908784    1.466455    2.412392
 H   -3.992057   -0.344047    1.141376
 H   -6.171778   -1.149502    1.884943
 H   -6.917944   -0.048300    0.727764
 H   -3.943504   -2.377592    0.529088
 H   -3.629571   -4.009496   -1.293988
 H   -5.378254   -4.286294   -3.035083
 H   -7.439295   -2.903990   -2.941052
 H   -7.739953   -1.247787   -1.125119
 H   -4.968545    0.473576   -1.061819
 H   -5.250723    1.970742   -0.167089
 H   -2.565186   -0.598922   -0.756514
 H   -0.179885   -0.060396   -1.057812
 H    1.472241    1.484005   -1.199521
 H    3.579550    4.196075   -0.509380
 H    3.272739    3.583880   -2.127205
 H    3.560497    2.339518    1.404854
 H    4.521947    0.106505    1.987178
 H    5.046072   -0.759140   -2.176843
 H    4.102751    1.476712   -2.762332
 H    7.420758   -0.867458    1.271416
 H    7.633834   -1.214064   -0.465148
 H    9.153969   -2.692098    0.929347
 H    7.933511   -3.658238    0.065210
 H    7.725847   -3.312066    1.792524
 H   -1.020911    4.101474   -0.440950
 H   -3.411599    3.561357   -0.129569
