66 
4nie_ligand_xtb.xyz
 C   -0.508898   -0.197663    3.571874
 C   -1.475961    0.976914    3.597528
 C   -1.368153    1.872868    2.366456
 N   -1.916966    1.333362    1.094743
 C   -3.365139    1.010192    1.218064
 C   -4.029237    0.667437   -0.091224
 C   -3.548497   -0.376662   -0.875491
 C   -4.182471   -0.706210   -2.060027
 C   -5.305516   -0.004857   -2.468346
 C   -5.789577    1.032862   -1.690841
 C   -5.152257    1.370715   -0.508872
 C   -1.665583    2.320104   -0.004013
 C   -0.246101    2.243792   -0.486234
 C    0.071421    1.367346   -1.518258
 C    1.379532    1.200208   -1.915822
 C    2.405788    1.888010   -1.267730
 N    3.724807    1.536415   -1.563100
 C    4.673434    1.376322   -0.569227
 O    4.800475    2.120150    0.363582
 C    5.399879    0.028491   -0.685558
 C    4.252367   -0.891107   -0.368638
 C    3.750125   -0.924240    0.931252
 C    2.499227   -1.455357    1.182475
 C    1.745939   -1.952861    0.133972
 C    2.265685   -2.021327   -1.143726
 C    3.525674   -1.500993   -1.388584
 S    0.023692   -2.314921    0.469141
 O   -0.109597   -2.876684    1.780296
 O   -0.685544   -1.043419    0.283942
 C   -0.594424   -3.499894   -0.769494
 C   -1.900731   -4.079630   -0.270531
 C    2.088463    2.824591   -0.289332
 C    0.770521    2.998566    0.089085
 H   -0.572702   -0.750963    4.504157
 H    0.512578    0.159766    3.460679
 H   -0.726251   -0.888175    2.764010
 H   -2.496550    0.624063    3.742988
 H   -1.235668    1.608040    4.455859
 H   -0.312741    2.091032    2.191793
 H   -1.893675    2.812545    2.562451
 H   -1.409583    0.451709    0.843537
 H   -3.457980    0.157067    1.893578
 H   -3.866229    1.872409    1.666317
 H   -2.669894   -0.917627   -0.559366
 H   -3.804971   -1.517112   -2.664512
 H   -5.802261   -0.268066   -3.388875
 H   -6.664099    1.581580   -2.003049
 H   -5.537311    2.179820    0.094266
 H   -2.341915    2.079391   -0.826004
 H   -1.909353    3.316727    0.371218
 H   -0.711990    0.805052   -2.002851
 H    1.616689    0.513923   -2.715229
 H    3.800156    0.892718   -2.340645
 H    6.192258   -0.015617    0.058776
 H    5.808133   -0.139176   -1.680308
 H    4.321728   -0.482988    1.732988
 H    2.079083   -1.466431    2.175361
 H    1.690879   -2.445264   -1.951704
 H    3.931412   -1.543959   -2.389417
 H    0.175716   -4.262162   -0.852084
 H   -0.707637   -2.959378   -1.705122
 H   -2.236859   -4.882372   -0.922707
 H   -2.673414   -3.315203   -0.233581
 H   -1.759797   -4.476735    0.731976
 H    2.874221    3.387818    0.184869
 H    0.538342    3.741797    0.837755
