42 
4nj9_ligand_ani.xyz
 O    4.078312    2.782739   -1.320137
 S    3.970061    2.247675    0.016315
 O    3.787024    3.123189    1.161200
 O    5.347121    1.435718    0.281390
 C    2.743619    0.951596    0.047356
 C    3.150356   -0.369415    0.064413
 C    2.225605   -1.396183    0.062287
 S    2.896691   -3.029150    0.051455
 O    4.336556   -2.952163    0.155940
 O    2.161426   -3.923163    0.929657
 O    2.512150   -3.462287   -1.469987
 C    0.826826   -1.132731    0.042313
 C   -0.167296   -2.155939    0.046124
 C   -1.495829   -1.865932    0.006784
 C    1.358333    1.282036    0.007950
 C    0.409706    0.223796    0.009736
 C   -1.003088    0.528310   -0.025935
 C   -1.964890   -0.518599   -0.030488
 C    0.892907    2.633867   -0.037902
 C   -0.434312    2.918575   -0.066121
 C   -1.409883    1.884100   -0.057220
 C   -2.797771    2.192294   -0.079044
 O   -3.116768    3.506030   -0.091110
 C   -4.488766    3.850126   -0.092930
 C   -3.740053    1.177461   -0.088749
 C   -3.342413   -0.153983   -0.066435
 S   -4.661283   -1.345726   -0.061133
 O   -4.335309   -2.468658   -0.907247
 O   -4.599532   -1.903503    1.463899
 O   -5.925705   -0.645972   -0.199468
 H    5.528344    1.468581    1.234822
 H    4.202204   -0.633884    0.076502
 H    2.240869   -4.395291   -1.432799
 H    0.133387   -3.193966    0.086477
 H   -2.199350   -2.687056   -0.003136
 H    1.610308    3.448195   -0.042726
 H   -0.770752    3.948726   -0.093764
 H   -4.990355    3.472396   -0.992487
 H   -4.997181    3.456407    0.795948
 H   -4.523190    4.939610   -0.083303
 H   -4.802687    1.394031   -0.119342
 H   -5.259621   -1.414258    1.981679
