42 
4nj9_ligand_xtb.xyz
 O    3.876943    2.911141   -1.236721
 S    3.935471    2.233967    0.015029
 O    3.844814    3.002320    1.221123
 O    5.318341    1.417258    0.086075
 C    2.723727    0.922472    0.032493
 C    3.118890   -0.396611    0.048678
 C    2.168869   -1.398064    0.052932
 S    2.769882   -3.072470    0.079444
 O    4.200802   -3.062363    0.060011
 O    2.097926   -3.837146    1.075224
 O    2.283065   -3.597459   -1.367840
 C    0.802021   -1.125479    0.025475
 C   -0.187917   -2.149037    0.004378
 C   -1.508411   -1.839080   -0.030941
 C    1.370994    1.274821    0.011119
 C    0.398983    0.238593    0.003174
 C   -0.978906    0.562302   -0.027306
 C   -1.941351   -0.483729   -0.044248
 C    0.938084    2.629235   -0.005808
 C   -0.383985    2.934466   -0.028578
 C   -1.380954    1.918798   -0.038864
 C   -2.761702    2.237731   -0.056800
 O   -3.078449    3.544018   -0.062979
 C   -4.439833    3.921305   -0.076118
 C   -3.694934    1.202036   -0.062974
 C   -3.280392   -0.110951   -0.061910
 S   -4.565688   -1.342895   -0.066892
 O   -4.350364   -2.298342   -1.099915
 O   -4.304235   -2.060581    1.357109
 O   -5.842222   -0.698092    0.026515
 H    5.709256    1.509648    0.957407
 H    4.161161   -0.671020    0.053960
 H    3.037163   -3.703551   -1.950345
 H    0.146675   -3.172588    0.026635
 H   -2.263031   -2.607741   -0.058438
 H    1.692211    3.399052    0.001420
 H   -0.714630    3.960743   -0.040086
 H   -4.951025    3.543783   -0.965332
 H   -4.958781    3.571423    0.820189
 H   -4.438142    5.009776   -0.092708
 H   -4.757580    1.379869   -0.072867
 H   -5.049990   -1.915897    1.941811
