42 
4nja_ligand_ani.xyz
 O   -3.894150    2.742081    1.516321
 S   -4.060111    2.154534    0.012024
 O   -3.777712    3.254583   -0.878195
 O   -5.337720    1.468938   -0.032803
 C   -2.758031    0.948791   -0.043273
 C   -3.159244   -0.373058   -0.011379
 C   -2.238157   -1.400516    0.025052
 S   -2.907291   -3.034842   -0.031166
 O   -4.348335   -2.963104    0.057070
 O   -2.500425   -3.431551   -1.556268
 O   -2.183506   -3.948158    0.837398
 C   -0.840858   -1.129289    0.065766
 C    0.152730   -2.148154    0.184340
 C    1.480092   -1.849912    0.185320
 C   -1.374461    1.289268   -0.079984
 C   -0.427220    0.229202   -0.012509
 C    0.985965    0.532983   -0.019991
 C    1.944609   -0.508513    0.067332
 C   -0.899808    2.637056   -0.182491
 C    0.429736    2.913358   -0.193248
 C    1.401835    1.880714   -0.108932
 C    2.792285    2.180525   -0.111582
 O    3.111029    3.492328   -0.191874
 C    4.479854    3.847052   -0.188171
 C    3.735779    1.167373   -0.038043
 C    3.325223   -0.158771    0.037402
 S    4.559253   -1.439968    0.150757
 O    4.616238   -1.952137    1.502909
 O    4.452468   -2.361135   -0.969549
 O    5.914615   -0.584374   -0.121928
 H   -4.503230    2.249519    2.090244
 H   -4.217810   -0.611052   -0.018183
 H   -2.230699   -4.365717   -1.539341
 H   -0.149698   -3.180336    0.287542
 H    2.195014   -2.661004    0.277534
 H   -1.605601    3.452402   -0.266249
 H    0.769314    3.940140   -0.269698
 H    4.973486    3.516862    0.734137
 H    5.003121    3.420023   -1.052564
 H    4.505063    4.935312   -0.247048
 H    4.794322    1.399044   -0.039711
 H    6.395104   -1.059215   -0.820806
