57 
4nka_ligand_ani.xyz
 C   84.772028    2.273480   12.671940
 C   84.495557    2.615688   11.324347
 C   85.249461    3.721686   11.102613
 N   86.608104   -0.927046   10.810840
 C   85.428136    0.984867    6.577623
 C   85.808659    1.087415    7.924759
 C   86.766091    0.096122    9.935514
 C   87.491227    1.054331   10.610453
 C   87.716064    0.511402   11.896857
 C   88.504418    1.155648   13.008072
 C   87.995442    0.845884   14.423073
 C   88.660839    1.706092   15.470452
 C   89.785324    1.267263   16.160931
 C   90.410727    2.091040   17.094362
 C   88.171351    2.994251   15.723755
 C   87.284727    5.601793   16.249364
 C   91.287428    5.219594   17.828119
 O   90.524638    4.127680   18.319789
 C   89.928061    3.362820   17.351274
 C   88.796061    3.823541   16.652944
 O   88.387391    5.083625   16.959077
 N   87.160195   -0.691259   12.018193
 N   86.287170    0.008856    8.628653
 C   84.869015    2.123234    6.024938
 N   84.661937    3.255934    6.703283
 N   85.691534    2.221906    8.606160
 C   85.060560    3.225678    7.982738
 N   84.766636    4.321489    8.742223
 C   85.508384    4.643947    9.948127
 O   85.906553    4.048507   12.224405
 N   85.618267    3.126573   13.211885
 C   84.229279    1.104353   13.433790
 H   83.858159    2.091594   10.630324
 H   86.075411   -1.771538   10.681680
 H   85.556291    0.068220    6.011479
 H   87.816431    2.001776   10.208447
 H   89.554611    0.851939   12.919487
 H   88.496499    2.240299   12.841956
 H   86.911588    1.012681   14.455341
 H   88.156721   -0.214748   14.643340
 H   90.181378    0.270519   15.978880
 H   91.284074    1.755185   17.644630
 H   87.295134    3.341709   15.187004
 H   87.130216    6.616573   16.618954
 H   87.489959    5.631335   15.171704
 H   86.379432    5.007472   16.429693
 H   91.687624    5.733016   18.705619
 H   92.120182    4.865699   17.205439
 H   90.664831    5.911717   17.251611
 H   86.397949   -0.865031    8.134539
 H   84.552526    2.132712    4.983354
 H   84.444805    5.100783    8.186609
 H   86.593574    4.666512    9.767678
 H   85.226072    5.657921   10.248819
 H   84.348003    1.242723   14.511513
 H   83.164190    0.967226   13.222950
 H   84.749081    0.188310   13.135401
