13 
4nni_ligand_xtb.xyz
 C    0.196694   -0.059469   -0.006968
 C   -1.787730   -1.121212    0.255931
 C   -2.461811    0.072687    0.012369
 C    1.698201   -0.137535   -0.043934
 C   -0.484953    1.125723   -0.294904
 O    2.298755   -1.016324   -0.583113
 O    2.332559    0.894199    0.545183
 N   -0.469653   -1.180084    0.252361
 N   -1.805729    1.185017   -0.272983
 H   -2.307002   -2.045406    0.465545
 H   -3.539657    0.145294    0.040694
 H    0.027048    2.040563   -0.566844
 H    1.734369    1.520861    0.973437
