77 
4nnn_ligand_xtb.xyz
 C   -1.390382    1.554300   -0.728826
 O   -1.002854    1.708575   -1.867351
 O   -2.506000    0.906743   -0.376830
 C   -3.257835    0.318691   -1.452737
 C   -4.545001   -0.200595   -0.881133
 C   -4.673924   -1.545129   -0.558588
 C   -5.853934   -2.015499   -0.008335
 C   -6.907862   -1.149091    0.227223
 C   -6.780601    0.193304   -0.088141
 C   -5.603391    0.666022   -0.640072
 N   -0.747041    2.038247    0.361465
 C    0.608366    2.558613    0.263296
 C    1.518580    1.331492    0.073156
 O    2.012396    0.745538    1.025708
 C    0.980213    3.339563    1.517137
 C    0.057972    4.528251    1.808132
 C    0.173215    5.604881    0.731623
 C    0.402510    5.114743    3.175779
 N    1.626903    0.955869   -1.209628
 C    2.234106   -0.280459   -1.694609
 C    1.346072   -1.479132   -1.324898
 O    0.774586   -2.132511   -2.184267
 C    3.673332   -0.459239   -1.202603
 C    4.621936    0.631431   -1.717015
 C    4.925136    0.464574   -3.203787
 C    5.919891    0.596569   -0.912323
 N    1.249113   -1.723027   -0.015269
 C    0.418498   -2.781731    0.539190
 C   -1.074272   -2.440285    0.369963
 C    0.796568   -2.983925    2.004314
 C    2.260460   -3.387712    2.225584
 C    2.555323   -4.772493    1.654674
 C    2.572657   -3.359266    3.720724
 O   -1.580045   -2.821208   -0.881463
 H   -3.429910    1.083768   -2.217499
 H   -2.666580   -0.492610   -1.889715
 H   -3.849664   -2.218267   -0.741047
 H   -5.950282   -3.062780    0.237412
 H   -7.828152   -1.518099    0.656059
 H   -7.600574    0.872553    0.094482
 H   -5.503286    1.713382   -0.886436
 H   -1.067254    1.731732    1.267268
 H    0.652274    3.190558   -0.628177
 H    2.006507    3.693718    1.401896
 H    0.968770    2.646884    2.361905
 H   -0.977380    4.172403    1.831790
 H   -0.174413    5.238232   -0.230458
 H   -0.432096    6.467803    0.999049
 H    1.206002    5.931092    0.628187
 H    0.298451    4.364745    3.956435
 H   -0.257015    5.946527    3.410950
 H    1.427915    5.477726    3.184041
 H    0.993706    1.408078   -1.861301
 H    2.223561   -0.221733   -2.786237
 H    4.027906   -1.438095   -1.532169
 H    3.681993   -0.441568   -0.113114
 H    4.143717    1.604567   -1.560099
 H    4.022997    0.536142   -3.805405
 H    5.612359    1.239202   -3.536143
 H    5.386068   -0.503442   -3.388782
 H    6.604127    1.367850   -1.257984
 H    5.720945    0.763091    0.143785
 H    6.407910   -0.369394   -1.023580
 H    1.654951   -1.058095    0.637195
 H    0.607818   -3.695047   -0.037624
 H   -1.671233   -2.974125    1.115478
 H   -1.215105   -1.358640    0.532631
 H    0.149799   -3.753982    2.428368
 H    0.600258   -2.050432    2.538551
 H    2.908812   -2.660814    1.725858
 H    3.578046   -5.062310    1.884424
 H    2.438074   -4.787176    0.574511
 H    1.884880   -5.512730    2.086126
 H    1.939617   -4.065379    4.253980
 H    2.402433   -2.366413    4.130499
 H    3.610950   -3.628380    3.898591
 H   -0.891209   -2.652521   -1.552418
