77 
4nnn_ligand_ani.xyz
 C   -1.030825    1.852510   -0.727834
 O   -0.658815    1.885601   -1.889210
 O   -2.240369    1.404388   -0.330393
 C   -3.002871    0.757738   -1.371733
 C   -4.366163    0.422832   -0.829705
 C   -4.823119   -0.895233   -0.810117
 C   -6.095579   -1.187228   -0.323618
 C   -6.915774   -0.165136    0.143924
 C   -6.460069    1.150555    0.131170
 C   -5.187624    1.440362   -0.349245
 N   -0.298595    2.262020    0.349873
 C    1.142664    2.416016    0.181659
 C    1.759569    1.014141    0.030122
 O    2.110973    0.360238    1.011414
 C    1.770952    3.168373    1.350531
 C    1.224941    4.584926    1.572689
 C    1.502580    5.506802    0.383023
 C    1.825529    5.176095    2.849193
 N    1.811842    0.560290   -1.245190
 C    2.147467   -0.811331   -1.631445
 C    1.029108   -1.799803   -1.264246
 O    0.524683   -2.518478   -2.131564
 C    3.511523   -1.288092   -1.114470
 C    4.701085   -0.402621   -1.505649
 C    4.857467   -0.265702   -3.019884
 C    5.978407   -0.968707   -0.884448
 N    0.653604   -1.835050    0.026464
 C   -0.372855   -2.736702    0.534449
 C   -1.782753   -2.267459    0.137462
 C   -0.250263   -2.855420    2.051017
 C    1.146421   -3.197052    2.593076
 C    1.714164   -4.469649    1.960842
 C    1.088680   -3.333634    4.115288
 O   -2.091377   -2.491703   -1.218425
 H   -3.045488    1.434806   -2.231673
 H   -2.482182   -0.159301   -1.675853
 H   -4.166722   -1.688707   -1.166785
 H   -6.450961   -2.214760   -0.311345
 H   -7.910030   -0.393729    0.520298
 H   -7.096375    1.952709    0.498242
 H   -4.819401    2.463963   -0.346436
 H   -0.601890    1.853594    1.224918
 H    1.283485    2.957212   -0.759846
 H    2.856744    3.214718    1.189087
 H    1.625124    2.565090    2.255932
 H    0.136241    4.512191    1.703668
 H    1.025549    5.150941   -0.537038
 H    1.123075    6.515970    0.579481
 H    2.581635    5.586940    0.195333
 H    1.611979    4.547920    3.721636
 H    1.425330    6.176702    3.047877
 H    2.916050    5.263903    2.757572
 H    1.198671    1.048246   -1.891102
 H    2.156208   -0.821794   -2.723483
 H    3.671800   -2.303354   -1.505639
 H    3.475402   -1.366156   -0.023421
 H    4.533026    0.597427   -1.087322
 H    3.989443    0.217138   -3.482020
 H    5.737027    0.341380   -3.261620
 H    4.990501   -1.248777   -3.491152
 H    6.843645   -0.336858   -1.113794
 H    5.890997   -1.039504    0.205754
 H    6.184511   -1.974862   -1.271989
 H    1.132784   -1.221630    0.681888
 H   -0.228654   -3.714613    0.056363
 H   -2.524024   -2.809874    0.741281
 H   -1.893023   -1.194645    0.366502
 H   -0.957005   -3.626485    2.390179
 H   -0.587921   -1.910819    2.508344
 H    1.825305   -2.361179    2.359818
 H    2.698200   -4.705958    2.380321
 H    1.830134   -4.373299    0.875916
 H    1.055377   -5.325896    2.156297
 H    0.433398   -4.165168    4.403359
 H    0.701795   -2.422101    4.584850
 H    2.082557   -3.532521    4.531451
 H   -1.257001   -2.599529   -1.720751
