134 
4nnr_ligand_xtb.xyz
 C    1.309543    2.649129    0.938741
 C    2.556223    1.762495    0.797953
 C    3.246844    1.472035    2.133642
 C    3.972689    2.686134    2.700340
 C    4.928394    3.232798    1.646849
 C    4.132214    3.605878    0.403480
 C    3.510156    2.207155   -1.448600
 C    2.733896    1.046756   -2.081364
 C    3.364823   -0.372411   -1.828389
 C    4.869497   -0.343215   -1.471929
 C    5.298490   -1.751732   -1.055507
 C    4.422939   -2.267866    0.087269
 C    2.955802   -2.200197   -0.358498
 C    2.010319   -2.647329    0.766043
 C    0.538870   -2.621899    0.338355
 C    0.165956   -3.568164   -0.807879
 C   -1.351450   -3.539953   -1.044983
 C   -1.929534   -2.225388   -1.589883
 C   -3.460767   -2.294400   -1.464924
 C   -4.257676   -1.084032   -1.981214
 C   -3.955469    0.175167   -1.127381
 C   -3.844849    1.465621   -1.949219
 C   -3.109856    2.547315   -1.141128
 C   -1.584693    2.350385   -1.209121
 C   -0.846954    2.971118   -0.006222
 C   -1.588309    2.818858    1.304548
 C   -1.544275    1.655767    1.944895
 C   -2.215203    1.328999    3.247707
 C   -3.617731    0.719091    3.023128
 C   -3.615281   -0.816865    3.022553
 C   -2.294656   -1.383631    2.486702
 C   -1.118435   -0.960974    3.372416
 C   -1.363054    0.372121    4.084757
 C    5.723737    0.135674   -2.643165
 C    0.584649   -5.007303   -0.504165
 C   -1.486738   -1.987114   -3.030972
 C   -5.745971   -1.464641   -1.994913
 C   -6.696696   -0.413344   -2.566823
 C   -6.464171   -0.128812   -4.045824
 C   -0.999984    2.890339   -2.511803
 C   -2.294289    4.056006    1.768094
 C    5.875792   -3.809160    1.156915
 C    2.220362   -2.469907    3.120514
 C   -5.939762   -1.258733    2.718281
 N    3.446917    2.437726   -0.131554
 O    0.413237    2.271885    0.039598
 O    1.178264    3.570680    1.700342
 O    4.175861    2.903432   -2.209718
 O    2.666586    1.291417   -3.459113
 O    2.612423   -0.882565   -0.743513
 O    3.161770   -1.161826   -2.959550
 O    4.691983   -3.615261    0.425301
 O    2.199696   -1.792266    1.889598
 O   -4.910746    0.409400   -0.113767
 O   -3.412776    3.857276   -1.578046
 O   -4.639107   -1.357372    2.185965
 O   -2.339414   -2.794228    2.458922
 H    2.243811    0.807886    0.371404
 H    3.956344    0.659043    1.967743
 H    2.490693    1.111804    2.831367
 H    3.244632    3.453309    2.964266
 H    4.517174    2.402143    3.602470
 H    5.447201    4.117403    2.017252
 H    5.676170    2.478503    1.391478
 H    4.778530    3.992475   -0.385837
 H    3.390500    4.368932    0.663019
 H    1.708648    1.002803   -1.698153
 H    4.994101    0.329515   -0.616530
 H    6.348427   -1.735710   -0.755781
 H    5.187883   -2.427371   -1.905990
 H    4.548715   -1.626900    0.975523
 H    2.836088   -2.876751   -1.213594
 H    2.316648   -3.663329    1.037500
 H   -0.068429   -2.873592    1.211129
 H    0.320397   -1.592522    0.052284
 H    0.678364   -3.245551   -1.717438
 H   -1.608095   -4.335963   -1.748699
 H   -1.837700   -3.772877   -0.094633
 H   -1.552867   -1.402239   -0.977236
 H   -3.716860   -2.447657   -0.412259
 H   -3.797208   -3.179339   -2.011361
 H   -3.951794   -0.882936   -3.008783
 H   -2.979401    0.018430   -0.645227
 H   -3.324612    1.277173   -2.887038
 H   -4.850870    1.819715   -2.178406
 H   -3.439721    2.434000   -0.097696
 H   -1.387880    1.275993   -1.151388
 H   -0.647569    4.033212   -0.186129
 H   -0.972528    0.855360    1.499180
 H   -2.337264    2.256287    3.814404
 H   -4.293412    1.070200    3.805830
 H   -4.009783    1.063008    2.063945
 H   -3.765822   -1.202986    4.042565
 H   -2.170780   -1.011575    1.459026
 H   -0.971607   -1.750885    4.111061
 H   -0.215221   -0.910243    2.765575
 H   -0.405235    0.843267    4.310654
 H   -1.877049    0.199619    5.033092
 H    6.777378    0.014910   -2.401282
 H    5.545221    1.183993   -2.862480
 H    5.500825   -0.456125   -3.527514
 H    0.220693   -5.676539   -1.281021
 H    0.166357   -5.328807    0.447463
 H    1.666199   -5.102712   -0.461357
 H   -0.403915   -2.029896   -3.107454
 H   -1.910039   -2.742567   -3.689881
 H   -1.800916   -1.006218   -3.378115
 H   -6.061189   -1.693800   -0.974253
 H   -5.851257   -2.380717   -2.582164
 H   -6.610088    0.504581   -1.986602
 H   -7.717902   -0.782995   -2.440018
 H   -5.489710    0.321364   -4.213712
 H   -6.520811   -1.050087   -4.622401
 H   -7.221840    0.555473   -4.421714
 H   -1.229110    3.947656   -2.608929
 H   -1.419355    2.368468   -3.367435
 H    0.077865    2.753570   -2.523146
 H   -1.574775    4.713724    2.256192
 H   -2.709504    4.587977    0.914610
 H   -3.093488    3.828530    2.466729
 H    5.882570   -4.857300    1.451636
 H    6.769602   -3.601433    0.559202
 H    5.894989   -3.177349    2.054045
 H    3.053968   -3.181549    3.168556
 H    1.285846   -3.011935    3.302254
 H    2.349210   -1.709549    3.889854
 H   -6.594679   -1.797647    2.035413
 H   -6.268608   -0.218107    2.787410
 H   -5.991119   -1.719558    3.710865
 H    3.363287    1.955252   -3.640355
 H    2.763279   -0.587271   -3.636538
 H   -4.867460   -0.326363    0.516641
 H   -4.370488    3.956414   -1.587493
 H   -3.196633   -3.044304    2.091482
