80 
4nnw_ligand_xtb.xyz
 C   -2.643410   -0.743449   -0.998425
 O   -2.725979   -0.838713    0.209780
 O   -2.820338   -1.772679   -1.843773
 C   -2.878480   -3.062442   -1.213934
 C   -1.564840   -3.380351   -0.548033
 C   -0.404765   -3.413089   -1.312756
 C    0.824938   -3.620544   -0.714515
 C    0.904516   -3.793538    0.657124
 C   -0.248151   -3.768746    1.423260
 C   -1.479494   -3.560807    0.824905
 N   -2.346787    0.383977   -1.675265
 C   -2.124346    1.702636   -1.098443
 C   -0.781300    1.797160   -0.354260
 O    0.003834    2.705609   -0.599210
 C   -3.266129    2.133954   -0.167926
 C   -4.615979    2.267802   -0.883688
 C   -4.658455    3.498615   -1.785942
 C   -5.733820    2.341782    0.154517
 N   -0.567504    0.842954    0.549561
 C    0.617551    0.732149    1.385075
 C    1.781301    0.170918    0.535353
 O    2.245167   -0.942251    0.725982
 C    0.336546   -0.185151    2.571129
 C   -0.369782    0.486084    3.752199
 C   -0.511458   -0.525725    4.888004
 C   -1.742145    1.034128    3.367945
 C    5.276800    2.001074   -0.351623
 C    1.476912   -0.501396   -2.672578
 C    2.955481   -0.454671   -2.263828
 O    3.369786   -1.652469   -1.670325
 C    3.246882    0.788526   -1.378362
 C    4.620887    0.663062   -0.705314
 C    4.486898    2.771303    0.704131
 C    6.698931    1.747081    0.147000
 N    2.192213    1.029418   -0.400998
 H   -3.695343   -3.073217   -0.485702
 H   -3.097468   -3.751794   -2.031871
 H   -0.472612   -3.263693   -2.381249
 H    1.721404   -3.631653   -1.314913
 H    1.864971   -3.935381    1.126633
 H   -0.188719   -3.901094    2.493843
 H   -2.376724   -3.522199    1.425242
 H   -2.281082    0.288698   -2.675669
 H   -2.052592    2.403750   -1.933985
 H   -3.359272    1.396806    0.629425
 H   -2.994887    3.091596    0.280992
 H   -4.773330    1.373213   -1.496640
 H   -5.628956    3.576849   -2.270340
 H   -4.495039    4.400662   -1.200257
 H   -3.898798    3.451999   -2.562073
 H   -5.591371    3.203870    0.802489
 H   -6.701678    2.434513   -0.332447
 H   -5.743885    1.445959    0.770729
 H   -1.289001    0.140999    0.698094
 H    0.902570    1.738095    1.721406
 H   -0.255719   -1.033109    2.218619
 H    1.293334   -0.586895    2.910325
 H    0.252771    1.317632    4.103158
 H   -1.141414   -1.354894    4.573958
 H    0.459789   -0.921334    5.175616
 H   -0.964916   -0.061356    5.760601
 H   -2.256364    1.406405    4.251654
 H   -2.351549    0.251149    2.921918
 H   -1.652514    1.854570    2.660903
 H    5.333406    2.612622   -1.260086
 H    1.167155    0.456141   -3.084798
 H    0.853633   -0.740026   -1.812852
 H    1.334660   -1.276185   -3.421301
 H    3.567051   -0.356173   -3.170729
 H    3.019520   -1.660158   -0.757264
 H    3.244764    1.663419   -2.035990
 H    4.515479    0.059118    0.196582
 H    5.276269    0.118336   -1.387111
 H    5.039508    3.656447    1.012924
 H    4.321235    2.148176    1.580661
 H    3.522870    3.092669    0.320229
 H    6.678478    1.142291    1.050816
 H    7.282992    1.220501   -0.604096
 H    7.199137    2.685969    0.373559
 H    1.656501    1.888096   -0.499817
