85 
4no6_ligand_dft.xyz
 C   -0.475408   -2.632826    0.854268
 O    0.109159   -2.654824    1.930892
 O   -1.814142   -2.774843    0.725125
 C   -2.589786   -2.711342    1.937672
 C   -3.161944   -1.329127    2.112767
 C   -4.497098   -1.069545    1.801833
 C   -5.013246    0.219746    1.912690
 C   -4.191017    1.261514    2.335110
 C   -2.856270    1.011943    2.650925
 C   -2.346144   -0.277447    2.539058
 N    0.112453   -2.476206   -0.347482
 C    1.555938   -2.293053   -0.456849
 C    1.856895   -0.805826   -0.174885
 O    2.027311    0.006320   -1.084160
 C    2.046241   -2.733142   -1.835952
 C    3.518781   -3.181498   -1.881100
 C    3.727391   -4.530186   -1.184256
 C    4.483626   -2.129058   -1.326691
 N    1.833800   -0.483423    1.137191
 C    1.893804    0.867633    1.696469
 C    0.599172    1.675505    1.483700
 O    0.064881    2.263184    2.417086
 C    3.110219    1.680284    1.223985
 C    4.460509    0.967876    1.364629
 C    5.581358    1.901972    0.902699
 C    4.717893    0.465265    2.786393
 C   -2.322249    0.397164   -0.908138
 C    0.061127    4.226513   -1.846656
 C   -1.665243    1.686887   -1.394324
 S   -2.705221   -0.682153   -2.293007
 O   -1.495429   -1.462065   -2.604308
 O   -3.333070    0.105394   -3.349235
 C   -3.917107   -1.822828   -1.644554
 C   -1.018018    2.441383   -0.227032
 C   -0.709598    3.911514   -0.554786
 C    1.480038    3.646659   -1.880448
 C    0.116119    5.746735   -2.034762
 N    0.145327    1.689239    0.211299
 H   -3.379367   -3.455305    1.811205
 H   -1.950583   -2.998932    2.773729
 H   -5.140866   -1.883195    1.474777
 H   -6.056269    0.408025    1.675502
 H   -4.591438    2.267042    2.425107
 H   -2.195363    1.813618    2.964393
 H   -1.303161   -0.466361    2.779103
 H   -0.467514   -2.290080   -1.166535
 H    2.008653   -2.903393    0.330457
 H    1.416596   -3.567954   -2.164010
 H    1.883542   -1.905911   -2.533948
 H    3.754876   -3.322070   -2.943987
 H    3.061096   -5.297900   -1.592896
 H    3.538210   -4.461872   -0.105768
 H    4.759147   -4.876045   -1.310004
 H    5.522809   -2.432788   -1.492392
 H    4.325963   -1.152947   -1.794432
 H    4.352793   -2.006696   -0.243068
 H    1.502693   -1.216203    1.758852
 H    1.958257    0.735726    2.778156
 H    3.116524    2.605555    1.816344
 H    2.971583    1.965471    0.177608
 H    4.448905    0.102203    0.690792
 H    5.408822    2.251471   -0.121161
 H    6.551458    1.393995    0.927644
 H    5.647685    2.783220    1.553176
 H    5.715574    0.020207    2.866048
 H    3.994314   -0.300392    3.085966
 H    4.660447    1.288263    3.510233
 H   -3.254434    0.599715   -0.371299
 H   -1.662109   -0.170846   -0.248507
 H   -0.497670    3.809225   -2.696121
 H   -2.412605    2.317105   -1.884281
 H   -0.902131    1.457117   -2.148510
 H   -4.168244   -2.500222   -2.463593
 H   -4.800018   -1.266580   -1.325687
 H   -3.468131   -2.369239   -0.814635
 H   -1.711804    2.447115    0.619793
 H   -0.171993    4.332182    0.304979
 H   -1.674699    4.434863   -0.600263
 H    2.031557    4.043923   -2.739787
 H    1.498036    2.556642   -1.967606
 H    2.031929    3.920798   -0.972685
 H   -0.887125    6.186912   -2.052541
 H    0.615993    6.008598   -2.973483
 H    0.673800    6.217322   -1.215301
 H    0.741142    1.264178   -0.494087
