91 
4no8_ligand_ani.xyz
 C   -1.175938    1.792944   -1.375357
 O   -0.649476    2.073641   -2.444049
 O   -2.346277    1.142087   -1.261646
 C   -2.925661    0.728920   -2.523278
 C   -4.061805   -0.201585   -2.207649
 C   -3.819341   -1.563976   -2.017674
 C   -4.843647   -2.420370   -1.623153
 C   -6.128879   -1.921444   -1.423078
 C   -6.381820   -0.565296   -1.617101
 C   -5.352072    0.287377   -2.007885
 N   -0.666098    2.090709   -0.153015
 C    0.698564    2.592433   -0.040493
 C    1.680858    1.414108   -0.201367
 O    2.253813    0.908822    0.762297
 C    0.891181    3.328578    1.280905
 C    2.258171    4.000347    1.471089
 C    2.348874    4.584752    2.882146
 C    2.529256    5.086350    0.428352
 N    1.824731    0.982559   -1.474977
 C    2.490980   -0.261078   -1.870048
 C    1.718180   -1.485519   -1.352164
 O    1.089983   -2.206255   -2.134370
 C    3.988112   -0.299114   -1.525222
 C    4.822061    0.846555   -2.114694
 C    6.282730    0.678679   -1.694260
 C    4.714290    0.927969   -3.637581
 C   -0.358899   -2.793217    0.729083
 O   -1.036248   -2.834964   -0.510756
 C    1.176692   -2.914678    0.574281
 C    1.871338   -3.259835    1.890307
 C    3.181148   -4.055325    1.761867
 C    3.624231   -4.522780    3.149997
 C    4.310419   -3.270005    1.091619
 N    1.770115   -1.728066   -0.027208
 C   -0.757167   -1.528177    1.514623
 O   -0.033171   -1.057650    2.380964
 C   -2.722619   -0.014392    1.800108
 C   -2.224835    0.750964    2.853276
 C   -3.008487    1.773977    3.382417
 C   -4.280250    2.035338    2.884182
 C   -4.778383    1.254535    1.844609
 C   -4.010689    0.228468    1.309777
 N   -1.978942   -1.031779    1.172116
 H   -2.150941    0.233329   -3.119334
 H   -3.263343    1.619778   -3.059556
 H   -2.813088   -1.960476   -2.150721
 H   -4.634637   -3.476453   -1.471133
 H   -6.929858   -2.584332   -1.110460
 H   -7.381699   -0.168798   -1.457324
 H   -5.548064    1.350828   -2.134039
 H   -1.076152    1.614639    0.643052
 H    0.833405    3.268016   -0.894416
 H    0.738047    2.606445    2.095414
 H    0.095656    4.083012    1.361396
 H    3.022655    3.218856    1.372765
 H    1.585562    5.359994    3.030892
 H    3.328931    5.041914    3.059387
 H    2.194982    3.811857    3.643699
 H    3.498724    5.563147    0.612191
 H    2.550271    4.689191   -0.592232
 H    1.759217    5.868381    0.471647
 H    1.177232    1.378377   -2.149950
 H    2.370835   -0.322776   -2.954236
 H    4.389188   -1.254988   -1.897009
 H    4.111039   -0.299613   -0.435885
 H    4.453710    1.790966   -1.693049
 H    6.382189    0.641335   -0.603434
 H    6.897250    1.508172   -2.061451
 H    6.698095   -0.251825   -2.102407
 H    5.364794    1.718841   -4.027595
 H    5.023147   -0.017544   -4.103380
 H    3.694031    1.151642   -3.968545
 H   -0.695968   -3.660436    1.315394
 H   -0.373975   -2.713990   -1.226472
 H    1.321330   -3.728433   -0.148569
 H    2.037029   -2.339920    2.465602
 H    1.172778   -3.858244    2.490067
 H    2.971282   -4.948046    1.151883
 H    2.857465   -5.137278    3.635586
 H    4.545341   -5.114157    3.096131
 H    3.821069   -3.658495    3.797665
 H    4.495886   -2.328512    1.626585
 H    4.088662   -3.031850    0.046584
 H    5.241183   -3.847950    1.110917
 H    2.078769   -0.976559    0.588404
 H   -1.232641    0.549303    3.241308
 H   -2.612826    2.371599    4.200192
 H   -4.880683    2.837014    3.304864
 H   -5.772157    1.446109    1.446555
 H   -4.404087   -0.372083    0.492748
 H   -2.446831   -1.482423    0.396518
