87 
4no9_ligand_xtb.xyz
 C    1.838203    1.349144    0.875347
 O    1.395671    1.545170    1.990268
 O    2.899681    0.591542    0.592484
 C    3.427443   -0.178615    1.684948
 C    4.649422   -0.898580    1.195452
 C    5.775603   -0.183638    0.807796
 C    6.895923   -0.846076    0.339603
 C    6.900706   -2.228653    0.259329
 C    5.779929   -2.945407    0.642979
 C    4.655357   -2.283776    1.105840
 N    1.316902    1.889210   -0.248771
 C    0.115070    2.703757   -0.247448
 C   -1.093354    1.761178   -0.064506
 O   -1.802106    1.434450   -1.009867
 C   -0.012874    3.505583   -1.539584
 C    0.839461    4.777953   -1.584461
 C    2.335660    4.475046   -1.565130
 C    0.486230    5.578676   -2.837033
 N   -1.240199    1.338100    1.194039
 C   -2.208662    0.355345    1.675565
 C   -1.892983   -1.018833    1.060420
 O   -1.381157   -1.905019    1.728284
 C   -3.653183    0.802406    1.434255
 C   -4.022445    2.082132    2.196644
 C   -5.370221    2.597086    1.694152
 C   -4.083368    1.853560    3.704801
 N   -2.193225   -1.140223   -0.232739
 C   -1.802830   -2.269994   -1.047316
 C   -2.997454   -2.761692   -1.868167
 C   -4.254433   -3.035219   -1.034997
 C   -4.005641   -4.099122    0.031876
 C   -5.390161   -3.468312   -1.960033
 C   -0.640344   -1.850225   -1.985963
 C    0.653160   -1.515321   -1.210120
 C    1.710125   -0.989096   -2.182079
 C    1.209911   -2.721591   -0.418379
 O    1.220013   -2.536287    0.971160
 O   -1.034186   -0.790246   -2.822492
 H    2.660736   -0.890169    2.007469
 H    3.661378    0.500265    2.513318
 H    5.769369    0.894879    0.871162
 H    7.768199   -0.283748    0.039461
 H    7.777054   -2.745746   -0.103178
 H    5.780568   -4.023591    0.578767
 H    3.774914   -2.835588    1.398196
 H    1.687292    1.582366   -1.134619
 H    0.167407    3.374234    0.619126
 H    0.236382    2.861177   -2.385432
 H   -1.063460    3.782120   -1.649313
 H    0.596756    5.385696   -0.705352
 H    2.902684    5.400043   -1.642812
 H    2.625450    3.977419   -0.644136
 H    2.607013    3.840424   -2.406406
 H   -0.570661    5.833935   -2.847837
 H    1.061420    6.500526   -2.874052
 H    0.708447    5.000504   -3.731168
 H   -0.478089    1.562819    1.832013
 H   -2.028996    0.250398    2.748092
 H   -4.318423   -0.008525    1.738470
 H   -3.801983    0.985298    0.369494
 H   -3.260321    2.840388    1.984870
 H   -6.148253    1.858581    1.875805
 H   -5.643620    3.515323    2.208332
 H   -5.331916    2.801415    0.626551
 H   -3.115451    1.565277    4.105647
 H   -4.394452    2.765852    4.208398
 H   -4.801852    1.071384    3.940523
 H   -2.533136   -0.323699   -0.729822
 H   -1.460423   -3.053778   -0.369061
 H   -3.221876   -2.006941   -2.625403
 H   -2.702630   -3.675631   -2.387179
 H   -4.551364   -2.106792   -0.534824
 H   -3.296364   -3.750374    0.777604
 H   -4.934953   -4.342802    0.542064
 H   -3.616733   -5.008695   -0.421246
 H   -5.582212   -2.710125   -2.715869
 H   -6.304830   -3.627287   -1.393558
 H   -5.134287   -4.397738   -2.464236
 H   -0.432508   -2.682519   -2.668622
 H    0.419868   -0.724437   -0.486099
 H    1.304641   -0.177898   -2.783717
 H    2.583533   -0.641316   -1.634973
 H    2.016423   -1.783038   -2.860047
 H    2.258292   -2.874522   -0.689083
 H    0.660677   -3.636714   -0.684668
 H    0.308205   -2.444381    1.304788
 H   -1.241082   -0.007041   -2.286570
