25 
4nq6_ligand_xtb.xyz
 O   -1.478771   -2.140046   -0.021068
 N    0.039212    0.129563    0.056997
 C   -1.974664   -1.181675   -0.545725
 O   -3.087429   -1.152685   -1.233239
 C   -1.347631    0.218130   -0.449494
 C   -2.103716    1.068913    0.558281
 S   -0.996115    2.486593    0.881688
 C    0.497199    1.468942    0.530264
 C    1.363523    2.061725   -0.559137
 S    2.447767    0.678754   -1.014646
 C    1.028795   -0.492354   -0.864569
 C    1.503660   -1.856285   -0.338120
 S    1.321235   -1.971863    1.488774
 H    0.082716   -0.553545    0.898859
 H   -3.535109   -2.016325   -1.282883
 H   -1.356361    0.698647   -1.433381
 H   -2.285459    0.532248    1.490998
 H   -3.044023    1.444168    0.161609
 H    1.077406    1.338411    1.448179
 H    1.973981    2.884814   -0.196661
 H    0.783051    2.394070   -1.420728
 H    0.579846   -0.607743   -1.854264
 H    2.560003   -1.987016   -0.569550
 H    0.935856   -2.671047   -0.779830
 H    0.314029   -2.841877    1.491082
