34 
4nrb_ligand_ani.xyz
 C   -2.116437    3.462038    0.099846
 N   -1.673523    2.090461   -0.014425
 C   -2.546709    1.074256    0.161482
 C   -2.038803   -0.344017   -0.003216
 C   -3.035833   -1.320896    0.040072
 C   -2.753353   -2.671456   -0.109310
 C   -1.434992   -3.061329   -0.299162
 C   -0.413101   -2.118482   -0.331021
 C   -0.701262   -0.757981   -0.181079
 O    0.277275    0.199520   -0.212522
 C    1.657787   -0.149923   -0.349833
 C    2.389863    1.126193   -0.745731
 C    3.893330    0.880233   -0.779030
 O    4.363831    0.410193    0.468702
 C    3.756933   -0.814611    0.829339
 C    2.243021   -0.679302    0.960288
 O   -3.724382    1.277585    0.436673
 H   -2.752649    3.750924   -0.744433
 H   -2.697468    3.593928    1.017125
 H   -1.241384    4.115418    0.130443
 H   -0.721770    1.867199   -0.251814
 H   -4.052925   -0.973365    0.194515
 H   -3.551762   -3.406697   -0.077371
 H   -1.188108   -4.112438   -0.422365
 H    0.606578   -2.460196   -0.470866
 H    1.772598   -0.889845   -1.153984
 H    2.172801    1.902351   -0.000085
 H    2.034025    1.485662   -1.718965
 H    4.443856    1.801854   -0.989325
 H    4.137843    0.149324   -1.570620
 H    4.207313   -1.112912    1.780447
 H    4.001429   -1.587641    0.079012
 H    1.797312   -1.639559    1.243245
 H    2.010510    0.036047    1.757342
