39 
4nrl_ligand_dft.xyz
 C   -2.430814   -2.030192    0.789189
 C   -2.273122   -1.414040   -0.600209
 C   -2.875856   -0.014680   -0.720114
 C   -2.044206    1.037340    0.013397
 C   -0.582272    0.940636   -0.451449
 C   -0.075902   -0.505801   -0.334707
 C    1.348725   -0.697284   -0.941551
 C    2.326402   -1.157477    0.140418
 C    3.726025   -1.379175   -0.405137
 C    0.460687    3.093205    0.184997
 C    1.624443    3.729984    0.913785
 N    0.332609    1.756336    0.339332
 O   -1.540156   -2.439206    1.491608
 O   -3.727749   -2.090584    1.137804
 O   -2.634165    2.281305   -0.242810
 O   -0.925940   -1.419645   -1.007701
 O    1.367425   -1.610690   -2.008400
 O    2.371440   -0.145957    1.138956
 O    4.543542   -1.626486    0.731485
 O   -0.322384    3.767305   -0.483786
 H   -2.789912   -2.088982   -1.290433
 H   -3.901565   -0.000919   -0.344090
 H   -2.905606    0.256948   -1.780434
 H   -2.053040    0.822867    1.098275
 H   -0.535936    1.264112   -1.501041
 H   -0.048737   -0.772324    0.728631
 H    1.704319    0.272267   -1.318677
 H    1.957107   -2.098389    0.576058
 H    3.724760   -2.221664   -1.105030
 H    4.054792   -0.474090   -0.937735
 H    1.245352    4.265242    1.789681
 H    2.086674    4.464644    0.251156
 H    2.373618    3.002565    1.236893
 H    1.050035    1.262204    0.864177
 H   -3.760219   -2.499153    2.017923
 H   -1.927148    2.942411   -0.379594
 H    0.504566   -2.052188   -2.007757
 H    3.146525   -0.347131    1.683648
 H    5.465386   -1.636206    0.454041
