21 
4nrm_ligand_ani.xyz
 C    0.531450   -1.939263   -0.400299
 C    0.291784   -0.593410   -1.100401
 C    0.309835    0.665257   -0.201636
 C    1.696951    0.871223    0.422517
 C   -0.719070    0.624526    0.941707
 C   -2.096131    0.325885    0.383690
 O    1.527152   -2.584161   -0.598052
 O   -0.426660   -2.396376    0.423998
 O    2.257199   -0.010169    1.019335
 O    2.210049    2.096734    0.289732
 O   -2.642360    1.275593   -0.371083
 O   -2.657862   -0.737566    0.548528
 O   -0.002882    1.817160   -1.008772
 H   -0.666563   -0.616852   -1.638328
 H    1.089927   -0.514276   -1.845753
 H   -0.718255    1.597195    1.447458
 H   -0.444918   -0.137994    1.672059
 H   -1.260726   -1.875829    0.420470
 H    1.576244    2.609721   -0.245110
 H   -1.956004    1.934424   -0.583178
 H    0.174291    1.588582   -1.930574
