16 
4nro_ligand_xtb.xyz
 C   -2.444977    0.361831   -0.050055
 O   -3.450525   -0.415676    0.316995
 O   -2.542673    1.504985   -0.390940
 C   -1.097667   -0.403469   -0.002261
 O   -1.134673   -1.578642    0.292073
 C    0.115494    0.395278   -0.312557
 C    1.365099   -0.455662   -0.519991
 C    2.588383    0.188361    0.116082
 O    3.751564   -0.418009   -0.163619
 O    2.543308    1.147616    0.827238
 H   -3.097683   -1.307234    0.527267
 H    0.286468    1.064160    0.543425
 H   -0.100084    1.052605   -1.156625
 H    1.550571   -0.630966   -1.581925
 H    1.214317   -1.428462   -0.037720
 H    3.652422   -1.190320   -0.735714
