16 
4nro_ligand_ani.xyz
 C   -2.468195    0.390865   -0.108790
 O   -3.536973   -0.390745    0.011341
 O   -2.506928    1.562015   -0.375174
 C   -1.148627   -0.386968    0.137683
 O   -1.241836   -1.578520    0.356554
 C    0.140778    0.379943    0.124323
 C    1.321869   -0.494945   -0.272226
 C    2.652480    0.172681    0.024629
 O    3.745044   -0.527864   -0.358779
 O    2.773058    1.239862    0.562929
 H   -3.209418   -1.287045    0.223414
 H    0.307120    0.790844    1.128165
 H    0.029437    1.248543   -0.533270
 H    1.283080   -0.749118   -1.340382
 H    1.267480   -1.445738    0.273780
 H    3.473550   -1.364921   -0.760393
