59 
4ntj_ligand_xtb.xyz
 C    8.410845   -0.343084    2.518057
 C    4.720789   -2.457736   -1.315181
 N    2.326464    3.647175    0.438596
 O   -2.465679   -0.608834    1.353624
 O    7.016830   -1.444068   -0.110823
 O   -6.013589   -2.221425   -0.296807
 O   -4.366457   -3.048494    1.316107
 C    2.614865    2.593964    0.077838
 C   -5.533137    2.941302   -0.581717
 C   -6.457556    1.932197   -0.798197
 C   -4.590253    2.806036    0.423149
 C   -6.437238    0.790233   -0.017247
 C   -4.564860    1.663314    1.204295
 C    4.405610    1.051374    0.065750
 C    8.301698    0.454862    1.226366
 C   -0.624085   -1.237538   -1.166130
 C   -0.901924    1.090250   -0.293637
 C    0.464960   -0.704068   -2.097948
 C    0.208484    1.524755   -1.252807
 C   -5.421407   -0.618903    1.769554
 N    2.977331   -0.848626   -1.280144
 N   -3.761039   -1.209775   -0.366520
 O    6.946385    0.602037    0.808792
 C   -2.637093   -0.655798    0.159874
 C    6.404177   -0.433278    0.143046
 C    4.218864   -1.109623   -0.931960
 C   -5.486553    0.645050    0.988272
 C    3.092666    1.326393   -0.303969
 C    5.006200   -0.165082   -0.240932
 C    2.377040    0.317840   -1.012699
 C   -1.637986   -0.127006   -0.856421
 N    1.122371    0.435967   -1.493807
 S   -4.951595   -1.949562    0.623049
 H    7.812735    0.120068    3.299290
 H    8.058639   -1.358940    2.356832
 H    9.448651   -0.376997    2.836974
 H    3.932867   -3.008405   -1.821094
 H    5.587306   -2.363292   -1.966089
 H    5.049368   -3.001815   -0.432425
 H   -5.550216    3.831968   -1.191883
 H   -7.197406    2.035544   -1.577707
 H   -3.872876    3.593500    0.601374
 H   -7.145462   -0.004419   -0.193326
 H   -3.825152    1.555216    1.982896
 H    4.965287    1.803095    0.601757
 H    8.866317   -0.040835    0.429335
 H    8.666077    1.475416    1.361960
 H   -0.167121   -1.572428   -0.233556
 H   -1.122345   -2.090757   -1.628099
 H   -1.600566    1.914363   -0.145699
 H   -0.476278    0.828699    0.676108
 H    0.021067   -0.382548   -3.046546
 H    1.216852   -1.468759   -2.287000
 H    0.732240    2.388069   -0.851874
 H   -0.234597    1.811212   -2.215153
 H   -6.383681   -0.929614    2.169196
 H   -4.657685   -0.606608    2.540143
 H   -3.933789   -1.230486   -1.357373
 H   -2.165168    0.152094   -1.774981
