59 
4ntj_ligand_dft.xyz
 C    8.036366    2.935689    0.329556
 C    5.058872   -3.010996    0.380422
 N    1.057802    2.451315   -0.382503
 O   -3.300397   -1.467003    1.509313
 O    7.104620   -1.080032    0.458096
 O   -6.492766   -0.018687   -1.052823
 O   -6.462961   -1.582666    0.930914
 C    1.729876    1.504882   -0.414655
 C   -2.265792    3.328243   -0.315760
 C   -3.475734    3.226095   -0.998844
 C   -2.089231    2.639494    0.880222
 C   -4.502074    2.432049   -0.496195
 C   -3.108011    1.832340    1.377185
 C    3.946590    0.581453   -0.177343
 C    7.931864    1.428214    0.419412
 C   -0.987496   -2.524962    0.259100
 C   -1.365608   -0.318947   -0.908428
 C    0.335628   -2.661070   -0.497407
 C   -0.044999   -0.548433   -1.634377
 C   -5.392313    0.816624    1.239233
 N    2.976352   -1.990867   -0.200832
 N   -4.354383   -1.090838   -0.472261
 O    6.554941    1.082191    0.210439
 C   -3.254253   -1.427222    0.297548
 C    6.264876   -0.229436    0.257179
 C    4.261311   -1.778298    0.062157
 C   -4.319405    1.718583    0.691879
 C    2.592320    0.365812   -0.409407
 C    4.820371   -0.479566    0.030329
 C    2.136078   -0.984136   -0.488148
 C   -1.993554   -1.672878   -0.518488
 N    0.861724   -1.335708   -0.810009
 S   -5.841122   -0.545509    0.137531
 H    7.713092    3.290496   -0.653327
 H    7.417271    3.415093    1.093334
 H    9.074949    3.243763    0.483541
 H    4.386421   -3.869932    0.390424
 H    5.847967   -3.165103   -0.360535
 H    5.564707   -2.914619    1.344404
 H   -1.454479    3.929905   -0.711755
 H   -3.623935    3.768455   -1.928023
 H   -1.142685    2.711594    1.406083
 H   -5.441069    2.348122   -1.035258
 H   -2.956297    1.267435    2.292619
 H    4.318035    1.598507   -0.128231
 H    8.246705    1.053081    1.397745
 H    8.541123    0.928961   -0.339888
 H   -0.806720   -2.060306    1.233362
 H   -1.402845   -3.520208    0.448560
 H   -2.041980    0.268722   -1.539495
 H   -1.178095    0.273117   -0.008051
 H    0.189707   -3.220689   -1.433378
 H    1.073944   -3.197921    0.094602
 H    0.407378    0.398572   -1.918978
 H   -0.222274   -1.112844   -2.563304
 H   -6.348071    1.330358    1.390347
 H   -5.090211    0.340590    2.173186
 H   -4.254946   -0.923617   -1.465757
 H   -2.271800   -2.202311   -1.442019
