45 
4nuc_ligand_ani.xyz
 C    5.845760    0.556494   -1.164526
 C    4.482499    0.364166   -1.313417
 C    3.696919   -0.044343   -0.239136
 C    4.275974   -0.260741    1.008200
 C    5.639063   -0.073150    1.200914
 C    6.408991    0.335348    0.102724
 O    7.755485    0.540262    0.207010
 C    6.267555   -0.306288    2.557029
 N    2.309627   -0.202750   -0.522308
 N    1.647946   -0.723381    0.400199
 C    0.263016   -0.902486    0.113957
 C   -0.447706   -1.632480    1.066315
 C   -1.802238   -1.862054    0.891467
 C   -2.436688   -1.341502   -0.235402
 C   -1.731373   -0.621607   -1.198471
 C   -0.375542   -0.398498   -1.020599
 S   -4.178283   -1.585302   -0.422627
 O   -4.543181   -2.836394    0.215449
 O   -4.521159   -1.293337   -1.801822
 N   -4.872645   -0.406349    0.535583
 C   -4.656000    0.980788    0.427769
 N   -4.768621    1.636028    1.574919
 C   -4.587125    2.960154    1.556057
 C   -4.304427    3.679413    0.407457
 C   -4.213645    2.975762   -0.791179
 C   -4.396900    1.603810   -0.801536
 C    6.721460    0.989170   -2.308862
 H    3.993979    0.522725   -2.271818
 H    3.629018   -0.584487    1.818455
 H    8.030685    0.364111    1.115053
 H    5.506634   -0.633956    3.271707
 H    7.038706   -1.086150    2.526433
 H    6.721630    0.605879    2.963875
 H    0.091214   -2.011715    1.929490
 H   -2.368586   -2.448838    1.610022
 H   -2.235195   -0.257427   -2.088707
 H    0.217899    0.151568   -1.741874
 H   -5.057803   -0.721149    1.482354
 H   -4.676249    3.461821    2.518389
 H   -4.164482    4.755195    0.445378
 H   -4.003655    3.497330   -1.721216
 H   -4.366081    1.024669   -1.717795
 H    6.127645    1.114409   -3.219175
 H    7.220258    1.938501   -2.088031
 H    7.506037    0.251498   -2.506921
