45 
4nuc_ligand_dft.xyz
 C    5.666410    1.112444   -0.836542
 C    4.297924    0.929851   -0.979650
 C    3.611238   -0.028801   -0.233382
 C    4.306311   -0.827177    0.679137
 C    5.673684   -0.675082    0.850182
 C    6.340060    0.299561    0.084848
 O    7.677642    0.505396    0.198641
 C    6.443480   -1.526748    1.828793
 N    2.222934   -0.111585   -0.475271
 N    1.615432   -0.969572    0.202570
 C    0.218566   -1.031846   -0.063265
 C   -0.492612   -1.960880    0.697024
 C   -1.862508   -2.104721    0.525035
 C   -2.507367   -1.312401   -0.420225
 C   -1.807011   -0.387630   -1.195690
 C   -0.440261   -0.246757   -1.015053
 S   -4.275778   -1.437571   -0.589289
 O   -4.693823   -2.748184   -0.129576
 O   -4.632694   -0.923448   -1.898486
 N   -4.898231   -0.379675    0.559046
 C   -4.537529    0.984067    0.623336
 N   -4.238227    1.409903    1.848300
 C   -3.919964    2.698381    1.992836
 C   -3.858779    3.598249    0.937229
 C   -4.177715    3.131918   -0.335883
 C   -4.540911    1.804827   -0.508270
 C    6.430423    2.138138   -1.628388
 H    3.733689    1.536404   -1.682285
 H    3.758659   -1.568585    1.251489
 H    8.048301   -0.100805    0.850778
 H    5.777030   -2.227488    2.336721
 H    7.219547   -2.124377    1.331716
 H    6.928214   -0.922240    2.607311
 H    0.048870   -2.564185    1.417960
 H   -2.425112   -2.832118    1.100506
 H   -2.332211    0.198420   -1.941375
 H    0.133215    0.460003   -1.603182
 H   -4.899698   -0.807566    1.480939
 H   -3.694791    3.016167    3.008057
 H   -3.579285    4.631639    1.109194
 H   -4.161306    3.802141   -1.189949
 H   -4.830164    1.406671   -1.472890
 H    5.763520    2.686286   -2.299133
 H    6.925375    2.857679   -0.967517
 H    7.215607    1.667117   -2.229272
