44 
4nud_ligand_xtb.xyz
 C    5.874822    0.056687   -1.336554
 C    4.546029   -0.218916   -1.448750
 C    3.687817   -0.165350   -0.264326
 C    4.203325    0.215834    0.928393
 C    5.585770    0.696382    1.092668
 C    6.512667    0.424393   -0.106331
 O    7.716350    0.564603    0.013333
 C    6.216219    0.238238    2.410722
 N    2.400401   -0.617062   -0.467161
 N    1.586953   -0.517013    0.497548
 C    0.275707   -0.853839    0.295278
 C   -0.443501   -1.373821    1.382046
 C   -1.794965   -1.610889    1.259945
 C   -2.435417   -1.314665    0.068308
 C   -1.749062   -0.791193   -1.011688
 C   -0.392713   -0.566566   -0.905662
 S   -4.208382   -1.496725   -0.013993
 O   -4.639959   -2.559528    0.838111
 O   -4.633055   -1.474661   -1.378533
 N   -4.726317   -0.082178    0.745831
 C   -4.267522    1.159698    0.340252
 N   -3.911698    1.998203    1.306000
 C   -3.485226    3.203448    0.962557
 C   -3.372791    3.628443   -0.348491
 C   -3.744990    2.745020   -1.355166
 C   -4.205558    1.488858   -1.015691
 N    3.945099   -0.550085   -2.613982
 H    6.522035   -0.059418   -2.193861
 H    3.577125    0.153625    1.808881
 H    5.531328    1.797417    1.117844
 H    6.212100   -0.847893    2.466979
 H    7.247061    0.579445    2.449072
 H    5.673514    0.638708    3.263414
 H    0.083580   -1.601766    2.295050
 H   -2.371353   -2.029615    2.069676
 H   -2.286713   -0.585832   -1.923321
 H    0.170842   -0.143040   -1.723411
 H   -4.776213   -0.178306    1.750058
 H   -3.217600    3.847189    1.789954
 H   -3.012891    4.618410   -0.578753
 H   -3.683339    3.039363   -2.392751
 H   -4.525635    0.770358   -1.750917
 H    4.509275   -0.769250   -3.415995
 H    3.009574   -0.918708   -2.554018
