44 
4nud_ligand_ani.xyz
 C    6.093497    0.972314   -1.020232
 C    4.741113    0.858505   -1.217735
 C    3.927083    0.343675   -0.159073
 C    4.474030    0.030411    1.050299
 C    5.903039    0.014574    1.352721
 C    6.756187    0.580347    0.207036
 O    7.963897    0.693243    0.344947
 C    6.402428   -1.393661    1.762145
 N    2.551733    0.158710   -0.495902
 N    1.884930   -0.413457    0.398534
 C    0.521314   -0.651629    0.093959
 C   -0.175357   -1.389626    1.054210
 C   -1.509153   -1.703373    0.855972
 C   -2.144535   -1.261388   -0.303933
 C   -1.459792   -0.521901   -1.265312
 C   -0.123351   -0.215579   -1.063852
 S   -3.845166   -1.678937   -0.555730
 O   -4.071359   -3.028056   -0.069931
 O   -4.203216   -1.275351   -1.903035
 N   -4.677378   -0.711139    0.510748
 C   -4.751899    0.691224    0.522779
 N   -5.154701    1.192809    1.683564
 C   -5.266307    2.519917    1.783811
 C   -4.992542    3.393787    0.745241
 C   -4.583242    2.847550   -0.468650
 C   -4.460398    1.475273   -0.602078
 N    4.153236    1.168861   -2.419060
 H    6.747802    1.362787   -1.790759
 H    3.821138   -0.314487    1.839357
 H    6.087432    0.658221    2.236023
 H    6.287586   -2.096722    0.930874
 H    7.454848   -1.357626    2.056302
 H    5.800347   -1.757649    2.600875
 H    0.358612   -1.712871    1.942921
 H   -2.054543   -2.301243    1.581979
 H   -1.964051   -0.205227   -2.173076
 H    0.439333    0.351877   -1.793256
 H   -4.935631   -1.164641    1.379866
 H   -5.595906    2.893201    2.752426
 H   -5.100593    4.465761    0.878185
 H   -4.365032    3.491518   -1.316288
 H   -4.176454    1.011341   -1.540433
 H    4.635051    1.837971   -2.999980
 H    3.150724    1.269083   -2.378207
