44 
4nud_ligand_dft.xyz
 C    5.647772    1.645944   -0.191682
 C    4.300973    1.445402   -0.269191
 C    3.726026    0.116322    0.022129
 C    4.515659   -0.919393    0.343599
 C    5.997688   -0.805065    0.457336
 C    6.570081    0.590235    0.158682
 O    7.781266    0.755647    0.222207
 C    6.708998   -1.863762   -0.404036
 N    2.323224    0.023801   -0.156360
 N    1.778740   -0.945575    0.411137
 C    0.383973   -1.061965    0.160319
 C   -0.308229   -1.915188    1.019893
 C   -1.676220   -2.096680    0.867605
 C   -2.331036   -1.433323   -0.165656
 C   -1.644950   -0.600796   -1.050227
 C   -0.281624   -0.413655   -0.884398
 S   -4.098764   -1.613257   -0.325780
 O   -4.497057   -2.834842    0.345581
 O   -4.444049   -1.332876   -1.706484
 N   -4.743116   -0.385169    0.619666
 C   -4.418603    0.977624    0.430034
 N   -4.083634    1.618299    1.547078
 C   -3.800667    2.919530    1.450467
 C   -3.809866    3.620532    0.251721
 C   -4.164242    2.930490   -0.905101
 C   -4.492569    1.585290   -0.826421
 N    3.408694    2.422112   -0.576804
 H    6.077366    2.620937   -0.400699
 H    4.057667   -1.891430    0.509803
 H    6.257587   -1.010758    1.507335
 H    6.453009   -1.735420   -1.460607
 H    7.788174   -1.743054   -0.291553
 H    6.424451   -2.875719   -0.098831
 H    0.242167   -2.424397    1.803764
 H   -2.229323   -2.759502    1.524302
 H   -2.176077   -0.125459   -1.867111
 H    0.279444    0.216808   -1.564314
 H   -4.725059   -0.638967    1.603905
 H   -3.546419    3.416430    2.383519
 H   -3.558767    4.675058    0.228364
 H   -4.204833    3.440934   -1.862557
 H   -4.807509    1.016243   -1.692231
 H    3.742709    3.306391   -0.923466
 H    2.458032    2.157059   -0.781028
