47 
4nue_ligand_ani.xyz
 C   -4.066009    3.448787    1.423516
 C   -4.117757    2.225982    2.089371
 C   -4.279347    3.445801    0.055856
 C   -4.368827    1.065610    1.379551
 N   -4.523906    2.340319   -0.653650
 C   -4.548507    1.182633   -0.006311
 N   -4.823093    0.073713   -0.826114
 S   -4.375806   -1.509618   -0.550417
 C   -2.110419   -1.628986    0.993000
 C   -2.629630   -1.421729   -0.283820
 C   -0.746507   -1.491702    1.195951
 C   -1.804081   -1.106794   -1.360251
 C    0.082278   -1.135727    0.132883
 C   -0.444759   -0.951031   -1.145333
 O   -4.628249   -2.179716   -1.813089
 O   -4.991720   -1.944382    0.689282
 N    1.463812   -1.021955    0.433650
 N    2.096334   -0.232447   -0.302657
 C    3.480354   -0.089240    0.020299
 C    4.161892   -0.903936    0.873231
 C    4.142115    0.970147   -0.676706
 C    5.598000   -0.826520    1.135670
 C    5.498373    1.146775   -0.541402
 C    6.295317    0.253704    0.290063
 N    3.391999    1.844422   -1.437335
 C    6.202017    2.261646   -1.250484
 O    7.510408    0.350714    0.353122
 C    6.308347   -2.190303    0.984232
 H   -3.871274    4.376038    1.953467
 H   -3.967092    2.177736    3.164474
 H   -4.256820    4.374682   -0.512227
 H   -4.449538    0.098645    1.866233
 H   -4.932348    0.295726   -1.810121
 H   -2.772849   -1.905241    1.809097
 H   -0.300017   -1.646090    2.173508
 H   -2.218210   -0.990235   -2.358091
 H    0.233276   -0.686782   -1.947976
 H    3.616600   -1.674421    1.401393
 H    5.750613   -0.533206    2.195347
 H    2.456334    1.527418   -1.637941
 H    3.864248    2.295384   -2.206058
 H    5.702109    3.222230   -1.074557
 H    7.233538    2.329870   -0.898301
 H    6.231498    2.098986   -2.336735
 H    5.790953   -2.934007    1.597780
 H    7.352423   -2.120514    1.297550
 H    6.272829   -2.524318   -0.057848
