52 
4nw5_ligand_ani.xyz
 F   -1.104166   -0.862575   -1.429495
 C   -2.145054   -1.452805   -0.803422
 C   -2.187356   -2.836999   -0.812189
 C   -3.245024   -3.463710   -0.174865
 C   -4.227948   -2.715439    0.462425
 C   -4.159651   -1.323525    0.449868
 O   -5.068728   -0.543544    1.088560
 C   -6.132417   -1.170399    1.767369
 C   -3.115968   -0.642240   -0.218367
 C   -3.092960    0.845189   -0.338771
 C   -4.243078    1.587839   -0.617547
 C   -4.212678    2.977550   -0.759829
 C   -3.036166    3.702245   -0.611995
 C   -1.878229    2.986276   -0.328297
 C   -1.931519    1.598619   -0.213635
 N   -0.569095    3.420821   -0.125096
 C    0.074425    2.319733    0.090127
 O   -0.657639    1.176109    0.071207
 N    1.411841    2.250593    0.357193
 C    2.306646    1.166036    0.313158
 C    1.904349   -0.159907    0.164012
 C    2.874078   -1.164958    0.138074
 O    2.582982   -2.477980   -0.044143
 C    1.221680   -2.805855   -0.217925
 C    4.230752   -0.870918    0.294665
 O    5.156875   -1.872934    0.357791
 C    5.657075   -2.254236   -0.914084
 C    4.625394    0.469849    0.398869
 C    3.668105    1.481164    0.426647
 O    5.965574    0.673563    0.457454
 C    6.416678    2.004470    0.589173
 H   -1.405347   -3.398375   -1.314744
 H   -3.311454   -4.548152   -0.165349
 H   -5.043658   -3.226270    0.961383
 H   -6.755788   -1.755148    1.078761
 H   -5.769527   -1.821931    2.572735
 H   -6.728114   -0.364221    2.197254
 H   -5.187878    1.069680   -0.729109
 H   -5.136355    3.505591   -0.980560
 H   -3.015705    4.782878   -0.714091
 H    1.841184    3.163880    0.396122
 H    0.861208   -0.409965    0.067779
 H    0.641104   -2.531066    0.673535
 H    0.800973   -2.288539   -1.087534
 H    1.171458   -3.885148   -0.368107
 H    4.848830   -2.630636   -1.553673
 H    6.153459   -1.407961   -1.405885
 H    6.384138   -3.050523   -0.738617
 H    3.968070    2.516966    0.533507
 H    6.107334    2.618300   -0.266600
 H    6.049398    2.463408    1.516487
 H    7.505621    1.950921    0.619760
