44 
4nw7_ligand_dft.xyz
 O    7.357334    0.165876    0.709184
 C    6.169578    0.075337    0.550982
 O    5.311173    0.455686    1.513166
 C    5.552625   -0.431193   -0.758840
 C    4.127232   -0.912536   -0.658085
 C    3.052852   -0.064817   -0.935130
 C    1.731978   -0.481848   -0.802781
 C    3.837895   -2.213958   -0.235778
 C    2.528821   -2.643379   -0.092458
 C    1.459163   -1.781815   -0.369506
 N    0.166091   -2.306982   -0.226789
 C   -1.044175   -1.690395   -0.111641
 N   -2.082621   -2.529807    0.023823
 C   -3.269292   -1.937871    0.134744
 C   -4.464884   -2.790621    0.277455
 C   -4.510621   -4.125735   -0.440079
 C   -4.354774   -4.096278    1.040585
 N   -3.467569   -0.611397    0.129081
 N   -1.126011   -0.358697   -0.131158
 C   -2.363629    0.125422    0.000406
 C   -2.518598    1.602031    0.002814
 C   -3.791995    2.174897    0.009168
 C   -1.386414    2.419758    0.000224
 C   -1.545370    3.797240   -0.001604
Cl   -0.126055    4.819965   -0.003448
 C   -2.808140    4.381033   -0.001052
 C   -3.930076    3.557375    0.005044
 H    4.401057    0.277654    1.229051
 H    6.218387   -1.216177   -1.126742
 H    5.627846    0.398575   -1.471898
 H    3.246115    0.948798   -1.278919
 H    0.918564    0.189983   -1.035243
 H    4.650520   -2.899588   -0.010378
 H    2.330025   -3.657527    0.245016
 H    0.094569   -3.310602   -0.133930
 H   -5.388028   -2.229453    0.363810
 H   -3.638486   -4.382299   -1.032618
 H   -5.465981   -4.420966   -0.861490
 H   -5.200078   -4.370633    1.663159
 H   -3.377241   -4.332625    1.448124
 H   -4.659181    1.524882    0.016394
 H   -0.398329    1.976056    0.010438
 H   -2.907600    5.460996   -0.003291
 H   -4.919564    4.003313    0.006823
