33 
4nwd_ligand_xtb.xyz
 O   -2.863565   -2.123527   -0.521209
 C   -2.448893   -1.317619    0.448552
 O   -3.156588   -0.722105    1.203688
 C   -0.910573   -1.279157    0.493601
 N   -0.369329   -1.364056   -0.877075
 C   -0.399793   -0.036539    1.226776
 C   -0.484307    1.303916    0.466508
 C   -1.775142    1.406154   -0.328773
 O   -2.560912    2.361116    0.086796
 O   -2.024893    0.683968   -1.275144
 C    0.676807    1.617968   -0.502562
 C    2.075037    1.498373    0.110801
 C    2.739950    0.147041   -0.095691
 O    2.160821   -0.835253   -0.571570
 N    4.014440    0.097100    0.275347
 C    4.848321   -1.078066    0.150872
 H   -3.832686   -2.174400   -0.559015
 H   -0.596580   -2.163889    1.060252
 H   -0.886250   -0.636182   -1.426387
 H   -0.538448   -2.281306   -1.293156
 H    0.690484   -1.141187   -0.836892
 H    0.632338   -0.203560    1.530604
 H   -1.003852    0.052878    2.131850
 H   -0.509253    2.095709    1.219512
 H   -3.392014    2.424025   -0.415551
 H    0.627692    1.001534   -1.400692
 H    0.536806    2.650838   -0.826303
 H    2.723248    2.245918   -0.350215
 H    2.043471    1.718369    1.180021
 H    4.455385    0.925572    0.646701
 H    4.258349   -1.873513   -0.298523
 H    5.707637   -0.862819   -0.483459
 H    5.200555   -1.395300    1.132372
