55 
4nxo_ligand_ani.xyz
 C    2.658271   -1.956459   -0.471231
 C    4.398060   -0.724830   -1.605880
 C    4.819291   -1.699204    0.582616
 C   -0.054165    2.102157    1.111835
 C    1.351734    2.071634    0.883832
 C    1.845565    2.377814   -0.405737
 C   -0.431026    2.709181   -1.182976
 C    3.622629    1.770530    1.682321
 C    3.250759    2.383277   -0.625392
 C   -3.175430    1.285149   -0.251085
 N   -2.668696    0.047705    0.323036
 C   -1.827048   -0.870191   -0.212568
 C   -1.610706   -1.766389    0.805680
 N   -2.323337   -1.352218    1.890375
 N   -2.955920   -0.258917    1.583863
 C   -0.734679   -2.986158    0.841331
 N    0.690578   -2.694544    0.744693
 C    1.243587   -2.446494   -0.486729
 O    0.624961   -2.605347   -1.528485
 C    3.110423   -1.235391   -1.574887
 C    5.222549   -0.950515   -0.512952
 C    3.526857   -2.203598    0.593533
 C   -2.430438    2.481414    0.357949
 C   -0.937319    2.436786    0.115222
 C    0.914670    2.686351   -1.436219
 C    2.274266    1.759811    1.920625
 C    4.120150    2.099146    0.397651
 C   -4.692600    1.397671   -0.041675
 C   -5.435518    0.230541   -0.648207
 N   -5.778026   -0.760253    0.216288
 O   -6.292502   -1.912127   -0.367998
 O   -5.751147    0.158405   -1.832542
 F    6.440363   -0.377952   -0.495297
 H    4.760762   -0.130565   -2.440269
 H    5.501498   -1.853876    1.414097
 H   -0.416848    1.853453    2.107418
 H   -1.131900    2.945191   -1.982938
 H    4.319732    1.526857    2.482045
 H    3.616139    2.619554   -1.622221
 H   -2.971153    1.222213   -1.323302
 H   -1.486232   -0.803792   -1.237847
 H   -0.972966   -3.644223    0.000807
 H   -0.927228   -3.522012    1.773452
 H    1.102924   -2.219916    1.535996
 H    2.426932   -1.071924   -2.402336
 H    3.202081   -2.813153    1.433993
 H   -2.637190    2.509344    1.433111
 H   -2.844014    3.396636   -0.080490
 H    1.294008    2.912586   -2.430151
 H    1.887838    1.518104    2.909120
 H    5.197106    2.103971    0.228378
 H   -5.056911    2.295269   -0.546289
 H   -4.918289    1.478449    1.024772
 H   -5.167006   -0.987163    0.993848
 H   -6.324533   -1.646692   -1.311441
