134 
4nxq_ligand_ani.xyz
 N    1.282185   -1.226937   -0.148384
 C    1.079262   -1.404193   -1.608465
 C    0.327052   -2.715104   -1.873328
 O    0.656103   -3.520130   -2.734675
 C    2.375979   -1.305478   -2.402019
 C    2.836485    0.141447   -2.595082
 O    2.099711    1.105782   -2.384317
 N    4.100910    0.285827   -3.049913
 N   -0.730746   -2.890675   -1.044940
 C   -1.489397   -4.125894   -0.964143
 C   -2.866221   -3.689556   -0.443376
 O   -3.039567   -3.508126    0.761351
 C   -0.877507   -5.163933   -0.006458
 C    0.458436   -5.739891   -0.473938
 C    1.667802   -4.858048   -0.188154
 O    1.663718   -3.949553    0.635914
 N    2.785605   -5.187354   -0.892254
 N   -3.813249   -3.427838   -1.370684
 C   -5.092424   -2.761385   -1.106656
 C   -4.951154   -1.264118   -0.761352
 O   -5.641066   -0.435543   -1.356472
 C   -5.959856   -3.507330   -0.074951
 C   -7.237118   -2.738619    0.285756
 C   -8.179200   -2.492980   -0.899119
 C   -9.108578   -1.286892   -0.708548
 N   -8.345635    0.001012   -0.701211
 N   -4.111169   -0.938904    0.244949
 C   -3.698034    0.422500    0.503691
 C   -2.252270    0.622722    0.046713
 O   -1.401522   -0.256154    0.184905
 C   -3.798856    0.769678    1.997331
 C   -5.185407    0.537727    2.600274
 C   -6.288525    1.349008    1.966503
 O   -5.916831    2.609634    1.673910
 O   -7.414710    0.952997    1.758757
 N   -1.955667    1.828220   -0.497170
 C   -0.583963    2.177584   -0.788762
 C    0.220652    2.408233    0.509361
 O   -0.272366    2.857184    1.533338
 C   -0.490594    3.362913   -1.769726
 C   -1.379509    4.540896   -1.445161
 C   -2.458888    4.856525   -2.275842
 C   -1.171234    5.333225   -0.315819
 C   -3.307580    5.919887   -1.998220
 C   -2.009545    6.404134   -0.023545
 C   -3.081071    6.699730   -0.865026
 O   -3.936398    7.733863   -0.633244
 N    1.529479    2.067955    0.370660
 C    2.562727    2.157690    1.384117
 C    3.773111    1.362086    0.866328
 O    3.643287    0.324499    0.224265
 C    2.147294    1.688115    2.804585
 C    1.602771    0.286644    2.937201
 C    0.229260    0.085581    3.111991
 C    2.443094   -0.831973    2.954844
 C   -0.289704   -1.193581    3.291018
 C    1.926558   -2.115557    3.108799
 C    0.556571   -2.299101    3.280217
 N    4.976619    1.890777    1.207490
 C    6.282882    1.500122    0.694990
 C    6.540407    2.158582   -0.659861
 O    7.801022    2.604965   -0.753758
 C    6.495197   -0.027154    0.625968
 C    7.943933   -0.396075    0.402979
 C    8.840291   -0.394736    1.473609
 C    8.425005   -0.701277   -0.871751
 C   10.183953   -0.699375    1.281741
 C    9.769882   -1.002329   -1.070321
 C   10.651891   -1.003689    0.005698
 O    5.732348    2.287360   -1.551235
 H    2.099000   -0.617114    0.033412
 H    1.460053   -2.143171    0.308412
 H    0.450821   -0.767903    0.260747
 H    0.416938   -0.595032   -1.935038
 H    3.166350   -1.871922   -1.891885
 H    2.235823   -1.767853   -3.382562
 H    4.538698    1.187623   -2.906424
 H    4.722308   -0.507389   -3.041411
 H   -0.923828   -2.184929   -0.342980
 H   -1.550363   -4.546925   -1.976159
 H   -1.599760   -5.982597    0.088360
 H   -0.770338   -4.715792    0.986782
 H    0.642878   -6.694239    0.036671
 H    0.426552   -5.959676   -1.548101
 H    2.681054   -5.693497   -1.758879
 H    3.550386   -4.528135   -0.854040
 H   -3.542994   -3.507158   -2.338975
 H   -5.607857   -2.758738   -2.069075
 H   -5.365869   -3.686418    0.824240
 H   -6.200839   -4.490120   -0.497538
 H   -7.774894   -3.277355    1.075372
 H   -6.943180   -1.778899    0.731837
 H   -8.783383   -3.386522   -1.089498
 H   -7.605991   -2.310251   -1.816159
 H   -9.659569   -1.371731    0.232471
 H   -9.839492   -1.255375   -1.518343
 H   -8.848322    0.743495   -1.210217
 H   -8.200305    0.322217    0.268640
 H   -7.417176   -0.135722   -1.141666
 H   -3.609406   -1.690053    0.712709
 H   -4.360413    1.077268   -0.070851
 H   -3.515666    1.817190    2.139096
 H   -3.068138    0.161587    2.548166
 H   -5.170970    0.813296    3.662259
 H   -5.482103   -0.512656    2.549330
 H   -6.701468    3.046867    1.300851
 H   -2.595484    2.599032   -0.355272
 H   -0.138352    1.318362   -1.297094
 H   -0.766716    2.978265   -2.757790
 H    0.562184    3.667809   -1.838774
 H   -2.638428    4.250003   -3.162394
 H   -0.352388    5.099465    0.359397
 H   -4.145919    6.160681   -2.645231
 H   -1.827600    7.010846    0.862314
 H   -3.667474    8.189727    0.174233
 H    1.843275    1.780595   -0.554753
 H    2.863787    3.211248    1.485379
 H    1.398550    2.393711    3.166833
 H    3.033685    1.796328    3.443110
 H   -0.422662    0.956223    3.104624
 H    3.516677   -0.698358    2.840886
 H   -1.355320   -1.334606    3.458833
 H    2.592784   -2.972327    3.069309
 H    0.147358   -3.301471    3.394966
 H    4.951036    2.786547    1.671222
 H    7.020800    1.914914    1.385144
 H    7.895884    3.000954   -1.636293
 H    5.856274   -0.452900   -0.150382
 H    6.142635   -0.434231    1.579386
 H    8.479456   -0.152567    2.472913
 H    7.737550   -0.694389   -1.716714
 H   10.865866   -0.696398    2.128790
 H   10.130711   -1.239181   -2.068666
 H   11.701985   -1.240053   -0.147789
