38 
4nxs_ligand_ani.xyz
 C   -2.892016   -0.904181    0.751844
 C   -5.141608   -0.177501    0.364679
 C   -4.260802   -1.109373    0.888849
 F   -6.464928   -0.384550    0.493797
 C   -4.695178    0.960574   -0.286258
 C   -3.325642    1.165044   -0.406972
 C   -2.419903    0.232685    0.099104
 N   -1.034690    0.515574   -0.021874
 C   -0.059566   -0.321015   -0.476709
 S   -0.321033   -1.927154   -0.903218
 N    1.178357    0.256093   -0.567780
 C    2.243275   -0.345993   -1.374513
 C    3.187283   -1.190614   -0.507617
 O    2.900573   -2.571751   -0.517185
 C    3.210216   -0.665494    0.934701
 O    4.452521   -0.966791    1.550351
 C    3.041627    0.846181    0.974654
 O    4.053429    1.457610    0.191750
 C    1.658723    1.239173    0.429096
 C    1.665219    2.642793   -0.164540
 O    0.312329    2.995124   -0.442752
 H   -2.187251   -1.629612    1.144084
 H   -4.648589   -1.987983    1.394083
 H   -5.412017    1.673127   -0.681899
 H   -2.954380    2.056219   -0.907987
 H   -0.803464    1.506572   -0.085663
 H    2.799356    0.472496   -1.841079
 H    1.792054   -0.961820   -2.155231
 H    4.201983   -1.094818   -0.911618
 H    1.934707   -2.668681   -0.433196
 H    2.383641   -1.129766    1.494906
 H    4.575213   -1.922743    1.465608
 H    3.113292    1.192296    2.017008
 H    4.880696    1.035541    0.465405
 H    0.955352    1.211571    1.267541
 H    2.100529    3.349074    0.552513
 H    2.272911    2.641540   -1.075000
 H    0.290583    3.603525   -1.189802
