91 
4ny3_ligand_ani.xyz
 N    1.247039   -0.482749    2.554634
 C    1.100745   -1.966354    2.813818
 C   -0.280881   -2.389192    2.289646
 O   -1.275037   -2.357710    2.995697
 C    1.207538   -2.143882    4.335420
 C    0.770784   -0.785941    4.886815
 C    1.356944    0.200542    3.876681
 N   -0.293236   -2.706025    0.953844
 C   -1.359980   -2.273298    0.072855
 C   -1.257651   -0.744293   -0.150792
 O   -0.935956    0.019693    0.768119
 C   -2.759699   -2.684066    0.552760
 C   -3.750925   -2.760562   -0.582957
 O   -3.541142   -2.420311   -1.728493
 O   -4.932394   -3.274017   -0.198541
 N   -1.505668   -0.350363   -1.414151
 C   -1.453715    1.034795   -1.887298
 C    0.008127    1.516200   -1.885443
 O    0.675335    1.532680   -2.919651
 C   -2.449135    1.962662   -1.147785
 C   -3.776547    1.275587   -0.921417
 C   -4.618416    0.957529   -1.988816
 C   -4.133126    0.840420    0.355725
 C   -5.751743    0.176769   -1.804230
 C   -5.262167    0.058142    0.557940
 C   -6.049786   -0.308630   -0.533057
 O   -7.109215   -1.162019   -0.411516
 N    0.509942    1.875553   -0.682084
 C    1.929780    2.132538   -0.506856
 C    2.689254    0.790216   -0.420864
 O    3.060501    0.326618    0.659209
 C    2.179126    2.996422    0.732296
 C    1.491274    4.341578    0.646339
 C    2.041244    5.361558   -0.132752
 C    0.284931    4.582072    1.305796
 C    1.407824    6.595285   -0.244153
 C   -0.354876    5.813908    1.196011
 C    0.206396    6.823820    0.421549
 N    2.886667    0.182842   -1.609730
 C    3.601517   -1.078451   -1.812359
 C    2.648310   -2.222980   -1.473157
 O    2.391835   -2.607642   -0.349112
 C    4.917399   -1.180564   -1.031234
 C    5.944404   -2.142046   -1.643924
 C    5.439760   -3.585351   -1.687776
 C    7.252923   -2.059389   -0.856430
 O    2.106860   -2.780568   -2.562609
 H    2.056181   -0.271788    1.942091
 H    0.404614   -0.146100    2.046212
 H    1.889733   -2.482824    2.256912
 H    0.586774   -2.969047    4.691792
 H    2.247115   -2.357698    4.609183
 H    1.127130   -0.600849    5.903813
 H   -0.320925   -0.723169    4.882716
 H    2.412789    0.391616    4.093184
 H    0.834344    1.160663    3.857281
 H    0.621924   -2.730738    0.514240
 H   -1.180760   -2.768887   -0.886446
 H   -2.701671   -3.666524    1.027495
 H   -3.137763   -1.994802    1.316920
 H   -5.490153   -3.294366   -0.995699
 H   -2.066769   -0.998429   -1.958284
 H   -1.727753    0.985117   -2.942133
 H   -2.568989    2.878433   -1.738958
 H   -2.034335    2.256355   -0.180776
 H   -4.375275    1.311719   -2.990166
 H   -3.486292    1.082697    1.196271
 H   -6.393365   -0.103111   -2.635649
 H   -5.515005   -0.289469    1.560369
 H   -6.973335   -1.699930    0.380555
 H   -0.001144    1.555449    0.133923
 H    2.262179    2.657182   -1.408737
 H    1.844337    2.446751    1.622724
 H    3.260159    3.134765    0.841846
 H    2.979371    5.186019   -0.658135
 H   -0.161843    3.791586    1.907465
 H    1.851906    7.379451   -0.852633
 H   -1.292984    5.985567    1.718095
 H   -0.290678    7.786866    0.334872
 H    2.359095    0.554738   -2.395896
 H    3.807562   -1.141427   -2.885185
 H    4.694910   -1.477558   -0.002472
 H    5.348766   -0.175713   -0.986099
 H    6.144038   -1.814706   -2.676939
 H    4.598587   -3.711275   -2.377301
 H    6.237183   -4.262084   -2.013615
 H    5.112279   -3.908764   -0.691709
 H    7.090815   -2.362245    0.186149
 H    7.656882   -1.040449   -0.849527
 H    8.015532   -2.721626   -1.281499
 H    1.517534   -3.490247   -2.252760
