43 
4nyj_ligand_dft.xyz
 C  -29.636008   32.621287  -64.301186
 C  -30.760325   32.954785  -63.565408
 C  -31.540545   34.079606  -63.893834
 C  -31.209066   34.889567  -64.965831
 C  -30.073952   34.579151  -65.729734
 C  -29.305377   33.443251  -65.381605
 N  -28.264806   33.366378  -66.276784
 C  -28.355196   34.413608  -67.168512
 C  -29.445125   35.181911  -66.874840
 C  -29.904631   36.392022  -67.632535
 N  -28.801437   37.073129  -68.295171
 C  -29.256323   37.963952  -69.351969
 C  -28.071928   38.535727  -70.127441
 C  -27.957569   37.786572  -67.344530
 C  -26.715013   38.346919  -68.029005
 C  -27.115767   39.271360  -69.182985
 N  -25.966892   39.834235  -69.879158
 C  -25.030869   39.117979  -70.539916
 O  -25.019427   37.900102  -70.662872
 C  -23.899868   39.968185  -71.128707
 N  -24.241795   41.385578  -71.222771
 H  -29.034699   31.752789  -64.047510
 H  -31.045903   32.336831  -62.719252
 H  -32.416276   34.310943  -63.294769
 H  -31.819431   35.754014  -65.213018
 H  -27.534633   32.675034  -66.266275
 H  -27.624845   34.549265  -67.953344
 H  -30.454671   37.072391  -66.951201
 H  -30.624054   36.091471  -68.405338
 H  -29.869946   38.794604  -68.941708
 H  -29.900134   37.396757  -70.033148
 H  -27.527035   37.722165  -70.614241
 H  -28.430288   39.222241  -70.903139
 H  -28.524179   38.612680  -66.863364
 H  -27.667149   37.093248  -66.550314
 H  -26.112019   37.526794  -68.428915
 H  -26.106001   38.898772  -67.303894
 H  -27.652978   40.130348  -68.758184
 H  -25.801648   40.833159  -69.865576
 H  -23.047026   39.859410  -70.449794
 H  -23.613166   39.495137  -72.077078
 H  -23.403812   41.954273  -71.278217
 H  -24.776189   41.563369  -72.067926
