59 
4o0b_ligand_xtb.xyz
 C   -2.806772    1.890641   -1.230347
 O    4.858736   -1.218145    0.972713
 C   -1.458697    1.695434   -1.213142
 C   -2.343747   -0.141634   -0.329752
 C   -3.382382    0.715473   -0.652473
 C   -4.765322    0.411540   -0.349334
 C   -4.962463   -0.966493    0.270646
 C    4.051278   -1.620158    0.153484
 N    4.337867   -2.705849   -0.603796
 C    3.419557   -3.320234   -1.529703
 C    2.026804   -3.282579   -0.911006
 C    1.696321   -1.854511   -0.582645
 C    0.415921   -1.373834   -0.774860
 C    2.708975   -1.017877   -0.092965
 C    2.425951    0.330259    0.165300
 C    3.465398    1.318547    0.615140
 C    3.022492    2.159108    1.837913
 C    2.971321    3.612145    1.359862
 C    4.011381    3.657154    0.245794
 C    3.773030    2.345747   -0.496534
 C    1.132231    0.793064   -0.045828
 C    0.120387   -0.044385   -0.490904
 N   -1.174409    0.458063   -0.671311
 C   -2.508373   -1.442544    0.366896
 C   -3.815492   -1.423987    1.181859
 C   -4.106067   -2.835228    1.697110
 C   -3.681375   -0.472421    2.372211
 O   -5.703696    1.151247   -0.567679
 C   -3.554894    3.064674   -1.749084
 H   -0.671188    2.324043   -1.578776
 H   -5.066149   -1.670190   -0.561809
 H   -5.907392   -0.963199    0.816818
 H    5.248348   -3.114501   -0.457949
 H    3.737837   -4.346527   -1.721399
 H    3.414268   -2.774203   -2.484015
 H    2.021894   -3.880880    0.005354
 H    1.289896   -3.700816   -1.596596
 H   -0.347382   -2.024449   -1.171236
 H    4.375934    0.781588    0.870839
 H    3.764187    2.056296    2.629567
 H    2.066415    1.824542    2.239020
 H    3.183501    4.317201    2.162427
 H    1.986319    3.850643    0.953280
 H    5.013860    3.665225    0.675470
 H    3.903638    4.527764   -0.400384
 H    2.914304    2.449811   -1.163236
 H    4.629910    2.042448   -1.096597
 H    0.901137    1.826398    0.160285
 H   -1.654446   -1.643421    1.019282
 H   -2.568708   -2.256367   -0.365180
 H   -5.021356   -2.844079    2.283814
 H   -4.223914   -3.534105    0.871340
 H   -3.291989   -3.184547    2.328992
 H   -3.464888    0.539179    2.038239
 H   -4.606855   -0.451184    2.942635
 H   -2.879497   -0.797961    3.032107
 H   -2.889702    3.912328   -1.896564
 H   -4.026553    2.817376   -2.699940
 H   -4.348740    3.333866   -1.056146
