62 
4o0j_ligand_ani.xyz
 N    1.750789   -1.782221   -0.415986
 C    2.120431   -0.501751   -0.298318
 C    1.199369    0.555828   -0.360314
 C   -0.158138    0.225369   -0.324654
 C   -0.543037   -1.124461   -0.346378
 C    0.459805   -2.101096   -0.436109
 C   -1.162323    1.334365   -0.286040
 C   -1.898756    1.656557   -1.424798
 C   -2.807354    2.711742   -1.412900
 C   -2.972271    3.446234   -0.244622
 C   -2.247956    3.147572    0.902955
 C   -1.337071    2.096587    0.869139
Cl   -4.108035    4.766513   -0.217659
 C    1.589518    2.013880   -0.524033
 C    0.178630   -3.583060   -0.550351
 C    3.589666   -0.292354   -0.148175
 C    4.462114   -1.136231   -0.831990
 C    5.833124   -0.942345   -0.739957
 C    6.376604    0.064976    0.054613
 C    5.507763    0.886783    0.793098
 C    4.133831    0.694622    0.676023
 C    7.868097    0.255760    0.124445
 C    6.039039    1.973895    1.690074
 C   -2.020186   -1.530835   -0.280134
 C   -2.498944   -2.222953   -1.559081
 O   -2.272941   -2.375513    0.820129
 C   -3.362663   -2.039122    1.699906
 C   -3.006486   -0.795725    2.519525
 C   -3.478441   -3.251237    2.623892
 C   -4.675592   -1.851859    0.934239
 O   -3.096126   -3.266528   -1.639367
 O   -2.192768   -1.486791   -2.647211
 H   -1.767233    1.062728   -2.326620
 H   -3.384871    2.961201   -2.296622
 H   -2.388784    3.735077    1.803918
 H   -0.758317    1.854667    1.759745
 H    1.522220    2.546187    0.433061
 H    2.597578    2.141283   -0.925036
 H    0.882437    2.508917   -1.196941
 H   -0.273354   -3.833714   -1.516814
 H   -0.517348   -3.907594    0.226848
 H    1.124971   -4.119148   -0.455815
 H    4.052287   -1.941788   -1.435764
 H    6.503320   -1.596847   -1.296592
 H    3.467868    1.341709    1.245738
 H    8.163525    1.255553   -0.214874
 H    8.242203    0.140650    1.148357
 H    8.386115   -0.474413   -0.502896
 H    6.640979    2.702193    1.133550
 H    6.677307    1.569517    2.484851
 H    5.215624    2.514506    2.164716
 H   -2.606272   -0.609938   -0.202102
 H   -2.049948   -0.954720    3.026659
 H   -2.916227    0.107194    1.903954
 H   -3.782034   -0.611607    3.270999
 H   -4.279546   -3.107363    3.357721
 H   -3.697390   -4.151889    2.041589
 H   -2.538814   -3.407050    3.162462
 H   -5.503820   -1.756706    1.644448
 H   -4.672572   -0.950004    0.312980
 H   -4.863332   -2.710559    0.283777
 H   -2.533452   -1.979406   -3.411926
