56 
4o0v_ligand_dft.xyz
 C    6.373918   -1.155149    2.589439
 O    6.149730   -0.892350    1.229671
 C    5.669230   -2.019736    0.532444
 C    5.314836   -1.573908   -0.876473
 N    4.276701   -0.560123   -0.886997
 C    2.984786   -0.946260   -0.744970
 N    2.550016   -2.174951   -0.838163
 C    1.175434   -2.085198   -0.704280
 C    0.227970   -3.105842   -0.691617
 C   -1.102355   -2.773428   -0.480759
 C   -1.497913   -1.440525   -0.260250
 C   -0.549158   -0.407079   -0.269077
 C    0.767985   -0.751381   -0.521568
 N    1.958119   -0.004125   -0.559265
 C    2.091244    1.386157   -0.518412
 C    1.091804    2.231218   -1.006409
 C    1.342037    3.589734   -0.879110
 N    2.453457    4.097946   -0.352833
 C    3.360249    3.191558    0.041118
 N    3.223435    1.857406   -0.002126
 N    4.540025    3.663789    0.518728
 C   -2.874954   -1.131931   -0.015939
 C   -4.037680   -0.882302    0.196343
 C   -5.442228   -0.518260    0.428186
 C   -5.505624    0.766113    1.286379
 C   -6.939536    1.276360    1.459796
 C   -7.621306    1.500684    0.106920
 C   -7.584074    0.230932   -0.748606
 C   -6.151782   -0.284191   -0.925445
 O   -6.033069   -1.615165    1.121799
 H    5.448285   -1.461865    3.100434
 H    7.126190   -1.946769    2.731284
 H    6.742798   -0.232758    3.044300
 H    4.774123   -2.431143    1.024254
 H    6.435111   -2.812373    0.500014
 H    4.971660   -2.429591   -1.461115
 H    6.200547   -1.151018   -1.359891
 H    4.497857    0.316575   -0.428888
 H    0.537519   -4.135483   -0.834731
 H   -1.861762   -3.548074   -0.467695
 H   -0.861700    0.608905   -0.060850
 H    0.200180    1.858377   -1.489444
 H    0.608808    4.313513   -1.228596
 H    4.594270    4.646337    0.732405
 H    5.142870    3.025799    1.012557
 H   -4.902019    1.539794    0.795559
 H   -5.043463    0.553784    2.255313
 H   -6.928911    2.204216    2.042061
 H   -7.523726    0.557257    2.052718
 H   -7.098408    2.306414   -0.427234
 H   -8.655260    1.834249    0.250559
 H   -8.027878    0.418424   -1.732436
 H   -8.208601   -0.545747   -0.282628
 H   -6.137541   -1.223110   -1.487440
 H   -5.570650    0.449792   -1.497188
 H   -6.963156   -1.400372    1.263238
