56 
4o0v_ligand_xtb.xyz
 C    6.834003   -0.092041    2.188318
 O    6.327476   -0.371096    0.909648
 C    5.763575   -1.663654    0.810911
 C    5.183573   -1.827476   -0.595568
 N    4.131665   -0.872261   -0.832612
 C    2.841952   -1.202433   -0.637698
 N    2.362221   -2.410936   -0.628884
 C    1.000806   -2.276335   -0.500522
 C    0.028667   -3.261639   -0.410063
 C   -1.283814   -2.868676   -0.248369
 C   -1.628468   -1.515474   -0.150372
 C   -0.656794   -0.514528   -0.233972
 C    0.647647   -0.906565   -0.439336
 N    1.852840   -0.209816   -0.539408
 C    2.073143    1.152160   -0.546020
 C    1.113961    2.079178   -0.967173
 C    1.486603    3.410295   -0.907501
 N    2.670566    3.821980   -0.486837
 C    3.528180    2.864784   -0.129290
 N    3.277006    1.555928   -0.146081
 N    4.746878    3.235624    0.306976
 C   -2.981250   -1.147281    0.036854
 C   -4.124749   -0.802421    0.180522
 C   -5.518771   -0.412486    0.361260
 C   -5.584440    0.720084    1.408284
 C   -6.988769    1.307524    1.529331
 C   -7.480143    1.815945    0.176857
 C   -7.468654    0.689130   -0.852329
 C   -6.068494    0.094990   -0.989561
 O   -6.216498   -1.565718    0.802014
 H    6.039288   -0.111466    2.944396
 H    7.608511   -0.813657    2.475567
 H    7.270189    0.904407    2.145913
 H    4.965060   -1.784957    1.558032
 H    6.532511   -2.428440    0.996356
 H    4.770481   -2.829247   -0.716902
 H    5.976418   -1.655663   -1.328630
 H    4.346602    0.093354   -0.588018
 H    0.305066   -4.302365   -0.460211
 H   -2.069219   -3.606382   -0.178879
 H   -0.951193    0.516098   -0.114469
 H    0.159369    1.780483   -1.358379
 H    0.808128    4.193143   -1.221439
 H    5.010664    4.200605    0.235365
 H    5.435074    2.523702    0.475332
 H   -4.884120    1.503388    1.110947
 H   -5.257192    0.319677    2.370157
 H   -6.973672    2.125837    2.252499
 H   -7.680485    0.551235    1.911798
 H   -6.826197    2.622048   -0.164067
 H   -8.489431    2.221732    0.274771
 H   -7.793109    1.068120   -1.823823
 H   -8.179476   -0.087541   -0.555179
 H   -6.079070   -0.740477   -1.692797
 H   -5.384579    0.853822   -1.375226
 H   -7.142250   -1.325046    0.914131
