56 
4o0v_ligand_ani.xyz
 C    6.718888    0.400963    1.949144
 O    6.306167   -0.168648    0.731291
 C    5.858745   -1.499819    0.879632
 C    5.242027   -1.925573   -0.443153
 N    4.185196   -1.007545   -0.816884
 C    2.878130   -1.321727   -0.622098
 N    2.398979   -2.529426   -0.516271
 C    1.026599   -2.364788   -0.389865
 C    0.034764   -3.340828   -0.255646
 C   -1.275988   -2.934146   -0.105748
 C   -1.622514   -1.563166   -0.069269
 C   -0.633399   -0.587701   -0.199248
 C    0.676923   -1.006142   -0.397650
 N    1.892761   -0.315150   -0.572001
 C    2.102663    1.064084   -0.609315
 C    1.156769    1.965595   -1.106720
 C    1.490624    3.306783   -1.013321
 N    2.637960    3.765167   -0.500190
 C    3.480422    2.811785   -0.096397
 N    3.284380    1.494299   -0.164792
 N    4.673985    3.192653    0.464158
 C   -2.995036   -1.171478    0.096818
 C   -4.146946   -0.829480    0.228053
 C   -5.539075   -0.365251    0.372155
 C   -5.586150    0.839321    1.343497
 C   -6.979268    1.469663    1.428175
 C   -7.494764    1.867402    0.041799
 C   -7.489159    0.675383   -0.920040
 C   -6.097629    0.042698   -1.012899
 O   -6.280821   -1.457806    0.902409
 H    5.908978    0.391458    2.695492
 H    7.591623   -0.124618    2.366766
 H    6.994377    1.440086    1.746546
 H    5.099656   -1.555174    1.677371
 H    6.693470   -2.166144    1.155198
 H    4.823798   -2.933664   -0.375157
 H    6.015374   -1.920012   -1.221027
 H    4.414993   -0.024793   -0.709296
 H    0.295335   -4.395086   -0.268087
 H   -2.056051   -3.682785   -0.005029
 H   -0.899552    0.458571   -0.112513
 H    0.239959    1.637769   -1.578994
 H    0.796542    4.064983   -1.370673
 H    4.958800    4.135396    0.241824
 H    5.395643    2.486927    0.402670
 H   -4.866119    1.589046    0.990665
 H   -5.247654    0.495782    2.327301
 H   -6.948333    2.342946    2.088834
 H   -7.679111    0.760940    1.896683
 H   -6.844622    2.654644   -0.365658
 H   -8.500588    2.297330    0.114765
 H   -7.818453    0.987899   -1.917026
 H   -8.217677   -0.078097   -0.583681
 H   -6.110572   -0.848511   -1.650134
 H   -5.399381    0.759848   -1.463617
 H   -7.195789   -1.164552    1.001604
