46 
4o0x_ligand_ani.xyz
 C    5.360320    1.564702    0.183630
 C    3.874898    1.711686    0.114553
 N    3.285426    2.864984    0.063062
 C    1.926206    2.599509    0.021810
 C    0.859080    3.499728   -0.050458
 C   -0.422794    2.994258   -0.091761
 C   -0.664355    1.597336   -0.064234
 C    0.398178    0.699103    0.006413
 C    1.686137    1.224898    0.059228
 N    2.969869    0.637449    0.117674
 C    3.284682   -0.717272    0.178602
 N    2.408128   -1.531555    0.774113
 C    2.802032   -2.803649    0.816896
 N    3.904353   -3.328869    0.299112
 C    4.676780   -2.413256   -0.307379
 N    4.442587   -1.096588   -0.354854
 N    5.796758   -2.846664   -0.931930
 C   -2.016847    1.111587   -0.109219
 C   -3.154968    0.706501   -0.146923
 C   -4.535939    0.191119   -0.187801
 C   -4.616457   -1.010211   -1.160600
 C   -5.993040   -1.680929   -1.147627
 C   -6.393681   -2.099819    0.270249
 C   -6.351355   -0.913340    1.238236
 C   -4.976193   -0.239434    1.232271
 O   -5.352411    1.259473   -0.654673
 H    5.742145    1.094951   -0.725993
 H    5.792779    2.559356    0.302292
 H    5.656566    0.921035    1.016262
 H    1.049626    4.567955   -0.075308
 H   -1.263139    3.679418   -0.148557
 H    0.213346   -0.366204    0.026936
 H    2.132745   -3.493964    1.322567
 H    6.113547   -3.780394   -0.724229
 H    6.477660   -2.149785   -1.186512
 H   -3.851502   -1.740003   -0.865243
 H   -4.360220   -0.652599   -2.164027
 H   -5.985212   -2.550053   -1.814427
 H   -6.745574   -0.991176   -1.559380
 H   -5.692925   -2.869783    0.623144
 H   -7.389369   -2.558620    0.268310
 H   -6.596111   -1.241157    2.254444
 H   -7.125020   -0.180209    0.963167
 H   -4.968433    0.648503    1.874159
 H   -4.225011   -0.936757    1.625290
 H   -6.262557    0.937308   -0.681067
