46 
4o0x_ligand_xtb.xyz
 C    5.316218    1.511258    0.069659
 C    3.848972    1.689557    0.046147
 N    3.276830    2.845156    0.043889
 C    1.918625    2.618674    0.015772
 C    0.869068    3.526843   -0.000858
 C   -0.414422    3.025320   -0.030546
 C   -0.656600    1.643486   -0.042334
 C    0.390334    0.721436   -0.026668
 C    1.672487    1.228704    0.000803
 N    2.932581    0.631186    0.020494
 C    3.195658   -0.711303    0.005630
 N    2.148886   -1.540274   -0.045587
 C    2.455797   -2.821374   -0.063810
 N    3.665634   -3.334708   -0.034623
 C    4.649656   -2.425213    0.020083
 N    4.461812   -1.104623    0.041365
 N    5.909569   -2.875142    0.055148
 C   -1.989419    1.170422   -0.073887
 C   -3.113937    0.744096   -0.096931
 C   -4.478279    0.230231   -0.133099
 C   -4.525000   -0.961870   -1.112967
 C   -5.869721   -1.684421   -1.075117
 C   -6.190119   -2.154290    0.340999
 C   -6.205357   -0.969837    1.303051
 C   -4.862512   -0.242920    1.285693
 O   -5.312084    1.291621   -0.567523
 H    5.645214    0.955469   -0.805794
 H    5.775811    2.495538    0.080206
 H    5.616964    0.949813    0.951565
 H    1.064956    4.586769    0.008566
 H   -1.261053    3.695299   -0.046859
 H    0.199137   -0.337867   -0.037851
 H    1.627927   -3.518058   -0.107673
 H    6.071750   -3.865285    0.039436
 H    6.669630   -2.221602    0.098458
 H   -3.727617   -1.657401   -0.843846
 H   -4.323694   -0.588147   -2.119150
 H   -5.835179   -2.539647   -1.753304
 H   -6.663776   -1.021499   -1.431312
 H   -5.430514   -2.870253    0.663479
 H   -7.157404   -2.661135    0.356713
 H   -6.411543   -1.315881    2.318080
 H   -7.009587   -0.281660    1.026592
 H   -4.895325    0.629167    1.942137
 H   -4.079027   -0.911228    1.648408
 H   -6.215873    0.960665   -0.602188
