44 
4o0y_ligand_ani.xyz
 C    5.319485   -2.558614    1.082292
 C    5.040730   -2.036126   -0.322917
 N    4.102899   -0.925720   -0.331962
 C    2.775602   -1.167935   -0.258500
 N    2.225627   -2.345039   -0.355047
 C    0.860097   -2.123273   -0.276841
 C   -0.179482   -3.056666   -0.327675
 C   -1.476973   -2.599755   -0.222459
 C   -1.762577   -1.222206   -0.058951
 C   -0.727599   -0.290870    0.000143
 C    0.575823   -0.761194   -0.129534
 N    1.834610   -0.121922   -0.121025
 C    2.089368    1.238693   -0.017228
 N    3.312210    1.615983    0.389319
 C    3.466050    2.932386    0.519821
 N    2.577912    3.871846    0.237302
 C    1.414024    3.369156   -0.213424
 N    1.103692    2.071754   -0.330279
 N    0.462935    4.252217   -0.590343
 C   -3.130909   -0.790938    0.037333
 C   -4.284722   -0.438673    0.108329
 C   -5.696843   -0.009169    0.183373
 C   -5.844020    1.125996    1.205493
 C   -6.181704    0.428335   -1.205614
 O   -6.428993   -1.151651    0.616343
 H    5.722136   -1.765103    1.722309
 H    4.391049   -2.928915    1.529815
 H    6.041651   -3.381775    1.055974
 H    4.616209   -2.829026   -0.944443
 H    5.965551   -1.692985   -0.800780
 H    4.401476   -0.004405   -0.029545
 H    0.030732   -4.115502   -0.448345
 H   -2.295442   -3.312027   -0.264627
 H   -0.939591    0.760506    0.138696
 H    4.431125    3.277610    0.881350
 H    0.588026    5.218207   -0.334152
 H   -0.467524    3.901432   -0.747253
 H   -5.547544    0.767198    2.194765
 H   -5.219385    1.981956    0.932172
 H   -6.888618    1.457233    1.248714
 H   -5.571719    1.250261   -1.592717
 H   -6.122226   -0.417451   -1.895943
 H   -7.223856    0.765391   -1.149346
 H   -7.357410   -0.888120    0.665003
