46 
4o0z_ligand_xtb.xyz
 C   -8.515794    1.423982    0.007471
 C   -8.229323    0.659055    1.142008
 C   -7.001287    0.054607    0.931102
 C   -6.200658   -0.829684    1.676822
 C   -5.016114   -1.265534    1.167832
 C   -4.577995   -0.817111   -0.109717
 C   -5.365914    0.033113   -0.831552
 N   -6.550034    0.459964   -0.330589
 C   -7.472280    1.283881   -0.880338
 C   -3.295723   -1.356316   -0.635328
 O   -2.882897   -2.461942   -0.346377
 N   -2.628733   -0.531361   -1.487266
 C   -1.354003   -0.910536   -2.063341
 C   -0.200207   -0.340635   -1.277782
 C    0.560819    0.709865   -1.777181
 C    1.593211    1.243210   -1.024320
 C    1.849177    0.725180    0.229774
 C    1.100787   -0.315549    0.746341
 C    0.072593   -0.847805   -0.010007
 S    3.214359    1.391653    1.181855
 O    3.410039    2.769361    0.825254
 O    3.040659    1.047193    2.564716
 C    4.613027    0.445148    0.535134
 C    5.359442    0.974763   -0.498648
 C    6.402272    0.217309   -1.005793
 C    6.704007   -1.039872   -0.509757
 C    5.928947   -1.528234    0.529176
 C    4.876655   -0.803226    1.063419
 F    6.208727   -2.742000    1.024057
 F    7.142386    0.707658   -2.010517
 H   -9.394247    2.018443   -0.151820
 H   -8.839743    0.552275    2.015865
 H   -6.553233   -1.151562    2.643571
 H   -4.385431   -1.956014    1.703167
 H   -5.119454    0.373416   -1.827479
 H   -7.331882    1.713550   -1.852689
 H   -2.892586    0.438241   -1.548073
 H   -1.319908   -0.573273   -3.102697
 H   -1.321096   -2.003405   -2.030778
 H    0.348520    1.110024   -2.758050
 H    2.187795    2.067874   -1.383500
 H    1.323820   -0.679421    1.736656
 H   -0.528165   -1.658886    0.372650
 H    5.143087    1.961167   -0.874403
 H    7.520349   -1.616711   -0.913666
 H    4.291543   -1.183883    1.884060
