46 
4o0z_ligand_dft.xyz
 C   -7.676308    2.271969    0.496123
 C   -8.078949    1.006491    0.973441
 C   -7.034227    0.127436    0.744773
 C   -6.799435   -1.249321    1.007005
 C   -5.619357   -1.827383    0.656290
 C   -4.610309   -1.053754   -0.003350
 C   -4.820182    0.271413   -0.237188
 N   -6.003415    0.858157    0.126467
 C   -6.402813    2.163588   -0.017074
 C   -3.315762   -1.716817   -0.345717
 O   -2.866325   -2.633467    0.328463
 N   -2.673612   -1.241243   -1.452876
 C   -1.372184   -1.740336   -1.856511
 C   -0.235141   -0.860307   -1.379536
 C    0.595167   -0.203427   -2.285854
 C    1.627069    0.616696   -1.839162
 C    1.813464    0.773990   -0.471706
 C    0.993153    0.130448    0.453346
 C   -0.028029   -0.687854   -0.006244
 S    3.144510    1.808872    0.112171
 O    3.528845    2.699649   -0.977621
 O    2.775830    2.315800    1.429231
 C    4.488511    0.643820    0.348488
 C    5.320225    0.358016   -0.727732
 C    6.330729   -0.569038   -0.523029
 C    6.525856   -1.201249    0.696428
 C    5.669728   -0.872934    1.737297
 C    4.640652    0.045776    1.593452
 F    5.848572   -1.464234    2.921561
 F    7.151716   -0.865805   -1.534518
 H   -8.258443    3.182818    0.522788
 H   -9.020461    0.752836    1.438707
 H   -7.580228   -1.818447    1.499994
 H   -5.409603   -2.869525    0.866642
 H   -4.081228    0.938266   -0.668161
 H   -5.749833    2.894681   -0.470044
 H   -3.127765   -0.551506   -2.029643
 H   -1.351765   -1.833380   -2.946601
 H   -1.275739   -2.742096   -1.429085
 H    0.434954   -0.327008   -3.353827
 H    2.265839    1.146422   -2.537966
 H    1.148360    0.284383    1.516071
 H   -0.675394   -1.202903    0.697872
 H    5.204063    0.854580   -1.683625
 H    7.324109   -1.920275    0.833294
 H    3.999624    0.301957    2.428500
