47 
4o15_ligand_dft.xyz
 C    9.096373   -2.751411   48.962592
 C   10.182734   -2.101904   49.536741
 C   11.048055   -1.349970   48.742501
 C   10.836291   -1.248548   47.373022
 C    9.750602   -1.913170   46.814772
 C    8.873808   -2.661144   47.591811
 S    9.488012   -1.811606   45.046295
 O    8.090917   -2.151286   44.796335
 O   10.068451   -0.552580   44.590197
 C   10.497761   -3.137383   44.407266
 C   11.798188   -2.864397   44.002629
 C   12.584227   -3.906917   43.520361
 C   12.079798   -5.204023   43.447924
 C   10.767127   -5.456142   43.862700
 C    9.970893   -4.425998   44.340549
 C   12.920733   -6.340872   42.904508
 N   12.367704   -6.914991   41.691830
 C   11.590027   -8.035665   41.714012
 O   11.377919   -8.667271   42.740504
 C   11.011691   -8.455220   40.399674
 C   10.625838   -7.565144   39.429558
 C   10.054692   -8.108303   38.258929
 C    9.533951   -7.625172   37.061975
 N    9.154919   -8.722351   36.381776
 N    9.361175   -9.893158   36.994958
 C    9.916455   -9.529478   38.158917
 N   10.285223  -10.406875   39.128981
 C   10.797848   -9.862714   40.199551
 C   12.243797   -0.687357   49.375043
 F   13.247036   -1.564918   49.553095
 F   12.720051    0.314044   48.621372
 F   11.945139   -0.183403   50.583388
 H    8.416988   -3.324140   49.584943
 H   10.354505   -2.167737   50.605962
 H   11.486761   -0.646188   46.748704
 H    8.021504   -3.145150   47.126733
 H   12.176912   -1.848573   44.044555
 H   13.600608   -3.702793   43.193513
 H   10.377248   -6.468590   43.807562
 H    8.946011   -4.609715   44.645803
 H   12.975388   -7.151578   43.635879
 H   13.940085   -5.999074   42.700822
 H   12.554194   -6.459014   40.813125
 H   10.717613   -6.490094   39.563276
 H    9.411943   -6.629939   36.661964
 H    8.733827   -8.740318   35.464747
 H   11.086980  -10.531770   41.006647
