47 
4o15_ligand_xtb.xyz
 C    9.180851   -2.840365   49.331590
 C   10.426229   -2.330631   49.658769
 C   11.200181   -1.717683   48.679609
 C   10.733066   -1.605504   47.377250
 C    9.491055   -2.124469   47.071991
 C    8.711775   -2.741059   48.030938
 S    8.910597   -2.015725   45.364823
 O    7.587736   -2.574158   45.311155
 O    9.112520   -0.669746   44.904245
 C   10.060465   -3.100456   44.518826
 C   11.117028   -2.555950   43.816905
 C   12.028855   -3.400541   43.206112
 C   11.885021   -4.778530   43.310528
 C   10.810864   -5.308397   44.021835
 C    9.896165   -4.468606   44.629676
 C   12.845447   -5.716999   42.625310
 N   12.216243   -6.397091   41.511219
 C   11.705318   -7.649942   41.639866
 O   11.799242   -8.290523   42.668146
 C   11.039934   -8.181118   40.419492
 C   11.441691   -7.864647   39.142719
 C   10.737112   -8.465401   38.091347
 C   10.774127   -8.457789   36.700574
 N    9.793091   -9.284061   36.306307
 N    9.108731   -9.844919   37.289716
 C    9.655263   -9.370424   38.408316
 N    9.292801   -9.676779   39.661976
 C    9.970259   -9.102086   40.609097
 C   12.542848   -1.142059   49.039250
 F   13.395260   -1.137078   48.003763
 F   12.451266    0.132248   49.459947
 F   13.146864   -1.819379   50.027447
 H    8.578905   -3.313765   50.091249
 H   10.802559   -2.407676   50.667467
 H   11.316617   -1.118071   46.612222
 H    7.745452   -3.123822   47.741243
 H   11.198204   -1.482721   43.744324
 H   12.857949   -2.985557   42.651891
 H   10.704392   -6.380256   44.094326
 H    9.050502   -4.854663   45.176400
 H   13.158600   -6.501798   43.320093
 H   13.724053   -5.176424   42.263393
 H   11.967183   -5.839602   40.710262
 H   12.281990   -7.213109   38.942576
 H   11.402022   -7.937465   36.006287
 H    9.540244   -9.509756   35.354401
 H    9.691425   -9.355448   41.623123
