34 
4o24_ligand_ani.xyz
 C    3.555873   -2.443095    0.965622
 C    4.267909   -1.184784    0.467509
 C    4.444029   -0.175733    1.601414
 C    3.607264   -0.562998   -0.775954
 N    2.256750   -0.033972   -0.562457
 C    1.157677   -0.898547   -0.710203
 O    1.259643   -2.059438   -1.047121
 C    1.989740    1.282056   -0.288626
 S    3.072753    2.517575   -0.224330
 S    0.255792    1.482996   -0.029907
 C   -0.106455   -0.191704   -0.397887
 C   -1.268104   -0.885075   -0.430514
 C   -2.646386   -0.494001   -0.168159
 C   -3.631778   -1.498492   -0.222246
 C   -4.964711   -1.224388    0.016411
 C   -5.348547    0.084784    0.316093
 O   -6.669665    0.310033    0.543044
 C   -4.391996    1.095928    0.372284
 C   -3.053947    0.811561    0.133806
 H    2.595012   -2.198766    1.432159
 H    3.356754   -3.144151    0.150222
 H    4.168810   -2.949315    1.719721
 H    5.269784   -1.485571    0.123546
 H    5.013556    0.701249    1.277788
 H    3.472965    0.163362    1.979829
 H    4.981554   -0.637364    2.436913
 H    3.513494   -1.315899   -1.561630
 H    4.210313    0.268117   -1.148257
 H   -1.136630   -1.931118   -0.695879
 H   -3.336336   -2.519730   -0.455522
 H   -5.722416   -2.001838   -0.023228
 H   -6.802445    1.246738    0.735608
 H   -4.691538    2.116699    0.604292
 H   -2.330093    1.618408    0.184739
