45 
4o28_ligand_dft.xyz
 C   -1.125964   -0.457822   -0.377455
 C   -0.068419   -0.419676    0.519633
 C    0.226353    0.757181    1.217793
 C    1.400889    0.792910    2.173714
 C    6.131760   -1.825464   -0.768089
 C    7.616026    1.357794   -0.208013
 C   -5.367592    0.936435    0.048150
 C   -6.641889   -0.928891    0.947984
 C   -4.836852   -1.346031   -0.627408
 C   -0.552202    1.893975    1.004438
 C   -1.619075    1.868284    0.111388
 C   -1.893609    0.689142   -0.569588
 N    2.686017    0.661218    1.505477
 C    3.275377   -0.564075    1.342257
 O    2.788918   -1.595834    1.781388
 C    4.573246   -0.569492    0.599317
 C    4.952369   -1.762927   -0.089561
 C    6.998778   -0.703255   -0.773941
 N    8.179885   -0.528416   -1.340201
 C    8.554721    0.734501   -0.991820
 N    6.602134    0.436762   -0.063657
 C    5.415329    0.504429    0.610359
 S   -3.272407    0.638589   -1.702253
 O   -2.992003   -0.381668   -2.706004
 O   -3.599658    2.012711   -2.067481
 C   -4.612104    0.024184   -0.679083
 C   -6.376267    0.429561    0.853145
 C   -5.860361   -1.792927    0.195149
 F   -6.107881   -3.103502    0.266196
 F   -7.125006    1.277552    1.563951
 H   -1.349836   -1.360378   -0.936493
 H    0.541344   -1.302516    0.687293
 H    1.335588   -0.033570    2.884795
 H    1.399437    1.729155    2.740781
 H    6.446067   -2.711569   -1.306333
 H    7.569689    2.335927    0.244418
 H   -5.196403    2.003682   -0.025944
 H   -7.437483   -1.301229    1.581465
 H   -4.255640   -2.039646   -1.223194
 H   -0.324734    2.813053    1.538449
 H   -2.218785    2.753308   -0.072915
 H    2.946298    1.395245    0.863284
 H    4.276900   -2.609567   -0.048711
 H    9.497423    1.147631   -1.324672
 H    5.227222    1.420977    1.157716
