45 
4o28_ligand_ani.xyz
 C   -1.699888   -1.651775    0.213733
 C   -0.641564   -1.656346    1.113359
 C    0.194500   -0.546469    1.244311
 C    1.335991   -0.561112    2.245395
 C    6.549013   -1.127367   -1.025281
 C    7.237615    2.101422    0.289646
 C   -4.796599    1.508308   -0.538450
 C   -6.620980    1.089906    1.014457
 C   -5.420826   -0.776292    0.018335
 C   -0.035281    0.574422    0.444491
 C   -1.090370    0.593136   -0.455231
 C   -1.918595   -0.518285   -0.556338
 N    2.609608   -0.138215    1.685945
 C    3.310310   -0.984415    0.880010
 O    2.874762   -2.084392    0.573969
 C    4.642779   -0.514483    0.366019
 C    5.329997   -1.427347   -0.498902
 C    7.151254    0.119673   -0.705419
 N    8.309192    0.639623   -1.073900
 C    8.360860    1.857550   -0.461118
 N    6.451544    0.984196    0.137091
 C    5.224051    0.683403    0.663801
 S   -3.296920   -0.477006   -1.679533
 O   -3.618914   -1.855532   -2.032346
 O   -3.010973    0.539704   -2.686126
 C   -4.618488    0.135215   -0.657685
 C   -5.799119    1.952993    0.305678
 C   -6.407436   -0.269770    0.846376
 F   -7.194185   -1.126471    1.512757
 F   -5.989533    3.272677    0.443435
 H   -2.340604   -2.519650    0.092282
 H   -0.454862   -2.539381    1.721290
 H    1.437391   -1.574380    2.644374
 H    1.115970    0.104422    3.086474
 H    7.084235   -1.804652   -1.680356
 H    6.921510    2.931276    0.902620
 H   -4.189997    2.213230   -1.095428
 H   -7.400832    1.462200    1.668640
 H   -5.294368   -1.845658   -0.106918
 H    0.619640    1.438165    0.528082
 H   -1.271186    1.452731   -1.093298
 H    3.035657    0.700436    2.039272
 H    4.840496   -2.371921   -0.718311
 H    9.213236    2.512703   -0.587417
 H    4.813143    1.465046    1.294437
