17 
4o3c_ligand_xtb.xyz
 N    0.702852    1.723889    0.133803
 C    0.665377    0.430818    0.864550
 C    1.390441   -0.648657    0.020798
 O    1.119158   -1.804557    0.069400
 C   -0.777546   -0.007963    1.125659
 C   -1.603889    0.023662   -0.147444
 O   -1.351998    0.792450   -1.061562
 O   -2.591561   -0.815444   -0.146093
 O    2.340968   -0.097432   -0.727051
 H    1.606022    1.830368   -0.345156
 H   -0.096429    1.617177   -0.594019
 H    0.527817    2.531058    0.737952
 H    1.212011    0.508196    1.811687
 H   -0.784549   -1.025529    1.520855
 H   -1.262759    0.636970    1.862045
 H   -3.136253   -0.789370   -0.953816
 H    2.835336   -0.763394   -1.235095
