34 
4o43_ligand_ani.xyz
 C    2.949648    1.692668   -2.093736
 C    2.704464    2.354450   -0.740723
 C    2.930118    1.405262    0.438560
 C    2.727026    2.088409    1.783570
 N    2.091361    0.187917    0.320675
 C    0.690267    0.301839    0.344830
 O    0.140443    1.367231    0.546163
 C    2.629645   -1.051695    0.089493
 S    4.223570   -1.457037   -0.010342
 S    1.331077   -2.222367   -0.113816
 C    0.055202   -1.007284    0.095921
 C   -1.244282   -1.382484    0.046711
 C   -2.522370   -0.677023    0.018606
 C   -3.673718   -1.491849    0.012926
 C   -4.945493   -0.957581   -0.034564
 C   -5.096547    0.429650   -0.084352
 O   -6.364783    0.915862   -0.133129
 C   -3.974586    1.254221   -0.081597
 C   -2.697285    0.712448   -0.028585
 H    2.208381    0.911460   -2.294184
 H    2.887150    2.431749   -2.898657
 H    3.943442    1.228729   -2.134542
 H    3.391809    3.202212   -0.611784
 H    1.686974    2.753231   -0.685362
 H    3.950631    1.015431    0.385613
 H    1.726283    2.516979    1.858174
 H    2.862223    1.360125    2.587994
 H    3.467963    2.886487    1.908053
 H   -1.387083   -2.464633   -0.001645
 H   -3.556751   -2.572813    0.049083
 H   -5.831456   -1.586581   -0.036304
 H   -6.332537    1.880253   -0.163504
 H   -4.093243    2.336022   -0.117747
 H   -1.835488    1.365457   -0.010022
