34 
4o43_ligand_dft.xyz
 C    2.919472    1.743409   -2.136545
 C    2.761153    2.387950   -0.761074
 C    2.954614    1.401624    0.396617
 C    2.775126    2.032584    1.775336
 N    2.091986    0.207332    0.247676
 C    0.694752    0.325980    0.227503
 O    0.138810    1.401359    0.350292
 C    2.615140   -1.056658    0.117689
 S    4.199677   -1.503147    0.121258
 S    1.330619   -2.231128   -0.062453
 C    0.062160   -0.996236    0.040981
 C   -1.238544   -1.359135   -0.058749
 C   -2.520166   -0.667822   -0.028618
 C   -3.663646   -1.478142   -0.187139
 C   -4.940793   -0.952411   -0.180631
 C   -5.114194    0.423460   -0.011960
 O   -6.381375    0.895935   -0.012316
 C   -3.998274    1.248222    0.148088
 C   -2.720517    0.712421    0.140433
 H    2.131675    1.006083   -2.326220
 H    2.860250    2.498551   -2.926058
 H    3.883223    1.230533   -2.226979
 H    3.522065    3.167152   -0.629966
 H    1.786718    2.876106   -0.675936
 H    3.967552    0.999091    0.328920
 H    1.775433    2.455821    1.894128
 H    2.946446    1.291014    2.561651
 H    3.510040    2.834247    1.899186
 H   -1.371601   -2.432485   -0.199473
 H   -3.541556   -2.550060   -0.320475
 H   -5.813604   -1.584108   -0.303672
 H   -6.368136    1.853520    0.107900
 H   -4.129211    2.319811    0.281344
 H   -1.865095    1.361964    0.265641
