23 
4o4k_ligand_ani.xyz
 O    9.815059  462.620937   31.946028
 C    9.909881  463.522523   31.138930
 N    9.558017  464.820764   31.433707
 C    9.682310  465.818164   30.482840
 N    9.369778  467.019221   30.716378
 S   10.326036  465.072866   28.996311
 C   10.396930  463.448326   29.729157
 C   10.847138  462.421224   28.982758
 C   11.054983  460.988611   29.196230
 C   11.563799  460.272684   28.093888
 C   11.808184  458.915275   28.154567
 C   11.543720  458.231158   29.342554
 O   11.797713  456.896060   29.361605
 C   11.040705  458.917323   30.444873
 C   10.797026  460.282089   30.377774
 H    9.521223  467.624231   29.912746
 H   11.130001  462.712758   27.968522
 H   11.771049  460.802552   27.166575
 H   12.200454  458.365412   27.303527
 H   11.574597  456.544270   30.232541
 H   10.834476  458.383658   31.371340
 H   10.406042  460.802584   31.242015
 H    9.204879  465.054310   32.351133
