21 
4o61_ligand_xtb.xyz
 C   -2.538929   -0.200001   -0.215042
 O   -2.679759   -0.642598    1.028719
 O   -3.205737   -0.603677   -1.124104
 C   -1.449301    0.859391   -0.403258
 C   -0.098207    0.375963    0.174618
 O   -0.205794    0.238807    1.573662
 C    0.298818   -0.985612   -0.426600
 C    1.763729   -1.280504   -0.119225
 O    2.092240   -2.566085   -0.004096
 O    2.577691   -0.409314   -0.014117
 C    0.939627    1.502419   -0.082899
 O    1.282289    2.181389    0.843804
 O    1.274862    1.765952   -1.335827
 H   -1.970470   -0.303912    1.613832
 H   -1.754121    1.763222    0.131441
 H   -1.374389    1.092689   -1.465685
 H    0.354162    0.937212    1.968971
 H    0.157450   -0.993752   -1.511190
 H   -0.351425   -1.752676    0.001058
 H    1.343188   -3.172794   -0.080218
 H    1.014847    1.084274   -1.968093
