56 
4o6e_ligand_xtb.xyz
 C    1.082944    3.215144    0.146987
 C    1.599510    1.931245    0.201889
 C    2.930383    1.687773   -0.121572
 C    3.478948    0.290640   -0.024717
 C    1.749428   -4.130124   -1.165931
 C   -0.273017   -3.692779    0.245273
 C   -2.478973   -2.187219    0.540265
 C   -0.542879   -2.593988   -0.567762
 C   -3.506073    1.001666    0.859345
 C    3.745946    2.751152   -0.488159
 C    3.242018    4.037920   -0.541251
 C    1.914163    4.264451   -0.228455
 C    3.775809   -0.043216    1.465011
 O    4.858474   -0.898215    1.622782
 N    2.508197   -0.631625   -0.596473
 C    2.685937   -1.982127   -0.651620
 O    3.632395   -2.545644   -0.120644
 N    1.748972   -2.689167   -1.364680
 C    0.992848   -4.490086    0.116399
 C   -1.239258   -3.958462    1.213195
 N   -2.326276   -3.232557    1.365534
 N   -1.621890   -1.841871   -0.425773
 C    0.416594   -2.213382   -1.666561
 N   -3.597037   -1.458149    0.701939
 C   -3.869676   -0.222730    0.008966
 C   -3.894643    2.275265    0.105665
 O   -5.263372    2.293920   -0.222175
 C   -5.619058    1.211599   -1.047396
 C   -5.349189   -0.134653   -0.370176
Cl   -0.572680    3.507239    0.542482
 F    1.429937    5.515483   -0.290665
 H    0.956799    1.120463    0.507137
 H    4.436074    0.222863   -0.562652
 H    2.784797   -4.465364   -1.101484
 H    1.275823   -4.587372   -2.038306
 H   -4.053288    0.962320    1.803473
 H   -2.437387    1.009442    1.073658
 H    4.781788    2.572972   -0.730961
 H    3.862249    4.872888   -0.825493
 H    4.032728    0.881346    1.990202
 H    2.859140   -0.455711    1.913208
 H    4.664686   -1.699167    1.093571
 H    1.867232   -0.206897   -1.245370
 H    1.633908   -4.268490    0.975682
 H    0.770811   -5.558983    0.136971
 H   -1.131230   -4.792877    1.895455
 H    0.091826   -2.692524   -2.599453
 H    0.367884   -1.137346   -1.828729
 H   -4.166199   -1.700956    1.497955
 H   -3.249414   -0.234585   -0.893331
 H   -3.288750    2.357800   -0.810601
 H   -3.724948    3.159602    0.722845
 H   -6.683403    1.334539   -1.257213
 H   -5.059679    1.263182   -1.995184
 H   -5.621886   -0.949204   -1.041174
 H   -5.957758   -0.205803    0.533697
