49 
4o72_ligand_dft.xyz
 O   -4.272182    3.281824   -0.932995
 C   -3.528628    2.369093   -0.592969
 C   -2.177167    2.632721   -0.029065
 C   -1.360484    1.566908    0.330392
 C   -0.066067    1.750159    0.836396
 C    0.780947    0.582691    1.198319
 C    0.386787   -0.316049    2.188668
 C    1.172768   -1.421067    2.524375
 C    2.375025   -1.653873    1.874101
 C    2.797893   -0.773448    0.875792
 C    1.996293    0.335296    0.549676
 S    2.680886    1.300065   -0.753858
 C    4.063469    0.219852   -0.864477
 C    4.000197   -0.836879    0.058426
 C    5.033416   -1.778814    0.088270
 C    6.099264   -1.655122   -0.788955
 C    6.147931   -0.595590   -1.703075
 C    5.133284    0.349687   -1.749076
 C    0.385871    3.059721    0.973377
 C   -0.418325    4.147641    0.621883
 C   -1.691135    3.933682    0.122579
 O   -1.781746    0.274025    0.203973
 C   -2.999246   -0.007331   -0.304454
 N   -3.221816   -1.358398   -0.292537
 C   -2.085163   -2.273459   -0.441583
 C   -2.474384   -3.652799    0.066189
 O   -3.629345   -4.134925   -0.585049
 C   -4.720778   -3.278969   -0.341436
 C   -4.464660   -1.866154   -0.855843
 C   -3.857321    0.965917   -0.722266
 H   -0.552781   -0.144911    2.704987
 H    0.838320   -2.098471    3.303911
 H    2.982678   -2.515272    2.135545
 H    5.000594   -2.602003    0.796335
 H    6.902893   -2.384484   -0.767534
 H    6.988682   -0.510578   -2.384671
 H    5.172250    1.170708   -2.458061
 H    1.383244    3.227635    1.369486
 H   -0.039211    5.157078    0.743229
 H   -2.343344    4.751360   -0.166548
 H   -1.235157   -1.896333    0.126976
 H   -1.795658   -2.341565   -1.501285
 H   -2.641467   -3.611600    1.154792
 H   -1.672880   -4.365887   -0.140336
 H   -4.935844   -3.237019    0.738697
 H   -5.583929   -3.709809   -0.854333
 H   -4.423821   -1.863654   -1.956066
 H   -5.291845   -1.226595   -0.538772
 H   -4.806736    0.718871   -1.175773
