39 
4o77_ligand_xtb.xyz
 F   -6.616379  -12.651278  -25.581059
 C   -5.949817  -11.925755  -24.656199
 C   -4.895884  -12.508429  -23.975442
 C   -4.216919  -11.757205  -23.036642
 C   -4.579128  -10.434375  -22.785013
 C   -3.842668   -9.683047  -21.777970
 C   -3.587397   -8.318898  -21.680411
 C   -3.838716   -7.197785  -22.560870
 C   -3.827276   -7.341532  -23.951295
 C   -4.055690   -6.226727  -24.736632
 N   -4.281855   -5.016857  -24.249255
 C   -4.286610   -4.875276  -22.934853
 C   -4.070981   -5.917182  -22.050507
 N   -2.920275   -8.168842  -20.490244
 C   -2.773363   -9.402080  -19.932057
 C   -2.111026   -9.667927  -18.674197
 C   -1.493702   -8.666845  -17.921829
 C   -0.876164   -8.964735  -16.726327
 C   -0.861117  -10.274354  -16.252772
 O   -0.243366  -10.522278  -15.070569
 C   -1.472955  -11.279015  -16.997565
 C   -2.089289  -10.978073  -18.192683
 N   -3.327266  -10.318981  -20.695395
 C   -5.659954   -9.881675  -23.470341
 C   -6.347316  -10.623379  -24.411705
 H   -4.621937  -13.530536  -24.184376
 H   -3.395082  -12.181758  -22.482398
 H   -3.633128   -8.303770  -24.398013
 H   -4.053437   -6.300389  -25.816215
 H   -4.474830   -3.872218  -22.573821
 H   -4.109167   -5.741413  -20.985249
 H   -2.560288   -7.298186  -20.136833
 H   -1.486398   -7.642447  -18.264734
 H   -0.396728   -8.197321  -16.139860
 H   -0.303379  -11.461542  -14.856998
 H   -1.462966  -12.297632  -16.632525
 H   -2.569075  -11.745178  -18.778615
 H   -5.973521   -8.871031  -23.256895
 H   -7.184951  -10.208049  -24.949641
