39 
4o77_ligand_ani.xyz
 F   -6.736724  -12.633810  -25.521535
 C   -6.063128  -11.912108  -24.610408
 C   -5.067074  -12.529149  -23.869738
 C   -4.377567  -11.778962  -22.929941
 C   -4.661289  -10.422519  -22.744384
 C   -3.897516   -9.666668  -21.745201
 C   -3.616389   -8.309016  -21.664106
 C   -3.809882   -7.183026  -22.581865
 C   -3.669800   -7.339569  -23.961727
 C   -3.838777   -6.236485  -24.791737
 N   -4.139244   -5.013017  -24.354385
 C   -4.279026   -4.871475  -23.034437
 C   -4.123032   -5.902265  -22.117031
 N   -2.965675   -8.160250  -20.457960
 C   -2.809527   -9.401319  -19.910747
 C   -2.125679   -9.672556  -18.644236
 C   -1.789189   -8.664398  -17.734537
 C   -1.141271   -8.965201  -16.549536
 C   -0.819193  -10.292338  -16.255177
 O   -0.179736  -10.531710  -15.080194
 C   -1.156489  -11.308892  -17.148243
 C   -1.808774  -10.994548  -18.330838
 N   -3.354089  -10.316333  -20.674789
 C   -5.686513   -9.838568  -23.494976
 C   -6.391339  -10.577477  -24.435024
 H   -4.850157  -13.580300  -24.031553
 H   -3.605908  -12.238855  -22.318763
 H   -3.445732   -8.314094  -24.383201
 H   -3.728001   -6.348553  -25.867812
 H   -4.525672   -3.870565  -22.684098
 H   -4.260569   -5.709763  -21.056429
 H   -2.466524   -7.328914  -20.174737
 H   -2.049929   -7.628465  -17.943817
 H   -0.875236   -8.187919  -15.839757
 H   -0.016080  -11.479420  -14.995642
 H   -0.911857  -12.344747  -16.918454
 H   -2.086338  -11.773027  -19.036057
 H   -5.936522   -8.792374  -23.347361
 H   -7.184554  -10.135342  -25.027569
