52 
4o78_ligand_xtb.xyz
 N   15.475675   18.909444   17.903367
 N   17.816123   15.053383   16.807435
 C   16.309952   19.433859   18.888110
 C   15.580527   17.747215   17.211653
 C   14.638070   16.373481   15.685519
 C   15.688245   15.487693   15.795151
 C   16.723320   15.857142   16.673409
 C   19.415793   16.580893   17.843042
 C   22.553797   15.513575   19.667363
 C   20.920417   14.403600   18.592238
 C   16.294618   20.809231   19.090072
 C   17.911714   20.588940   20.867359
 C   18.345018   22.098749   22.670966
 C   18.627653   17.084046   21.484959
 O   18.687270   18.489225   21.525423
 C   17.897953   19.195454   20.672221
 C   17.110987   18.624708   19.683643
 N   14.570116   17.505967   16.369052
 C   18.988514   15.275146   17.526782
 C   20.574683   16.806375   18.543099
 C   21.342201   15.709934   18.939664
 C   23.414316   16.557361   20.278145
 N   22.831753   14.235312   19.745029
 N   21.858048   13.563906   19.098067
 C   19.748495   14.171437   17.883086
 N   16.647364   16.973524   17.387890
 C   17.103045   21.396382   20.056182
 O   17.159573   22.750292   20.263138
 C   16.336510   23.586687   19.490307
 O   18.769886   21.044713   21.835354
 H   14.711862   19.492248   17.590868
 H   17.732373   14.138418   16.387195
 H   13.807205   16.182764   15.018116
 H   15.727538   14.571895   15.228604
 H   18.802817   17.408498   17.531442
 H   15.658665   21.416921   18.466735
 H   19.015054   22.075928   23.530523
 H   18.420659   23.068798   22.173969
 H   17.315640   21.950120   23.010224
 H   18.979293   16.689655   20.527070
 H   19.289386   16.741748   22.279466
 H   17.612450   16.721018   21.676738
 H   17.104040   17.563656   19.517043
 H   20.884385   17.811812   18.783191
 H   23.816025   17.213282   19.506502
 H   22.832520   17.166097   20.968825
 H   24.235477   16.087809   20.811580
 H   21.891533   12.559764   19.054192
 H   19.438216   13.169079   17.624673
 H   16.545712   24.598821   19.834074
 H   16.573380   23.513580   18.423983
 H   15.275135   23.366418   19.645264
