33 
4o7a_ligand_ani.xyz
 C   -0.153338    3.350424   -0.836652
 C   -1.167884    2.405080   -0.874446
 C   -1.166363    1.330373    0.017796
 C   -0.150628    1.250073    0.981985
 C    0.855864    2.200672    0.997944
 C    0.874608    3.256737    0.095148
Cl    2.138975    2.058118    2.174612
 C   -2.183283    0.281069   -0.063530
 C   -2.115778   -1.036228    0.308281
 C   -3.467228   -1.645547    0.275523
 O   -3.765131   -2.771102    0.621699
 N   -4.305189   -0.665955   -0.225614
 C   -3.603602    0.518850   -0.492596
 O   -4.113701    1.505353   -0.970829
 N   -1.114131   -1.879739    0.697121
 C    0.245502   -1.823369    0.363691
 C    0.688387   -1.174513   -0.787197
 C    2.049954   -1.065559   -1.033309
 C    2.994629   -1.635092   -0.173252
 C    2.534419   -2.304935    0.958703
 C    1.174821   -2.402445    1.222624
 O    4.309485   -1.505469   -0.476730
Cl    2.595330   -0.192039   -2.430508
 H   -0.163130    4.176033   -1.543374
 H   -1.978302    2.484688   -1.591159
 H   -0.126979    0.422036    1.682378
 H    1.673853    3.991638    0.128082
 H   -5.295216   -0.778944   -0.394875
 H   -1.455688   -2.738654    1.109774
 H   -0.014745   -0.704967   -1.468195
 H    3.249243   -2.758290    1.643890
 H    0.829572   -2.916257    2.116361
 H    4.827744   -1.944550    0.209404
