22 
4o7d_ligand_xtb.xyz
 N    0.879141    1.698120    0.269528
 C    1.190153    0.364334    0.837447
 C    1.731183   -0.555738   -0.271452
 O    2.388930    0.150149   -1.188594
 O    1.591736   -1.739070   -0.285599
 C   -0.031160   -0.222529    1.557258
 C   -1.127603   -0.837758    0.675256
 C   -1.889885    0.079312   -0.235560
 O   -1.463819    1.171998   -0.592722
 C   -3.209745   -0.417387   -0.696220
 H    0.878306    2.430419    0.982017
 H   -0.151892    1.601571   -0.163382
 H    1.550785    1.937865   -0.467700
 H    2.008884    0.459098    1.562300
 H    2.784800   -0.419951   -1.869123
 H    0.325385   -1.018058    2.212034
 H   -0.463177    0.554604    2.191269
 H   -0.688192   -1.618808    0.045730
 H   -1.840020   -1.348053    1.325535
 H   -3.207141   -1.494220   -0.839960
 H   -3.947808   -0.190724    0.075450
 H   -3.516349    0.093390   -1.605916
