39 
4o7e_ligand_dft.xyz
 C   66.049649  121.606443   32.423493
 C   65.055485  121.789955   33.382658
 C   64.806921  123.053212   33.901944
 C   65.554400  124.153306   33.468648
 C   66.557832  123.961461   32.514301
 C   66.800829  122.695603   31.992496
 C   65.259987  125.474205   34.034561
 N   65.728947  126.647701   33.517556
 C   65.235950  127.682850   34.279944
 C   64.495762  127.064003   35.270628
 N   64.518440  125.701786   35.095071
 C   63.772268  127.647905   36.409905
 C   64.109350  128.879638   36.977755
 C   63.368634  129.349739   38.055594
 N   62.344097  128.694091   38.605709
 C   62.040666  127.509173   38.068442
 C   62.711136  126.947651   36.989562
 C   65.512777  129.081098   33.923730
 C   66.813831  129.464729   33.577071
 C   67.083232  130.781098   33.206871
 C   66.056340  131.725224   33.183169
 C   64.768271  131.340075   33.530889
 C   64.485353  130.027012   33.894287
 O   68.328678  131.204701   32.867343
 H   66.240653  120.617989   32.017059
 H   64.468474  120.943520   33.726035
 H   64.035841  123.210502   34.648581
 H   67.175375  124.793622   32.185244
 H   67.584374  122.560156   31.253154
 H   66.203272  126.768725   32.636009
 H   64.940369  129.463751   36.598085
 H   63.618649  130.307955   38.506918
 H   61.209735  126.977613   38.528047
 H   62.425534  125.977460   36.598694
 H   67.622732  128.737772   33.629769
 H   66.287037  132.745511   32.896572
 H   63.968906  132.074415   33.509995
 H   63.474935  129.730006   34.153704
 H   68.952276  130.474343   32.957505
