52 
4o9s_ligand_xtb.xyz
 F    2.500273   -1.096685    0.935337
 C    3.521235   -0.627721    1.680165
 F    3.859466   -1.624033    2.505196
 F    2.967583    0.326753    2.469025
 C    4.673701   -0.101578    0.874052
 C    5.946101   -0.600400    1.123798
 C    7.027373   -0.127015    0.404855
 C    6.836801    0.845477   -0.561335
 C    5.570056    1.343198   -0.804032
 C    4.469391    0.886839   -0.091515
 C    3.097057    1.393912   -0.424531
 C    2.479388    0.459828   -1.476525
 O    3.172561   -0.284618   -2.138919
 N    1.142072    0.546592   -1.662789
 C    0.488056   -0.439083   -2.504893
 C   -0.341162   -1.391686   -1.641653
 C    0.188471    1.305677   -0.889561
 C   -0.626769    0.341637   -0.018374
 N   -1.293166   -0.609198   -0.876415
 C   -2.507588   -1.149413   -0.577305
 C   -3.595807   -0.421546   -0.020802
 N   -2.666601   -2.434160   -0.898682
 C   -3.787522   -3.050062   -0.577498
 N   -4.811613   -2.530799    0.061978
 C   -4.711564   -1.232379    0.299961
 S   -6.039296   -0.339652    0.990560
 C   -5.146432    1.118687    0.754673
 C   -3.902262    0.947753    0.235436
 C   -5.514652    2.545388    0.971155
 C   -4.466233    3.258025    0.096306
 C   -3.266190    2.291188    0.007575
 H    6.084418   -1.362347    1.875231
 H    8.012681   -0.521607    0.597614
 H    7.676371    1.213894   -1.131071
 H    5.423912    2.093894   -1.565801
 H    3.164524    2.393652   -0.859499
 H    2.475290    1.441158    0.466851
 H    1.261498   -0.988204   -3.041928
 H   -0.158943    0.079894   -3.219109
 H    0.326216   -1.949240   -0.972329
 H   -0.889724   -2.099914   -2.260200
 H   -0.482971    1.814502   -1.591064
 H    0.676360    2.060044   -0.276904
 H   -1.350270    0.871903    0.591560
 H    0.065496   -0.194688    0.647610
 H   -3.858196   -4.094119   -0.849949
 H   -5.407292    2.815097    2.025813
 H   -6.537029    2.768910    0.668879
 H   -4.179086    4.227065    0.500184
 H   -4.878822    3.412075   -0.901302
 H   -2.758588    2.359399   -0.954053
 H   -2.547026    2.528298    0.797490
