52 
4o9s_ligand_dft.xyz
 F    2.393436   -1.336407    0.181129
 C    3.296472   -1.297958    1.185398
 F    3.558315   -2.566986    1.520993
 F    2.659033   -0.740455    2.240477
 C    4.535638   -0.531403    0.802054
 C    5.773308   -1.159856    0.911352
 C    6.936492   -0.484137    0.561686
 C    6.857504    0.822968    0.097536
 C    5.619867    1.448005   -0.008955
 C    4.443836    0.791271    0.342193
 C    3.120470    1.502408    0.201273
 C    2.490920    1.232003   -1.171186
 O    3.180668    0.868775   -2.108715
 N    1.144332    1.454357   -1.302152
 C    0.475668    0.973655   -2.505766
 C   -0.347524   -0.273354   -2.188987
 C    0.211785    1.738486   -0.224045
 C   -0.608150    0.492505    0.095375
 N   -1.292988    0.039984   -1.117162
 C   -2.368131   -0.821956   -0.947636
 C   -3.497136   -0.450081   -0.175912
 N   -2.335437   -1.998486   -1.569931
 C   -3.357317   -2.842508   -1.380549
 N   -4.424596   -2.660610   -0.618611
 C   -4.472547   -1.455459   -0.048035
 S   -5.855416   -0.922657    0.890434
 C   -5.145948    0.654982    1.031871
 C   -3.931303    0.774761    0.443854
 C   -5.636790    1.927135    1.657266
 C   -4.698276    2.964374    0.986620
 C   -3.422545    2.190197    0.565448
 H    5.825680   -2.181518    1.268599
 H    7.897302   -0.980862    0.649722
 H    7.758582    1.358605   -0.184935
 H    5.559825    2.466477   -0.381481
 H    3.271384    2.584611    0.295119
 H    2.454698    1.208912    1.012216
 H    1.240281    0.752685   -3.249324
 H   -0.180898    1.765619   -2.886406
 H    0.321102   -1.098016   -1.902270
 H   -0.908550   -0.591661   -3.068864
 H   -0.461345    2.540112   -0.553682
 H    0.733197    2.094949    0.663362
 H   -1.336294    0.700533    0.878039
 H    0.068884   -0.294008    0.464023
 H   -3.290889   -3.793015   -1.903875
 H   -5.507923    1.903973    2.747414
 H   -6.692916    2.133773    1.458691
 H   -4.476818    3.811777    1.640922
 H   -5.189663    3.356131    0.090350
 H   -2.991066    2.567797   -0.367031
 H   -2.647246    2.277101    1.338667
