52 
4o9s_ligand_ani.xyz
 F    3.463529   -1.666203    0.634185
 C    4.436626   -1.066984    1.346737
 F    5.252280   -2.034259    1.797165
 F    3.830718   -0.529773    2.432663
 C    5.178088   -0.018792    0.554219
 C    6.561111   -0.105853    0.427690
 C    7.260086    0.868739   -0.278248
 C    6.572741    1.929542   -0.856506
 C    5.188404    2.009138   -0.727734
 C    4.473841    1.042071   -0.022018
 C    2.970608    1.103388    0.034797
 C    2.344992    0.231695   -1.066329
 O    3.029153   -0.278669   -1.934192
 N    0.987204    0.059559   -1.015169
 C    0.348563   -0.733160   -2.059911
 C   -0.722921   -1.627554   -1.454736
 C    0.062214    0.840734   -0.202811
 C   -0.976983   -0.091616    0.402275
 N   -1.649697   -0.807987   -0.681561
 C   -2.928358   -1.252830   -0.494636
 C   -3.946060   -0.388202    0.001243
 N   -3.211137   -2.513725   -0.814049
 C   -4.426443   -2.973546   -0.510837
 N   -5.437855   -2.313081    0.032369
 C   -5.171239   -1.027630    0.259435
 S   -6.378239    0.085608    0.905183
 C   -5.261422    1.396820    0.694105
 C   -4.048143    1.025231    0.219473
 C   -5.416044    2.875386    0.835781
 C   -4.264335    3.392182   -0.061070
 C   -3.215814    2.253908   -0.082491
 H    7.083214   -0.941430    0.884862
 H    8.339764    0.797621   -0.374928
 H    7.111866    2.695218   -1.409321
 H    4.645059    2.831460   -1.187338
 H    2.643181    2.140167   -0.117365
 H    2.608721    0.773300    1.012164
 H    1.120082   -1.322583   -2.558409
 H   -0.103834   -0.065859   -2.807974
 H   -0.263478   -2.391088   -0.807680
 H   -1.282866   -2.150894   -2.232249
 H   -0.440418    1.593726   -0.827565
 H    0.601688    1.367403    0.586739
 H   -1.707532    0.449649    1.002977
 H   -0.474937   -0.810662    1.071072
 H   -4.605181   -4.024251   -0.741760
 H   -5.261345    3.171519    1.883141
 H   -6.400372    3.247008    0.537803
 H   -3.850805    4.342266    0.290497
 H   -4.646002    3.556428   -1.074305
 H   -2.673651    2.179993   -1.031665
 H   -2.479959    2.423396    0.714086
