24 
4oak_ligand_ani.xyz
 N   -3.226855    0.048260   -0.748100
 C   -2.286747   -0.293383    0.384771
 C   -2.203730    0.827420    1.422787
 C   -0.935675   -0.544767   -0.316642
 O   -0.858926   -0.429596   -1.531339
 N    0.132015   -0.894014    0.456560
 C    1.464482   -0.727577   -0.082615
 C    2.492195   -1.535838    0.706180
 C    1.813458    0.758944   -0.114231
 O    3.007183    0.984108   -0.689643
 O    1.116243    1.642702    0.321579
 H   -3.588887    1.009283   -0.654041
 H   -2.606560   -0.017169   -1.589480
 H   -4.012088   -0.615633   -0.825978
 H   -2.622101   -1.219242    0.854486
 H   -1.631023    0.512959    2.300404
 H   -1.712041    1.718002    1.013494
 H   -3.202083    1.102631    1.778654
 H    0.036878   -0.717767    1.447758
 H    1.439711   -1.070858   -1.121193
 H    3.482242   -1.438706    0.253784
 H    2.555725   -1.186302    1.743567
 H    2.203471   -2.590071    0.708058
 H    3.140729    1.946643   -0.674992
