72 
4oar_ligand_dft.xyz
 C    2.532417    2.250355   -1.360247
 C    2.752653    3.652222   -1.932847
 C    3.183348    4.641721   -0.867211
 C    2.643570    4.404700    0.480962
 C    1.877623    3.340602    0.798923
 C    1.302018    3.182745    2.177651
 C   -0.131643    2.678659    2.074514
 C   -0.180278    1.333981    1.351250
 C    0.657484    1.319756    0.072889
 C    1.596250    2.262657   -0.171008
 C    0.465597    0.133045   -0.870136
 C   -1.011866   -0.331117   -0.999962
 C   -1.734197   -0.427082    0.340463
 C   -1.619551    0.936046    1.040938
 C   -2.622442    0.853012    2.197237
 C   -3.749148   -0.072900    1.663709
 C   -3.286160   -0.565050    0.269139
 C   -1.182114   -1.590197    1.186917
 C   -3.711726   -1.975110   -0.197405
 C   -4.311353   -2.940569    0.793127
 O    3.894158    5.598786   -1.117928
 O   -3.515993   -2.280534   -1.353762
 C    1.444575   -1.006370   -0.560808
 C    2.378544   -0.959519    0.472389
 C    3.258740   -2.005936    0.722984
 C    3.247653   -3.169247   -0.065324
 C    2.332768   -3.202379   -1.135463
 C    1.460179   -2.149589   -1.363820
 N    4.094323   -4.237711    0.198051
 C    4.242032   -5.271222   -0.804643
 C    5.173923   -4.051988    1.143170
 C   -5.293135    1.351812   -2.173961
 C   -5.018216    0.368131   -1.069848
 O   -5.838688   -0.354834   -0.552848
 O   -3.718496    0.376237   -0.735167
 H    3.496805    1.845257   -1.021992
 H    2.189119    1.584075   -2.152473
 H    1.814501    4.028022   -2.364821
 H    3.500457    3.651571   -2.730031
 H    2.874960    5.164583    1.223102
 H    1.902464    2.447959    2.734111
 H    1.357985    4.128023    2.726002
 H   -0.736422    3.411038    1.522760
 H   -0.576541    2.577364    3.070469
 H    0.248289    0.578450    2.030732
 H    0.720973    0.472259   -1.878790
 H   -1.540901    0.398066   -1.620211
 H   -1.059050   -1.283605   -1.534489
 H   -2.001839    1.678576    0.326398
 H   -2.151628    0.420330    3.088056
 H   -3.003853    1.836467    2.484708
 H   -4.709971    0.435930    1.578024
 H   -3.909031   -0.916458    2.338479
 H   -0.121668   -1.461542    1.404373
 H   -1.703726   -1.699270    2.143347
 H   -1.270498   -2.534152    0.638839
 H   -4.498079   -3.890618    0.290653
 H   -5.252337   -2.528534    1.170877
 H   -3.644325   -3.102095    1.646459
 H    2.438257   -0.079654    1.106694
 H    3.962456   -1.898941    1.539914
 H    2.296876   -4.053964   -1.804524
 H    0.777190   -2.226800   -2.206396
 H    4.950987   -6.019600   -0.445746
 H    4.608235   -4.882865   -1.768202
 H    3.289370   -5.782904   -0.981363
 H    4.782591   -3.802775    2.135782
 H    5.729510   -4.986627    1.239623
 H    5.877514   -3.259767    0.841742
 H   -6.369073    1.475730   -2.294237
 H   -4.817207    2.312783   -1.964194
 H   -4.865770    0.963417   -3.103877
