72 
4oar_ligand_xtb.xyz
 C    2.579355    2.196530   -1.399124
 C    2.780742    3.613666   -1.927256
 C    3.340509    4.532424   -0.861957
 C    2.860902    4.252198    0.481568
 C    2.056447    3.215608    0.791729
 C    1.516701    3.051707    2.177762
 C    0.047145    2.670889    2.071014
 C   -0.084246    1.330545    1.350654
 C    0.723104    1.287856    0.067903
 C    1.696206    2.191243   -0.176665
 C    0.459875    0.136099   -0.876019
 C   -1.025479   -0.278393   -0.986430
 C   -1.721668   -0.335035    0.363892
 C   -1.545677    1.027271    1.041558
 C   -2.535934    0.988878    2.206120
 C   -3.716913    0.150861    1.671863
 C   -3.275379   -0.404607    0.302370
 C   -1.205214   -1.518286    1.183949
 C   -3.761812   -1.800653   -0.121899
 C   -4.431758   -2.677293    0.896629
 O    4.087936    5.454482   -1.121551
 O   -3.565141   -2.158831   -1.256400
 C    1.378843   -1.038503   -0.572030
 C    2.283804   -1.047031    0.480903
 C    3.112774   -2.125589    0.718592
 C    3.082129   -3.262831   -0.097182
 C    2.194739   -3.234547   -1.181561
 C    1.374179   -2.150035   -1.407266
 N    3.866730   -4.362475    0.169582
 C    3.947435   -5.429500   -0.798239
 C    4.941699   -4.248180    1.125919
 C   -5.268731    1.381402   -2.232325
 C   -4.972834    0.431840   -1.104451
 O   -5.771804   -0.312129   -0.594212
 O   -3.696730    0.509428   -0.732819
 H    3.551201    1.777757   -1.117177
 H    2.182391    1.573598   -2.198577
 H    1.818029    4.031489   -2.238989
 H    3.443141    3.618877   -2.794166
 H    3.159892    4.956876    1.245410
 H    2.063420    2.253268    2.689750
 H    1.646125    3.970224    2.751356
 H   -0.483062    3.443879    1.509830
 H   -0.401330    2.603191    3.063136
 H    0.301436    0.550090    2.019041
 H    0.724931    0.456108   -1.889840
 H   -1.539275    0.457186   -1.607422
 H   -1.101645   -1.242953   -1.487598
 H   -1.896408    1.782264    0.328750
 H   -2.085143    0.511805    3.076999
 H   -2.856909    1.986714    2.499930
 H   -4.610443    0.759997    1.538871
 H   -3.969013   -0.650537    2.360379
 H   -0.128424   -1.461977    1.304238
 H   -1.663906   -1.559879    2.167567
 H   -1.422622   -2.446196    0.658807
 H   -4.635452   -3.644643    0.444465
 H   -5.371765   -2.216202    1.190579
 H   -3.806558   -2.808116    1.775751
 H    2.364414   -0.190756    1.134213
 H    3.791286   -2.066987    1.553563
 H    2.142864   -4.061484   -1.870034
 H    0.720871   -2.172209   -2.267726
 H    4.580800   -6.222731   -0.407109
 H    4.363456   -5.095076   -1.756968
 H    2.956653   -5.851930   -0.975071
 H    4.543370   -4.034951    2.120361
 H    5.479601   -5.191821    1.179332
 H    5.654904   -3.459151    0.857652
 H   -6.329559    1.611638   -2.250897
 H   -4.676024    2.285521   -2.130760
 H   -4.998097    0.889645   -3.164990
