72 
4oas_ligand_dft.xyz
 C   -0.801300    2.729511    1.262726
 C   -1.024670    4.098611    1.253208
Cl   -2.621540    4.698335    0.860125
 C   -0.011421    5.006631    1.545006
 C    1.252502    4.515566    1.849265
 C    1.493107    3.144380    1.862770
 C    0.471940    2.241131    1.574504
 C    0.733998    0.747478    1.578328
 C   -0.154239    0.004503    2.572093
 C    0.077067   -1.510876    2.542952
 C    1.516123   -1.859114    3.024833
 C    1.877183   -3.306856    2.796245
 O    2.509822   -3.475414    1.613236
 O    1.648656   -4.224700    3.543507
 C   -0.951345   -2.195585    3.451111
 C   -0.116098   -2.041372    1.118712
 O   -0.519454   -3.186505    0.937726
 N    0.173148   -1.219438    0.070735
 C   -0.177300   -1.672015   -1.284376
 C    0.634374   -2.891668   -1.753037
 C    0.699112   -3.004266   -3.275262
 C   -1.687669   -1.922181   -1.424356
 C    0.575021    0.193034    0.142849
 C    1.851555    0.433254   -0.643026
 C    1.956049    1.548593   -1.471368
 C    3.136665    1.820198   -2.156585
 C    4.214743    0.956664   -2.010573
Cl    5.701436    1.281774   -2.874191
 C    4.132286   -0.166378   -1.192935
 C    2.949086   -0.419530   -0.510043
 S   -2.638969   -0.424464   -1.083110
 O   -2.717263   -0.244555    0.374290
 O   -2.064635    0.660194   -1.890831
 C   -4.345615   -0.747318   -1.688399
 C   -4.325436   -0.894923   -3.210559
 C   -5.144741    0.495167   -1.274801
 C   -4.883555   -2.001519   -0.996388
 H   -1.611600    2.048621    1.015586
 H   -0.210944    6.072401    1.528897
 H    2.056301    5.209832    2.074011
 H    2.488380    2.772152    2.089674
 H    1.777976    0.607938    1.876755
 H   -1.207970    0.187669    2.337883
 H    0.028357    0.390837    3.582140
 H    1.574997   -1.662482    4.099090
 H    2.258242   -1.239982    2.515706
 H    2.622726   -4.432459    1.497986
 H   -0.793045   -3.273717    3.492531
 H   -1.963163   -2.007765    3.080325
 H   -0.869902   -1.787744    4.464793
 H    0.078398   -0.838528   -1.945179
 H    0.224405   -3.799627   -1.305772
 H    1.647017   -2.775246   -1.354915
 H    1.146436   -2.107400   -3.718426
 H   -0.290549   -3.142932   -3.726248
 H    1.309787   -3.863154   -3.569927
 H   -2.014826   -2.693350   -0.726061
 H   -1.916916   -2.217755   -2.450993
 H   -0.222680    0.763551   -0.341103
 H    1.104500    2.214166   -1.583450
 H    3.215749    2.688299   -2.801729
 H    4.982312   -0.832987   -1.095424
 H    2.874780   -1.300838    0.122951
 H   -3.795996   -1.797166   -3.533529
 H   -3.863230   -0.025565   -3.684761
 H   -5.357535   -0.978299   -3.567275
 H   -4.730868    1.399135   -1.730356
 H   -6.177740    0.374514   -1.616836
 H   -5.147600    0.619519   -0.189108
 H   -5.941127   -2.120496   -1.254630
 H   -4.802415   -1.917358    0.090769
 H   -4.360542   -2.907026   -1.320420
