72 
4oas_ligand_ani.xyz
 C   -1.011163    2.736964    1.143456
 C   -1.334937    4.088070    1.122466
Cl   -2.961639    4.571480    0.723975
 C   -0.392793    5.069343    1.407378
 C    0.903727    4.678588    1.720177
 C    1.241864    3.329007    1.751447
 C    0.289889    2.347963    1.473422
 C    0.662281    0.873099    1.530265
 C   -0.214095    0.102822    2.512542
 C    0.135972   -1.382528    2.566854
 C    1.595257   -1.607370    3.043759
 C    2.024350   -3.051559    2.922155
 O    2.825418   -3.259213    1.853376
 O    1.713079   -3.945868    3.672517
 C   -0.851378   -2.105959    3.486044
 C   -0.022151   -1.972270    1.168686
 O   -0.337631   -3.150802    1.048595
 N    0.219811   -1.172208    0.088500
 C   -0.098470   -1.715124   -1.241864
 C    0.807237   -2.889928   -1.643524
 C    0.829231   -3.127229   -3.152433
 C   -1.587366   -2.064218   -1.405933
 C    0.600801    0.247081    0.122205
 C    1.900368    0.492812   -0.632453
 C    1.978513    1.562762   -1.524202
 C    3.152289    1.845341   -2.214650
 C    4.266300    1.045309   -1.999373
Cl    5.745881    1.385343   -2.855230
 C    4.221431   -0.020521   -1.109228
 C    3.036970   -0.292412   -0.429827
 S   -2.601239   -0.617572   -1.100343
 O   -2.686782   -0.404451    0.348712
 O   -2.083126    0.451522   -1.961217
 C   -4.293697   -1.034270   -1.685877
 C   -4.249921   -1.345541   -3.180039
 C   -5.113742    0.227613   -1.423237
 C   -4.822377   -2.209586   -0.868469
 H   -1.772542    1.994733    0.897187
 H   -0.676102    6.117027    1.380797
 H    1.656347    5.430302    1.943064
 H    2.261069    3.031994    1.993981
 H    1.700672    0.830206    1.878484
 H   -1.266347    0.191439    2.225066
 H   -0.104572    0.533871    3.514381
 H    1.664676   -1.323382    4.098868
 H    2.287059   -0.990160    2.469012
 H    3.003929   -4.214058    1.835696
 H   -0.607572   -3.166319    3.548031
 H   -1.869330   -2.001890    3.096380
 H   -0.815991   -1.674366    4.492434
 H    0.105695   -0.884366   -1.925443
 H    0.502041   -3.795851   -1.111886
 H    1.817276   -2.647939   -1.295636
 H    1.112829   -2.213160   -3.687653
 H   -0.144879   -3.452655   -3.534229
 H    1.555239   -3.904500   -3.410348
 H   -1.890469   -2.851509   -0.714466
 H   -1.770490   -2.373672   -2.438009
 H   -0.182046    0.764123   -0.447512
 H    1.102745    2.190452   -1.683854
 H    3.205141    2.675030   -2.913475
 H    5.103790   -0.632016   -0.950842
 H    3.012388   -1.132189    0.263264
 H   -3.742409   -2.294055   -3.387795
 H   -3.743684   -0.546394   -3.728476
 H   -5.273773   -1.437572   -3.563493
 H   -4.695839    1.076380   -1.973081
 H   -6.149953    0.073564   -1.748249
 H   -5.114225    0.471857   -0.356824
 H   -5.872742   -2.394029   -1.125381
 H   -4.756137   -1.998659    0.202173
 H   -4.266742   -3.130666   -1.079190
