26 
4obp_ligand_ani.xyz
 C    1.653988   -2.177187   -0.270437
 C    0.296400   -2.019694   -0.200434
 C   -0.260408   -0.729128   -0.013082
 N    0.489039    0.354481    0.079387
 C    1.823259    0.190405    0.030544
 C    2.480472   -1.034426   -0.147289
 N    3.838149   -1.120783   -0.198445
 C    4.483076    0.010820   -0.061442
 N    3.982575    1.254228    0.125264
 C    2.666164    1.352076    0.172901
 N    2.071856    2.546257    0.343815
 C   -1.733467   -0.518760    0.053403
 C   -2.626092   -1.533478    0.415713
 C   -3.980092   -1.244475    0.443544
 N   -4.491861   -0.045151    0.140354
 C   -3.628853    0.883624   -0.190406
 C   -2.248948    0.733806   -0.251460
 F   -4.137319    2.082166   -0.491782
 H    2.112102   -3.150967   -0.412865
 H   -0.356097   -2.881137   -0.310542
 H    5.570097   -0.043198   -0.099508
 H    1.075450    2.559184    0.492825
 H    2.634910    3.352530    0.561966
 H   -2.278870   -2.525078    0.687475
 H   -4.699910   -2.012124    0.718857
 H   -1.603129    1.556576   -0.534122
