67 
4occ_ligand_ani.xyz
 C    2.408391   -2.712876   -1.527510
 C    3.699550   -2.537332   -2.007840
Cl    4.659949   -3.931914   -2.417206
 C    4.240196   -1.267004   -2.169118
 C    3.458913   -0.167727   -1.831218
 C    2.163614   -0.325127   -1.346305
 C    1.622897   -1.604992   -1.199438
 C    0.231217   -1.900307   -0.650777
 O    0.278483   -2.522976    0.625720
 C    0.896802   -1.713593    1.604486
 C    0.881700   -2.466548    2.925817
 C    1.905611   -1.926921    3.893730
 O    1.560070   -2.158432    5.172693
 O    2.942630   -1.390790    3.583589
 C    0.176548   -0.375449    1.734365
 O    0.253021    0.259951    2.777337
 N   -0.507895    0.066657    0.642235
 C   -1.143760    1.383497    0.721539
 C   -0.101343    2.498792    0.913485
 C   -0.720835   -0.699717   -0.584918
 C   -2.180752   -1.129083   -0.735531
 C   -2.778675   -1.986420    0.186931
 C   -4.108322   -2.368819    0.049125
 C   -4.848145   -1.884232   -1.023970
Cl   -6.514423   -2.360455   -1.201166
 C   -4.276924   -1.028827   -1.956956
 C   -2.944006   -0.658420   -1.805872
 S    0.037667    3.401975   -0.620098
 O    0.469781    2.442388   -1.645429
 O   -1.227034    4.120330   -0.810106
 C    1.366736    4.643409   -0.404045
 C   -2.276986    1.444663    1.754407
 C   -3.214162    2.622085    1.493205
 C    1.397514    5.417485   -1.720152
 C    2.691122    3.921994   -0.167464
 C    1.000580    5.563333    0.757901
 H    2.015388   -3.718245   -1.398900
 H    5.249750   -1.148860   -2.549156
 H    3.862657    0.834949   -1.955488
 H    1.594063    0.568600   -1.095951
 H   -0.216359   -2.657322   -1.303714
 H    1.938104   -1.501732    1.328052
 H    1.128851   -3.515729    2.727490
 H   -0.108059   -2.444977    3.390053
 H    2.277943   -1.793098    5.715959
 H   -1.601064    1.537971   -0.261510
 H   -0.406767    3.203384    1.689921
 H    0.875936    2.080426    1.159584
 H   -0.506322   -0.024091   -1.421914
 H   -2.201099   -2.379440    1.018929
 H   -4.568939   -3.041861    0.765515
 H   -4.868624   -0.657765   -2.788185
 H   -2.495682    0.012780   -2.537216
 H   -1.855908    1.494488    2.762860
 H   -2.827780    0.498574    1.684257
 H   -2.693190    3.584762    1.546310
 H   -3.665342    2.549200    0.496102
 H   -4.025903    2.642559    2.226354
 H    0.435165    5.905352   -1.901784
 H    1.609072    4.745808   -2.557635
 H    2.179209    6.186203   -1.682333
 H    3.507846    4.653385   -0.134440
 H    2.696755    3.378944    0.784332
 H    2.894524    3.213466   -0.975350
 H    1.052331    5.043027    1.721062
 H   -0.007603    5.966808    0.628519
 H    1.709212    6.399563    0.802814
