67 
4occ_ligand_dft.xyz
 C    2.784045   -2.256954   -1.557883
 C    4.082620   -1.900353   -1.885426
Cl    5.280836   -3.150792   -2.126484
 C    4.450429   -0.565577   -2.026852
 C    3.485703    0.413102   -1.830278
 C    2.175141    0.074581   -1.496781
 C    1.817434   -1.265474   -1.363966
 C    0.421377   -1.749642   -0.984746
 O    0.477148   -2.584653    0.164471
 C    0.976481   -1.895118    1.294430
 C    0.820667   -2.812195    2.499853
 C    1.716829   -2.382620    3.638269
 O    1.130684   -2.559638    4.833263
 O    2.849111   -1.983450    3.513847
 C    0.264117   -0.571885    1.553943
 O    0.382246   -0.026339    2.646839
 N   -0.468225   -0.035396    0.544760
 C   -1.275249    1.159743    0.812007
 C   -0.371543    2.370944    1.125721
 C   -0.636128   -0.659241   -0.773400
 C   -2.060118   -1.163091   -0.950954
 C   -2.556696   -2.242615   -0.215217
 C   -3.876853   -2.649777   -0.355391
 C   -4.711172   -1.964683   -1.234460
Cl   -6.376907   -2.465947   -1.401651
 C   -4.242248   -0.889208   -1.976425
 C   -2.914530   -0.497131   -1.828315
 S   -0.299660    3.445759   -0.319421
 O    0.026902    2.604556   -1.482872
 O   -1.538709    4.225992   -0.346479
 C    1.108266    4.594702   -0.045054
 C   -2.357508    0.942136    1.880673
 C   -3.456383    1.998986    1.784158
 C    0.996733    5.635635   -1.165004
 C    2.418626    3.814067   -0.156591
 C    0.948627    5.249385    1.329209
 H    2.521955   -3.302979   -1.435326
 H    5.471564   -0.305874   -2.282903
 H    3.758696    1.458239   -1.938248
 H    1.448331    0.868110   -1.352681
 H    0.057859   -2.405910   -1.780727
 H    2.044482   -1.671165    1.165042
 H    1.135480   -3.816445    2.194371
 H   -0.218108   -2.868398    2.832484
 H    1.781116   -2.279314    5.497125
 H   -1.806711    1.353584   -0.124085
 H   -0.771694    2.972121    1.943929
 H    0.634984    2.048452    1.391436
 H   -0.474374    0.125912   -1.519402
 H   -1.900527   -2.772856    0.466716
 H   -4.260467   -3.489471    0.213665
 H   -4.903496   -0.361797   -2.654839
 H   -2.544440    0.351467   -2.398940
 H   -1.898612    0.932130    2.872241
 H   -2.791887   -0.049798    1.713915
 H   -3.062024    3.016848    1.878767
 H   -3.968698    1.939486    0.817690
 H   -4.201267    1.853610    2.572064
 H    0.054722    6.185335   -1.099592
 H    1.058771    5.162031   -2.149041
 H    1.825717    6.344577   -1.069283
 H    3.253068    4.508367   -0.011544
 H    2.507126    3.028626    0.600925
 H    2.513697    3.357878   -1.144830
 H    1.096508    4.534163    2.144649
 H   -0.035808    5.714271    1.435427
 H    1.708318    6.030946    1.435016
