47 
4ocz_ligand_xtb.xyz
 F   -7.470118    0.731231   -1.077822
 C   -7.037152   -0.203207   -0.220541
 F   -7.744594   -0.036359    0.912719
 F   -7.437877   -1.389761   -0.726821
 C   -5.558101   -0.159216    0.014590
 C   -5.029887   -0.862903    1.091070
 C   -3.669928   -0.853762    1.311467
 C   -4.716989    0.544948   -0.836749
 C   -3.354415    0.554837   -0.616351
 C   -2.815437   -0.146172    0.461857
 N   -1.455313   -0.183009    0.734679
 C   -0.424685    0.447118    0.056559
 O   -0.570442    1.155838   -0.912586
 N    0.793396    0.197107    0.613371
 C    2.016342    0.704232    0.027091
 C    2.745556   -0.381113   -0.772494
 C    4.052805    0.178878   -1.343225
 N    4.885136    0.684535   -0.278645
 C    4.242985    1.749909    0.466540
 C    2.947066    1.254625    1.106865
 C    6.056297    0.175690    0.187866
 O    6.562467    0.610885    1.204971
 C    6.719456   -0.945082   -0.610298
 C    6.149807   -2.289514   -0.149160
 C    8.226921   -0.900034   -0.369474
 H   -5.686163   -1.409166    1.751105
 H   -3.261610   -1.399825    2.149960
 H   -5.129691    1.089596   -1.671551
 H   -2.698867    1.102330   -1.271661
 H   -1.205662   -0.724984    1.549799
 H    0.890927   -0.467964    1.363452
 H    1.709311    1.507252   -0.651449
 H    2.109054   -0.732142   -1.585548
 H    2.966995   -1.225089   -0.114074
 H    3.818037    1.007096   -2.023370
 H    4.567382   -0.593074   -1.910897
 H    4.027079    2.577256   -0.217893
 H    4.945051    2.085982    1.230826
 H    3.184396    0.464741    1.823580
 H    2.463155    2.072292    1.641272
 H    6.535149   -0.808322   -1.679310
 H    6.314902   -2.409565    0.919304
 H    5.082347   -2.361117   -0.345271
 H    6.649057   -3.105023   -0.668302
 H    8.642128    0.033396   -0.741509
 H    8.432178   -0.960065    0.695832
 H    8.715580   -1.729219   -0.875587
