45 
4od0_ligand_ani.xyz
 F    7.050571    0.404986    1.045467
 C    6.898746   -0.674397    0.262429
 F    8.099224   -1.072543   -0.142617
 F    6.359663   -1.643134    1.016755
 O    6.158084   -0.408741   -0.833865
 C    4.836906   -0.004707   -0.613787
 C    3.829663   -0.955353   -0.671930
 C    2.500807   -0.566883   -0.558091
 C    4.549726    1.337877   -0.418102
 C    3.223030    1.727378   -0.301553
 C    2.191881    0.783750   -0.369989
 N    0.874512    1.268169   -0.244608
 C   -0.299773    0.537230   -0.182791
 O   -0.364065   -0.677565   -0.292753
 N   -1.408873    1.325938    0.044331
 C   -2.746079    0.746344   -0.047922
 C   -3.790055    1.874988   -0.105145
 C   -5.093453    1.494569    0.602884
 N   -5.385436    0.077960    0.432705
 C   -4.391283   -0.874239    0.917110
 C   -3.040296   -0.192160    1.121547
 C   -6.602359   -0.296752   -0.064000
 O   -7.454931    0.521760   -0.379061
 C   -6.845841   -1.791367   -0.229893
 C   -8.284452   -2.098231   -0.618112
 H    4.093611   -2.000384   -0.801812
 H    1.704432   -1.296127   -0.607072
 H    5.357415    2.059224   -0.353325
 H    2.989115    2.778102   -0.153350
 H    0.815888    2.252519   -0.027113
 H   -1.337605    2.300196   -0.216775
 H   -2.813253    0.145961   -0.964429
 H   -3.986488    2.128454   -1.152953
 H   -3.390940    2.772542    0.382805
 H   -5.944979    2.048541    0.208502
 H   -5.013118    1.722063    1.674880
 H   -4.271390   -1.676310    0.176831
 H   -4.712710   -1.344248    1.859159
 H   -3.023570    0.376369    2.059409
 H   -2.254899   -0.948247    1.186365
 H   -6.575707   -2.316079    0.694919
 H   -6.163459   -2.164500   -1.007596
 H   -8.980195   -1.772337    0.160525
 H   -8.554846   -1.572788   -1.537843
 H   -8.419555   -3.173134   -0.775070
