60 
4oee_ligand_ani.xyz
 N   -1.525558   -1.530097    1.072307
 C   -1.349743    0.959695    1.360209
 S   -0.968495   -2.224621    2.465726
 C   -2.256554   -0.264066    1.114492
 C   -2.995616   -0.073671   -0.203724
 O   -3.977268   -1.133638   -0.264453
 C   -3.714177    1.267800   -0.260921
 O   -4.245830    1.451315   -1.560134
 C   -2.717391    2.382262    0.082453
 O   -2.114798    2.124138    1.345547
 C   -3.376709    3.743597    0.223118
 O   -3.935163    4.095846   -1.040832
 O   -5.559617   -0.880894   -2.159899
 S   -4.349095   -1.793934   -1.683192
 O   -0.317464   -1.266339    3.322932
 O   -4.887394   -3.091472   -1.400296
 O   -2.361582   -2.558747    3.198814
 O   -3.231339   -1.619079   -2.586204
 O   -0.329507   -3.460897    2.085386
 S    5.044708   -1.554585   -1.459555
 C    3.766852    1.041860    0.155205
 O    5.098761    0.822518    0.507496
 C    3.072430   -0.289849   -0.118691
 O    3.568266   -0.932164   -1.319487
 C    1.606536   -0.051303   -0.435862
 O    0.944306   -1.280315   -0.653523
 C    0.956341    0.670009    0.729867
 O   -0.356704    1.059392    0.363523
 C    1.760570    1.935051    1.115999
 O    3.140695    1.666075    1.255557
 C    1.495229    3.062935    0.112816
 C    5.934323    1.960264    0.315693
 O    2.011159    3.166784   -0.975699
 O    0.584637    3.927071    0.570977
 O    4.891292   -2.827070   -2.101088
 O    5.454320   -1.845666    0.056666
 O    5.914231   -0.533235   -1.992645
 H   -0.828408   -1.625518    0.329173
 H   -0.890073    0.886486    2.352127
 H   -2.991857   -0.314767    1.918591
 H   -2.302242   -0.167361   -1.050545
 H   -4.530146    1.257808    0.478558
 H   -4.326830    2.413501   -1.706212
 H   -1.958134    2.417805   -0.712215
 H   -2.625007    4.475433    0.541299
 H   -4.155902    3.677896    0.994385
 H   -4.549256    4.829086   -0.923020
 H   -5.227855    0.050488   -2.189743
 H   -2.784026   -3.296112    2.725961
 H    3.702928    1.677973   -0.741369
 H    3.164991   -0.965084    0.740554
 H    1.535682    0.585813   -1.328576
 H    1.457575   -1.773309   -1.310761
 H    0.946519   -0.001645    1.600525
 H    1.412243    2.280513    2.094077
 H    5.906817    2.274275   -0.735705
 H    5.629640    2.789002    0.963216
 H    6.950653    1.652547    0.571434
 H    0.456842    4.591942   -0.127788
 H    5.630305   -0.972328    0.477193
