66 
4og4_ligand_dft.xyz
 C    2.550979   -0.869497    1.760475
 C    3.151539    0.386456    1.726002
 C    3.670618    0.890513    0.531893
 C    4.234367    2.209610    0.488002
 N    4.661260    3.285753    0.438261
 C    3.611369    0.113402   -0.634012
 C    3.016765   -1.135203   -0.604522
 C    2.472140   -1.623487    0.587568
 O    1.845062   -2.826573    0.499306
 C    0.927977   -3.197918    1.521431
 C    0.057786   -4.328745    0.970081
 C   -0.297782   -4.151125   -0.504399
 N   -0.849520   -2.799789   -0.824381
 C   -0.927530   -2.526593   -2.293998
 C   -1.038412   -1.015157   -2.521838
 C   -2.172422   -2.510336   -0.164733
 C   -2.889632   -1.343888   -0.854040
 C   -1.930250   -0.306292   -1.467310
 C   -1.131248    0.513864   -0.412922
 C   -0.226544    1.591708   -1.059792
 C    0.420742    2.585970   -0.081023
 C    1.116966    3.584657   -1.016933
 C    0.234936    3.630776   -2.293353
 C   -0.835234    2.530385   -2.110323
 O   -0.242574   -0.424255    0.230616
 C   -2.082468    1.101876    0.631611
 C   -1.839807    0.917332    1.993800
 C   -2.685114    1.468876    2.952947
 C   -3.793736    2.213168    2.566362
 C   -4.051692    2.398485    1.211416
 C   -3.205837    1.847436    0.254772
 H    2.160770   -1.247414    2.698422
 H    3.212562    0.979361    2.632345
 H    4.026660    0.499660   -1.558603
 H    2.959362   -1.747242   -1.498527
 H    0.313098   -2.327049    1.785779
 H    1.458809   -3.528169    2.420820
 H    0.587455   -5.283150    1.043885
 H   -0.838261   -4.417885    1.592675
 H    0.602246   -4.263494   -1.109478
 H   -1.032081   -4.892845   -0.829070
 H   -0.209412   -2.076183   -0.445118
 H   -1.787420   -3.080529   -2.679872
 H   -0.026022   -2.931419   -2.757356
 H   -1.447613   -0.863093   -3.524261
 H   -0.033155   -0.587621   -2.528407
 H   -2.765995   -3.427241   -0.211437
 H   -1.955932   -2.279540    0.879005
 H   -3.555893   -0.875251   -0.126970
 H   -3.526060   -1.731445   -1.656516
 H   -2.554354    0.418388   -1.994553
 H    0.595966    1.045438   -1.545849
 H   -0.360943    3.083645    0.503401
 H    1.118997    2.130524    0.631513
 H    2.123972    3.230375   -1.260072
 H    1.236283    4.564069   -0.548797
 H   -0.231928    4.608657   -2.433406
 H    0.836953    3.437965   -3.186077
 H   -1.757995    2.973637   -1.722162
 H   -1.078915    2.023752   -3.050108
 H    0.542697    0.044316    0.547020
 H   -0.981415    0.335872    2.312240
 H   -2.474337    1.314167    4.006658
 H   -4.453922    2.642597    3.312856
 H   -4.916310    2.972925    0.894157
 H   -3.440803    2.001466   -0.793645
