65 
4og5_ligand_ani.xyz
 C   -2.167851    2.356949   -1.186111
 C   -1.124556    3.262694   -1.198062
 C   -0.552737    3.706206    0.000439
 C    0.540239    4.643865   -0.014415
 N    1.426042    5.391679   -0.025846
 C   -1.042676    3.209695    1.210958
 C   -2.081580    2.289030    1.234798
 C   -2.642011    1.853586    0.032540
 O   -3.649504    0.943951   -0.053875
 C   -3.850436    0.036651    1.024957
 C   -4.412373   -1.255091    0.456184
 C   -3.546549   -1.859199   -0.651095
 N   -2.126131   -2.072617   -0.276032
 C   -1.294391   -2.385528   -1.488830
 C    0.006612   -3.092881   -1.112840
 C   -1.896124   -3.093755    0.781708
 C   -0.469365   -2.956124    1.334597
 C    0.570134   -2.606811    0.238065
 C    0.996517   -1.096412    0.268796
 C    1.869037   -0.796676    1.521385
 C    3.264519   -1.426790    1.598386
 C    3.892958   -0.741124    2.819574
 C    3.321026    0.697566    2.814108
 C    2.179822    0.691951    1.770095
 O   -0.183283   -0.300301    0.376097
 C    1.720443   -0.686145   -1.027759
 N    1.333548    0.477684   -1.574488
 C    1.942466    0.893552   -2.685917
 C    2.951221    0.185475   -3.320885
 C    3.353084   -1.018483   -2.764529
 C    2.732964   -1.459169   -1.597962
 H   -2.624549    2.003225   -2.107137
 H   -0.735998    3.639669   -2.140354
 H   -0.584282    3.534886    2.141077
 H   -2.447132    1.914770    2.187370
 H   -2.899329   -0.155255    1.538236
 H   -4.545842    0.481183    1.750191
 H   -4.564199   -1.971240    1.272443
 H   -5.399860   -1.052578    0.029653
 H   -3.564018   -1.193603   -1.517858
 H   -3.966918   -2.823378   -0.970177
 H   -1.718269   -1.184234    0.068105
 H   -1.094521   -1.437282   -1.995753
 H   -1.882284   -3.015066   -2.167043
 H    0.730849   -2.971430   -1.923591
 H   -0.176633   -4.171870   -1.033383
 H   -2.628093   -2.954279    1.580397
 H   -2.065615   -4.091266    0.358428
 H   -0.476769   -2.190419    2.117012
 H   -0.193699   -3.897927    1.821437
 H    1.481023   -3.188393    0.428043
 H    1.295925   -1.148389    2.388911
 H    3.250155   -2.519666    1.684225
 H    3.840195   -1.159135    0.704198
 H    4.987290   -0.763933    2.792878
 H    3.587331   -1.261842    3.734251
 H    4.082551    1.436883    2.544257
 H    2.954140    0.970404    3.809163
 H    1.295618    1.253992    2.092005
 H    2.535590    1.152905    0.841099
 H    0.006158    0.514471   -0.129589
 H    1.600927    1.844872   -3.093248
 H    3.407116    0.569440   -4.227112
 H    4.137994   -1.610784   -3.226452
 H    3.040850   -2.399340   -1.144010
