21 
4oi6_ligand_xtb.xyz
 C   -2.440980   -0.685838   -0.020175
 O   -2.639474   -1.274106   -1.052343
 O   -3.260682    0.250800    0.426854
 C   -1.187841   -0.968993    0.801538
 C   -0.000013   -0.276801    0.097375
 O    0.159510   -0.721935   -1.224861
 C    1.310740   -0.585951    0.858691
 C    2.559217   -0.226962    0.062074
 O    3.678797   -0.814610    0.486535
 O    2.584875    0.535034   -0.862419
 C   -0.268618    1.259699    0.126031
 O   -1.034227    1.729353    0.935077
 O    0.352853    1.966684   -0.776112
 H   -2.833675    0.842789    1.073818
 H   -1.019631   -2.047240    0.802195
 H   -1.279121   -0.601593    1.823017
 H   -0.699085   -0.992560   -1.590680
 H    1.333188   -1.656017    1.083059
 H    1.329174   -0.029802    1.800420
 H    3.551310   -1.415285    1.232753
 H    1.049599    1.439019   -1.239622
