55 
4oks_ligand_ani.xyz
 O    5.243295   -2.558528   -2.514923
 N    5.800879   -2.166826   -1.503731
 O    7.009176   -2.136579   -1.344541
 C    4.957731   -1.698088   -0.398162
 C    5.554567   -1.256501    0.770926
 C    4.744662   -0.815253    1.810891
 C    3.577020   -1.705259   -0.556712
 C    2.755703   -1.256281    0.467047
 C    3.354072   -0.817968    1.664647
 O    2.498155   -0.402452    2.633038
 C    3.054144    0.063791    3.840220
 C    1.256399   -1.194121    0.284733
 N    0.772791    0.124164   -0.103416
 C   -0.563757    0.433610   -0.271267
 C   -0.644184    1.780627   -0.687714
 C    0.702265    2.282762   -0.770528
 C    1.133586    3.649136   -1.211070
 C    0.501939    4.841901   -0.491538
 O   -0.163411    4.588939    0.649413
 O    0.608348    5.962831   -0.909785
 C    1.510477    1.238550   -0.427381
 C   -1.691255   -0.369635   -0.104611
 C   -2.941279    0.186676   -0.343667
 C   -3.029654    1.536602   -0.755126
 C   -1.913028    2.325861   -0.931861
 C   -4.177433   -0.631943   -0.178655
 C   -5.320341   -0.077513    0.398238
 C   -6.477781   -0.843957    0.559126
 N   -7.637015   -0.272297    1.086479
 C   -6.486876   -2.171158    0.126338
 C   -5.351049   -2.735615   -0.457087
 N   -5.352585   -4.080570   -0.830970
 C   -4.196380   -1.961144   -0.600899
 H    6.634836   -1.260472    0.860851
 H    5.207257   -0.469118    2.728533
 H    3.158993   -2.060962   -1.492428
 H    3.640271   -0.719164    4.339130
 H    3.696199    0.938689    3.672764
 H    2.212818    0.346427    4.474379
 H    0.756669   -1.475060    1.217180
 H    0.953920   -1.916628   -0.484056
 H    0.926039    3.805432   -2.276429
 H    2.218727    3.766468   -1.093588
 H   -0.161433    3.634835    0.823678
 H    2.590814    1.203665   -0.381915
 H   -1.595240   -1.404722    0.217103
 H   -4.009043    1.962303   -0.955451
 H   -2.017449    3.361773   -1.241904
 H   -5.311582    0.954416    0.740783
 H   -7.479778    0.519945    1.693471
 H   -8.282988   -0.931800    1.497427
 H   -7.386944   -2.771153    0.244985
 H   -6.266547   -4.459953   -1.035421
 H   -4.682168   -4.321977   -1.547356
 H   -3.313661   -2.398418   -1.061198
