55 
4oks_ligand_xtb.xyz
 O    6.034205   -3.026689   -1.203796
 N    6.022226   -2.466353   -0.126092
 O    6.971673   -2.403827    0.627555
 C    4.800861   -1.838827    0.284893
 C    4.739662   -1.166854    1.498188
 C    3.558553   -0.572607    1.890217
 C    3.685034   -1.900491   -0.546425
 C    2.498822   -1.316600   -0.163728
 C    2.424213   -0.649582    1.080228
 O    1.226076   -0.126793    1.394663
 C    1.077124    0.632404    2.575532
 C    1.289164   -1.342548   -1.065565
 N    0.759530   -0.015875   -1.247846
 C   -0.516949    0.398493   -0.988058
 C   -0.542780    1.812594   -1.079765
 C    0.788687    2.226364   -1.399239
 C    1.288353    3.631542   -1.467233
 C    1.684997    4.119671   -0.075746
 O    0.854523    3.746005    0.909924
 O    2.656558    4.781320    0.148194
 C    1.535219    1.086561   -1.480873
 C   -1.661437   -0.327060   -0.688628
 C   -2.845102    0.359528   -0.472104
 C   -2.871712    1.762418   -0.565444
 C   -1.747094    2.490635   -0.867983
 C   -4.077488   -0.379262   -0.155271
 C   -4.933601    0.077722    0.838496
 C   -6.099820   -0.621801    1.142587
 N   -6.906910   -0.210433    2.187373
 C   -6.409815   -1.774688    0.428728
 C   -5.560495   -2.240771   -0.569224
 N   -5.838006   -3.426379   -1.225872
 C   -4.393259   -1.536508   -0.856058
 H    5.620305   -1.117397    2.119564
 H    3.521762   -0.048338    2.830745
 H    3.770425   -2.413642   -1.492780
 H    1.303808    0.039286    3.465499
 H    1.704030    1.527832    2.554354
 H    0.029088    0.926405    2.596541
 H    0.506271   -1.956335   -0.612033
 H    1.563668   -1.781915   -2.031677
 H    0.507120    4.299195   -1.841480
 H    2.158140    3.718885   -2.117938
 H    0.129477    3.193443    0.568791
 H    2.581339    0.982405   -1.698281
 H   -1.642757   -1.403118   -0.606216
 H   -3.812201    2.271077   -0.416553
 H   -1.799022    3.567492   -0.953729
 H   -4.686732    0.966015    1.401304
 H   -6.821335    0.755716    2.458540
 H   -7.852683   -0.556605    2.179821
 H   -7.316621   -2.317805    0.656461
 H   -6.798578   -3.728956   -1.203738
 H   -5.388080   -3.549714   -2.118714
 H   -3.746409   -1.882771   -1.648902
