19 
4olc_ligand_xtb.xyz
 C    1.568965   -2.151904   -0.715362
 C    1.339506   -1.190925    0.446378
 N    0.597019   -0.010236    0.037145
 C   -0.741231   -0.056244    0.045187
 S   -1.679259    1.398576   -0.375322
 S   -1.615870   -1.399800    0.397899
 C    1.385006    1.094342   -0.468760
 C    1.854718    2.032847    0.643370
 H    0.613895   -2.504877   -1.094577
 H    2.109721   -1.665687   -1.524551
 H    2.145271   -3.007045   -0.374830
 H    2.292171   -0.858295    0.863944
 H    0.767119   -1.697159    1.227089
 H   -0.813855    2.340019    0.008384
 H    0.804828    1.643907   -1.214724
 H    2.256650    0.672126   -0.975883
 H    1.011839    2.441969    1.196647
 H    2.491765    1.502505    1.346875
 H    2.421752    2.855082    0.215492
