58 
4olh_ligand_xtb.xyz
 C   -5.362469   -0.852081    1.795796
 C   -5.655686    0.146979    2.693584
 C   -5.853633    1.451595    2.198791
 N   -6.097476    2.492478    3.026538
 N   -5.782024    1.741439    0.896468
 C   -5.502026    0.771843    0.048124
 C   -5.280890   -0.533589    0.444540
 S   -4.828089   -1.785473   -0.737435
 O   -5.106658   -3.076564   -0.182336
 O   -5.358642   -1.442456   -2.022197
 N   -3.164066   -1.665868   -0.860959
 C   -2.408063   -2.062153    0.301813
 C   -0.953165   -2.297346   -0.107993
 C   -2.665584   -0.462850   -1.480681
 C   -1.204108   -0.690042   -1.868846
 N   -0.446370   -1.075473   -0.698522
 C    0.822748   -0.669456   -0.435180
 N    1.595746   -1.545431    0.212700
 C    2.866098   -1.288041    0.428695
 C    3.481442   -0.127326   -0.023158
 C    4.960899    0.137672    0.165378
 C    5.232211    0.483251    1.653049
 F    4.864928   -0.470620    2.506265
 F    4.574770    1.593647    1.994685
 F    6.535744    0.727840    1.863614
 C    5.801103   -1.102554   -0.235369
 F    5.387341   -1.610869   -1.396356
 F    5.783874   -2.089602    0.659784
 F    7.087811   -0.756013   -0.404074
 O    5.358184    1.219484   -0.619186
 C    2.667963    0.850554   -0.593974
 C    1.317804    0.619859   -0.773557
 C    0.456243    1.742861   -1.166176
 C    0.745261    2.559533   -2.257300
 C   -0.089446    3.628200   -2.536724
 C   -1.181983    3.847870   -1.710914
 N   -1.449040    3.098915   -0.653497
 C   -0.652061    2.085468   -0.386155
 H   -5.212486   -1.875604    2.102793
 H   -5.737366   -0.049670    3.751132
 H   -6.328922    2.335020    3.990065
 H   -6.326976    3.374622    2.604078
 H   -5.468428    1.038936   -0.998328
 H   -2.858563   -2.980108    0.678839
 H   -2.447377   -1.285759    1.083463
 H   -0.910526   -3.118103   -0.832905
 H   -0.338252   -2.548952    0.754485
 H   -2.739847    0.401577   -0.802525
 H   -3.277176   -0.279693   -2.364150
 H   -0.788778    0.205507   -2.325219
 H   -1.165192   -1.510393   -2.598889
 H    3.399168   -2.052343    0.976113
 H    6.306636    1.392941   -0.522351
 H    3.093565    1.806482   -0.855279
 H    1.601575    2.344980   -2.880779
 H    0.103407    4.275669   -3.377816
 H   -1.871571    4.660494   -1.893319
 H   -0.890083    1.514903    0.502480
