58 
4olh_ligand_ani.xyz
 C   -5.510784   -1.091970    1.553951
 C   -6.028553   -0.249557    2.516416
 C   -6.463955    1.030625    2.118577
 N   -6.938518    1.931258    3.050994
 N   -6.402653    1.456924    0.853474
 C   -5.905243    0.628374   -0.066389
 C   -5.437172   -0.640980    0.235203
 S   -4.769824   -1.687141   -1.023902
 O   -5.022675   -3.058158   -0.620397
 O   -5.202489   -1.169474   -2.309731
 N   -3.122549   -1.470133   -0.947313
 C   -2.437570   -1.952050    0.252959
 C   -0.950636   -2.111287   -0.028340
 C   -2.559837   -0.253458   -1.534489
 C   -1.079618   -0.478973   -1.806780
 N   -0.421551   -0.857650   -0.553244
 C    0.903360   -0.543940   -0.301748
 N    1.676064   -1.520697    0.175603
 C    2.980142   -1.305036    0.334111
 C    3.591637   -0.098746    0.039791
 C    5.071989    0.116732    0.244676
 C    5.412412    0.068598    1.749592
 F    5.235603   -1.155024    2.266648
 F    4.628017    0.909807    2.429863
 F    6.688554    0.426986    1.960949
 C    5.899489   -0.921976   -0.543032
 F    5.486742   -0.985802   -1.811997
 F    5.805603   -2.153058   -0.021595
 F    7.198347   -0.578003   -0.545224
 O    5.424441    1.386469   -0.229428
 C    2.785214    0.945132   -0.388504
 C    1.414153    0.773564   -0.509839
 C    0.557295    1.954178   -0.780105
 C    0.910867    2.888298   -1.752795
 C    0.072280    3.965970   -1.996630
 C   -1.086709    4.092322   -1.235303
 N   -1.429911    3.233121   -0.276168
 C   -0.613784    2.203047   -0.053476
 H   -5.173895   -2.094839    1.806091
 H   -6.095704   -0.554005    3.556668
 H   -7.369879    1.542199    3.875580
 H   -7.439828    2.710415    2.648900
 H   -5.881472    0.987815   -1.092891
 H   -2.865046   -2.918996    0.530624
 H   -2.582255   -1.250727    1.088470
 H   -0.788984   -2.931418   -0.745587
 H   -0.417023   -2.367225    0.887624
 H   -2.690269    0.601889   -0.857529
 H   -3.090872   -0.044386   -2.465407
 H   -0.629090    0.418476   -2.232500
 H   -0.968221   -1.282415   -2.552828
 H    3.560754   -2.135469    0.720804
 H    6.378099    1.506641   -0.106818
 H    3.238410    1.910190   -0.598206
 H    1.825463    2.753102   -2.328277
 H    0.315351    4.700556   -2.758342
 H   -1.767547    4.924976   -1.398434
 H   -0.896849    1.539673    0.762648
