99 
4omd_ligand_ani.xyz
 C   -7.448883   -0.924466    0.578054
 C   -7.944029   -2.205689    0.338612
 C   -8.407719   -2.565847   -0.925770
 C   -8.377581   -1.643441   -1.967820
 C   -7.887115   -0.361457   -1.737400
 C   -7.431408   -0.005443   -0.472910
 C   -6.884452   -0.535095    1.924236
 C   -5.369071   -0.357906    1.912124
 O   -4.812666    0.616771    2.412767
 N   -4.671762   -1.371656    1.336850
 C   -3.222631   -1.328596    1.252683
 C   -2.790683   -0.447525    0.063067
 O   -2.347329   -0.927699   -0.977369
 C   -2.606779   -2.721466    1.141518
 C   -1.070503   -2.661596    1.239839
 C   -0.341029   -3.404948    0.113335
 N    1.075790   -3.071061    0.017806
 C    1.445046   -1.779276   -0.321758
 N    2.751224   -1.476789    0.033686
 N    0.689137   -0.893333   -0.870642
 N   -2.934989    0.882003    0.261416
 C   -2.564126    1.865979   -0.742242
 C   -1.342545    2.672800   -0.259245
 O   -1.387233    3.866679   -0.004165
 C   -3.734228    2.764930   -1.174281
 C   -4.488584    3.379313    0.006575
 C   -4.675837    1.978852   -2.089914
 N   -0.201005    1.937292   -0.149346
 C    1.063506    2.504927    0.267783
 C    2.100420    2.578782   -0.862802
 O    2.911484    3.497032   -0.902140
 C    1.602246    1.712586    1.473752
 C    3.055504    2.000518    1.840092
 C    3.468426    1.295411    3.136690
 N    4.905400    1.137116    3.306754
 C    5.597466    0.210103    2.531296
 N    5.093396   -0.733691    1.823489
 N    6.967815    0.406941    2.568502
 N    2.092817    1.565906   -1.772163
 C    3.110666    1.504722   -2.809538
 C    4.233808    0.567458   -2.422960
 C    4.304192   -0.739051   -2.914357
 C    5.260237   -1.628193   -2.438577
 C    6.169348   -1.241561   -1.451322
 C    7.138239   -2.226521   -0.879422
 N    7.293030   -2.135067    0.498075
 N    7.805659   -3.085623   -1.548150
 C    6.132740    0.079028   -0.991917
 C    5.176214    0.965125   -1.469329
 H   -7.966705   -2.930843    1.150754
 H   -8.789078   -3.569666   -1.094794
 H   -8.735756   -1.923683   -2.954673
 H   -7.860037    0.364656   -2.547004
 H   -7.059095    1.003129   -0.294874
 H   -7.139868   -1.299818    2.669127
 H   -7.299647    0.411899    2.279726
 H   -5.167574   -2.024641    0.743904
 H   -2.884976   -0.842559    2.176108
 H   -3.024763   -3.351773    1.933567
 H   -2.915085   -3.156859    0.182797
 H   -0.751963   -1.613558    1.185588
 H   -0.725071   -3.032853    2.212609
 H   -0.809218   -3.167875   -0.849748
 H   -0.419996   -4.489812    0.240570
 H    1.630460   -3.443278    0.780102
 H    3.418485   -2.225730   -0.106543
 H    3.090682   -0.628638   -0.404882
 H   -0.230362   -1.257374   -1.094673
 H   -3.361648    1.192526    1.129402
 H   -2.243076    1.272779   -1.608912
 H   -3.284538    3.584840   -1.747953
 H   -5.001078    2.618979    0.611918
 H   -5.252699    4.072179   -0.364303
 H   -3.806960    3.939312    0.653539
 H   -5.550297    2.582344   -2.356567
 H   -5.036154    1.063146   -1.603186
 H   -4.173053    1.682219   -3.017471
 H   -0.199504    0.938609   -0.352073
 H    0.884164    3.544490    0.559554
 H    1.496484    0.639921    1.260312
 H    0.939441    1.928639    2.321619
 H    3.699734    1.651586    1.021666
 H    3.224485    3.081709    1.921089
 H    3.016098    0.296619    3.189947
 H    3.085141    1.844028    4.004262
 H    5.402808    2.017469    3.378878
 H    4.079537   -0.745949    1.832928
 H    7.493121   -0.355596    2.152694
 H    7.333941    0.682739    3.468342
 H    1.520690    0.729488   -1.607881
 H    2.642287    1.180023   -3.745949
 H    3.490840    2.521635   -2.948737
 H    3.592241   -1.067909   -3.669411
 H    5.279758   -2.647675   -2.819543
 H    7.755511   -2.960222    0.867682
 H    6.438619   -1.866504    1.002920
 H    7.596161   -2.998622   -2.542582
 H    6.835381    0.408290   -0.232729
 H    5.137353    1.976919   -1.072380
