99 
4omd_ligand_dft.xyz
 C   -7.411262   -0.693963    0.568678
 C   -7.733145   -2.045891    0.717929
 C   -8.206361   -2.787535   -0.361910
 C   -8.367194   -2.183434   -1.605178
 C   -8.057164   -0.834785   -1.762348
 C   -7.583592   -0.096965   -0.682747
 C   -6.831538    0.097143    1.715399
 C   -5.306655    0.085377    1.805968
 O   -4.694779    1.009071    2.332734
 N   -4.678878   -1.020305    1.325104
 C   -3.228335   -1.113427    1.336259
 C   -2.678780   -0.400236    0.087662
 O   -2.411862   -1.016119   -0.941627
 C   -2.733142   -2.554333    1.408350
 C   -1.197269   -2.589326    1.564124
 C   -0.461348   -3.262806    0.394987
 N    0.951233   -2.916000    0.336005
 C    1.333943   -1.633580   -0.001212
 N    2.616022   -1.297783    0.406034
 N    0.610779   -0.755985   -0.609792
 N   -2.539522    0.935041    0.233600
 C   -2.234506    1.828179   -0.873984
 C   -1.029058    2.733046   -0.553344
 O   -0.945630    3.874780   -0.974734
 C   -3.465833    2.621260   -1.344657
 C   -4.056889    3.507475   -0.244512
 C   -4.519616    1.668814   -1.912786
 N   -0.066063    2.133414    0.195208
 C    1.250533    2.716658    0.360217
 C    2.141632    2.649167   -0.895120
 O    3.025768    3.482183   -1.060269
 C    1.918138    2.025965    1.567112
 C    3.435715    2.171961    1.653210
 C    3.978598    1.683219    3.000924
 N    5.402162    1.382354    2.977118
 C    5.856303    0.227989    2.360910
 N    5.166192   -0.809419    2.038944
 N    7.212893    0.265262    2.075960
 N    1.908961    1.610530   -1.731123
 C    2.792994    1.331740   -2.849422
 C    3.838444    0.305859   -2.466527
 C    3.709480   -1.032172   -2.835557
 C    4.605824   -1.986480   -2.362780
 C    5.642602   -1.623398   -1.501114
 C    6.558556   -2.677449   -0.959891
 N    6.877294   -2.529984    0.374667
 N    7.038343   -3.658249   -1.632157
 C    5.784284   -0.277975   -1.144081
 C    4.899078    0.674908   -1.630972
 H   -7.614753   -2.520259    1.689740
 H   -8.453035   -3.836581   -0.228480
 H   -8.736221   -2.759718   -2.447950
 H   -8.183615   -0.355361   -2.728173
 H   -7.341672    0.954699   -0.811655
 H   -7.205634   -0.281695    2.674419
 H   -7.118921    1.149946    1.658304
 H   -5.199777   -1.661245    0.741440
 H   -2.898387   -0.574650    2.229335
 H   -3.227494   -3.044218    2.252655
 H   -3.036555   -3.082495    0.496821
 H   -0.816677   -1.562993    1.643705
 H   -0.918861   -3.084972    2.500692
 H   -0.932105   -2.981683   -0.550433
 H   -0.533175   -4.352329    0.465992
 H    1.521712   -3.342562    1.053637
 H    3.296827   -2.048094    0.382818
 H    2.978519   -0.497860   -0.101842
 H   -0.326319   -1.082920   -0.832706
 H   -2.919124    1.338545    1.084731
 H   -1.908006    1.173648   -1.691277
 H   -3.103397    3.275337   -2.144517
 H   -4.461247    2.914195    0.584927
 H   -4.881405    4.104104   -0.649346
 H   -3.306646    4.200104    0.146710
 H   -5.375812    2.231243   -2.301719
 H   -4.893003    0.988320   -1.137798
 H   -4.117472    1.052517   -2.723644
 H   -0.119463    1.124685    0.297008
 H    1.132324    3.784542    0.555375
 H    1.687744    0.952519    1.528326
 H    1.441903    2.414705    2.475938
 H    3.901272    1.580933    0.856001
 H    3.737944    3.209636    1.475714
 H    3.448355    0.783002    3.330833
 H    3.807407    2.433585    3.779824
 H    5.978153    2.187683    2.766612
 H    4.165565   -0.667787    2.143931
 H    7.566783   -0.609992    1.706266
 H    7.803279    0.671802    2.788761
 H    1.309589    0.839935   -1.414548
 H    2.192298    0.970006   -3.689812
 H    3.260150    2.275440   -3.138940
 H    2.882468   -1.337353   -3.471466
 H    4.477884   -3.031475   -2.633019
 H    7.346667   -3.344329    0.750637
 H    6.164920   -2.109134    0.982662
 H    6.781538   -3.563241   -2.614038
 H    6.588829    0.020911   -0.479996
 H    5.006139    1.719424   -1.349812
