49 
4ona_ligand_xtb.xyz
 C    8.326526   -0.965266   -0.276095
 C    6.818699   -1.078379   -0.434958
 O    6.227880   -0.029920    0.309129
 C    4.877471    0.081054    0.323426
 C    4.000987   -0.751050   -0.330726
 C    4.381911    1.162819    1.092653
 C    3.044490    1.395589    1.191873
 C    2.119426    0.562337    0.526950
 C    0.727980    0.751238    0.580697
 C    2.613592   -0.528585   -0.239142
 N    1.785227   -1.376002   -0.885473
 C    0.502328   -1.173184   -0.815809
 C   -0.101809   -0.105659   -0.110512
 C   -1.553783    0.020460   -0.098861
 N   -2.297234   -1.056700    0.060046
 N   -3.582959   -0.661079    0.086318
 C   -4.642846   -1.652246    0.235706
 C   -3.991602   -3.034111    0.290294
 C   -5.405018   -1.406198    1.543952
 C   -5.578580   -1.572713   -0.974603
 C   -3.678909    0.678911   -0.049436
 N   -4.824689    1.410283   -0.155426
 C   -2.374934    1.176578   -0.189914
 C   -2.110746    2.589059   -0.426556
 O   -2.969687    3.450045   -0.260979
 N   -0.868323    2.922052   -0.855018
 H    8.667304   -0.001309   -0.643953
 H    8.596631   -1.050287    0.772906
 H    8.817383   -1.755612   -0.836533
 H    6.466717   -2.048761   -0.059395
 H    6.538219   -0.989910   -1.493454
 H    4.324021   -1.589413   -0.925206
 H    5.103240    1.790092    1.592601
 H    2.672467    2.223341    1.778588
 H    0.321974    1.556751    1.178158
 H   -0.128182   -1.878188   -1.340801
 H   -3.398544   -3.206731   -0.602341
 H   -3.332432   -3.107628    1.149842
 H   -4.760929   -3.798185    0.360814
 H   -4.704886   -1.298598    2.369458
 H   -6.025986   -0.515169    1.495772
 H   -6.054647   -2.252517    1.751235
 H   -5.992745   -0.575355   -1.090925
 H   -5.032331   -1.821775   -1.881249
 H   -6.395110   -2.279979   -0.855426
 H   -5.611763    1.143749    0.412465
 H   -4.603100    2.405083   -0.144276
 H   -0.688161    3.887096   -1.074161
 H   -0.179926    2.228509   -1.086070
