14 
4oow_ligand_ani.xyz
 C   -1.906375   -0.654656    0.000496
 C   -0.720653   -1.387094    0.000060
 C    0.501883   -0.729049   -0.000217
 O    1.656937   -1.441403   -0.000374
 C    0.532021    0.674434   -0.000190
 O    1.789295    1.224132    0.000295
 C   -0.648238    1.400376   -0.000701
 C   -1.873290    0.732910   -0.000067
 H   -2.857490   -1.180042    0.001404
 H   -0.728522   -2.473446    0.000052
 H    2.392105   -0.810183    0.000869
 H    1.723148    2.186813    0.003466
 H   -0.614927    2.488605   -0.001650
 H   -2.796262    1.304897    0.000205
