14 
4oow_ligand_xtb.xyz
 C   -1.904927   -0.639189    0.000464
 C   -0.734344   -1.378840    0.000019
 C    0.495160   -0.739637   -0.000263
 O    1.644330   -1.463259   -0.000219
 C    0.539405    0.660909   -0.000254
 O    1.788079    1.241355    0.000376
 C   -0.633397    1.392562   -0.000598
 C   -1.857501    0.742118   -0.000075
 H   -2.856375   -1.148185    0.001316
 H   -0.751441   -2.456752    0.000126
 H    2.384990   -0.841426    0.000141
 H    1.692660    2.199398    0.002523
 H   -0.587444    2.473727   -0.001136
 H   -2.768043    1.320928    0.000017
