48 
4oq3_ligand_ani.xyz
Cl    0.915103   -4.224392   -1.742388
 C    0.372374   -3.180458   -0.460111
 C    0.535846   -1.807053   -0.576757
 C    0.093058   -0.973577    0.447421
 C   -0.490099   -1.495756    1.614975
 C   -0.636262   -2.881011    1.688234
 C   -0.217204   -3.730570    0.668633
 C   -0.929666   -0.616884    2.759121
 N    0.256727    0.443145    0.283033
 C    1.446892    1.110030    0.112957
 N    1.243991    2.359164   -0.224291
 C   -0.099579    2.555328   -0.240955
 C   -0.756373    1.380456    0.071838
 C   -2.197172    1.096198    0.141875
 C   -2.761288   -0.027865   -0.477718
 C   -4.126165   -0.253290   -0.396168
 C   -4.964490    0.611276    0.296435
 C   -4.407508    1.729726    0.903555
 C   -3.042715    1.977587    0.821166
Cl   -4.809875   -1.651868   -1.177999
 C   -0.614692    3.904448   -0.621777
 O   -1.780021    4.196099   -0.725862
 O    0.367767    4.783425   -0.851464
 C    2.794239    0.540483    0.308807
 C    3.832991    1.100270   -0.434697
 C    5.144458    0.643905   -0.315818
 C    5.412788   -0.372938    0.598112
 C    4.390775   -0.921691    1.370194
 C    3.088176   -0.471486    1.230160
 C    6.243514    1.249120   -1.155945
 H    1.005356   -1.375870   -1.456718
 H   -1.090405   -3.306624    2.581128
 H   -0.341322   -4.806284    0.750383
 H   -0.117654    0.045935    3.075423
 H   -1.771134    0.019923    2.467942
 H   -1.238517   -1.225878    3.612450
 H   -2.133325   -0.716357   -1.032281
 H   -6.029751    0.409804    0.351857
 H   -5.042023    2.424874    1.443610
 H   -2.635716    2.870633    1.284680
 H    1.209701    4.308707   -0.718563
 H    3.594624    1.914546   -1.116370
 H    6.432297   -0.736203    0.710080
 H    4.614543   -1.710069    2.083663
 H    2.292543   -0.903261    1.830298
 H    6.040610    1.116549   -2.224996
 H    6.331196    2.325882   -0.971374
 H    7.211722    0.790257   -0.938449
