48 
4oq3_ligand_dft.xyz
Cl    0.802659   -4.257488   -1.535936
 C    0.306448   -3.132543   -0.299742
 C    0.461723   -1.771383   -0.514240
 C    0.066933   -0.882708    0.480894
 C   -0.471394   -1.316412    1.696332
 C   -0.620813   -2.694195    1.866790
 C   -0.242137   -3.603869    0.887392
 C   -0.867647   -0.350584    2.779786
 N    0.244455    0.515112    0.233397
 C    1.450562    1.172924    0.125107
 N    1.257138    2.442331   -0.143860
 C   -0.099378    2.627017   -0.203107
 C   -0.765053    1.442834    0.021267
 C   -2.196902    1.101297    0.052114
 C   -2.673453   -0.040207   -0.600561
 C   -4.021601   -0.361122   -0.520730
 C   -4.916146    0.434711    0.183926
 C   -4.438558    1.579676    0.814566
 C   -3.091992    1.914253    0.755186
Cl   -4.598844   -1.799609   -1.330163
 C   -0.613386    3.984755   -0.513939
 O   -1.779811    4.291083   -0.564194
 O    0.366669    4.871113   -0.736906
 C    2.777992    0.550676    0.269726
 C    3.808338    1.020735   -0.546897
 C    5.100313    0.502773   -0.456227
 C    5.346352   -0.504880    0.476915
 C    4.329783   -0.974208    1.304093
 C    3.047702   -0.450686    1.208843
 C    6.192153    1.026708   -1.355029
 H    0.887687   -1.395995   -1.437978
 H   -1.039583   -3.066060    2.797374
 H   -0.365330   -4.669517    1.044653
 H   -0.154237    0.475718    2.860115
 H   -1.851092    0.086656    2.574977
 H   -0.918218   -0.856875    3.747130
 H   -2.008287   -0.674136   -1.174394
 H   -5.965617    0.165883    0.230430
 H   -5.127322    2.217695    1.358658
 H   -2.730686    2.814419    1.236340
 H    1.214870    4.400258   -0.627546
 H    3.588391    1.806922   -1.263872
 H    6.345316   -0.924960    0.560476
 H    4.540292   -1.750441    2.033320
 H    2.267578   -0.813485    1.869080
 H    5.939191    0.877772   -2.410457
 H    6.343597    2.101075   -1.204120
 H    7.143563    0.522672   -1.163276
