48 
4oq3_ligand_xtb.xyz
Cl    1.379130   -4.098095   -1.456250
 C    0.628180   -3.066079   -0.295272
 C    0.684526   -1.695421   -0.466408
 C    0.088680   -0.860891    0.473242
 C   -0.556143   -1.382131    1.597070
 C   -0.605123   -2.765474    1.728299
 C   -0.026144   -3.609123    0.799919
 C   -1.164838   -0.500760    2.642476
 N    0.180680    0.531991    0.262455
 C    1.345927    1.247935    0.154835
 N    1.096243    2.506340   -0.100976
 C   -0.262313    2.638087   -0.153588
 C   -0.859367    1.407329    0.063543
 C   -2.256929    1.004126    0.046808
 C   -2.636547   -0.182580   -0.578660
 C   -3.964197   -0.568815   -0.559713
 C   -4.930078    0.209510    0.057261
 C   -4.549184    1.398232    0.657814
 C   -3.225900    1.796668    0.660400
Cl   -4.413814   -2.056449   -1.319700
 C   -0.815560    3.967399   -0.466794
 O   -1.987080    4.232679   -0.540537
 O    0.142394    4.880810   -0.667775
 C    2.682142    0.693205    0.307084
 C    3.701296    1.197998   -0.496196
 C    4.995282    0.708171   -0.403787
 C    5.262310   -0.298502    0.516536
 C    4.260814   -0.789195    1.336306
 C    2.972177   -0.299878    1.240196
 C    6.070594    1.242884   -1.298473
 H    1.187531   -1.268982   -1.320633
 H   -1.103911   -3.189022    2.586889
 H   -0.073877   -4.678887    0.924886
 H   -0.647566    0.454195    2.707408
 H   -2.210339   -0.300607    2.407030
 H   -1.125598   -0.988437    3.613553
 H   -1.912913   -0.796099   -1.091554
 H   -5.960863   -0.107497    0.059261
 H   -5.294896    2.017729    1.131268
 H   -2.937644    2.723229    1.127836
 H    1.010133    4.450303   -0.548342
 H    3.464800    1.978824   -1.203308
 H    6.263900   -0.695072    0.597635
 H    4.486637   -1.557901    2.060319
 H    2.204805   -0.673030    1.901243
 H    5.999397    0.779646   -2.282886
 H    5.965172    2.317638   -1.427296
 H    7.056261    1.028818   -0.893391
