178 
4oru_ligand_xtb.xyz
 O   -8.437264    3.928913   -1.167860
 C   -9.280489    3.601333   -0.093340
 C  -10.293538    4.724617    0.102995
 O  -11.364442    4.550118   -0.793779
 C  -12.254889    5.635800   -0.789683
 C  -13.416609    5.341149   -1.730075
 O  -14.354464    4.532465   -1.062278
 C  -15.475655    4.212454   -1.851482
 C  -16.411513    3.302659   -1.047813
 O  -16.119802    1.935897   -1.170034
 C  -14.900215    1.537379   -0.566333
 C  -14.751989    0.021624   -0.720283
 O  -15.367784   -0.720760    0.305668
 C  -16.781154   -0.668937    0.315731
 C  -17.300522   -1.594338    1.420129
 O  -17.462891   -2.947798    1.052668
 C  -16.355946   -3.591350    0.460347
 C  -15.107830   -3.661144    1.356484
 O  -14.053495   -4.378441    0.742897
 C  -13.330836   -3.674910   -0.242830
 C  -12.295939   -2.699177    0.350248
 O  -11.799283   -1.785843   -0.599986
 C  -10.970246   -2.349191   -1.591697
 C  -10.172234   -1.228332   -2.249663
 O   -9.062629   -0.927207   -1.437060
 C   -8.346444    0.201807   -1.873803
 C   -7.222552    0.456533   -0.875152
 O   -6.630787    1.707548   -1.179424
 C   -5.559284    2.063523   -0.331805
 C   -4.266444    1.280536   -0.610565
 O   -4.251079   -0.047699   -0.140181
 C   -4.107140   -0.187506    1.255819
 C   -3.767625   -1.645491    1.552550
 O   -3.650792   -1.780719    2.948935
 C   -3.461645   -3.094430    3.408551
 C   -2.065825   -3.671111    3.144898
 O   -1.135877   -2.961047    3.929533
 C    0.182519   -3.436808    3.860142
 C    0.886141   -3.120175    2.531893
 O    2.272933   -3.249063    2.751333
 C    3.061411   -3.226369    1.585689
 C    3.092398   -1.852962    0.886149
 O    4.133894   -1.778662   -0.062850
 C    5.389644   -1.379285    0.445601
 C    5.524647    0.148766    0.492482
 O    6.820342    0.459506    0.944407
 C    7.082935    1.843685    0.984044
 C    8.544246    2.033533    1.379209
 O    8.790888    3.419538    1.506523
 C   10.156237    3.758324    1.562075
 C   10.832024    3.293731    2.867626
 O   11.968575    4.040814    3.226859
 C   13.190560    3.665862    2.631519
 C   13.451436    4.330229    1.265800
 O   14.829309    4.447195    0.981372
 C   15.411790    3.400319    0.246289
 C   15.672732    2.109405    1.034247
 O   14.506864    1.307591    1.007455
 C   14.648577    0.016842    1.538382
 C   15.384260   -0.963008    0.616532
 O   14.674861   -1.073832   -0.596389
 C   15.244298   -2.008721   -1.484284
 C   14.385350   -2.123947   -2.737512
 O   13.276892   -2.946007   -2.464985
 C   12.476732   -3.196449   -3.595273
 C   11.424124   -4.256564   -3.239203
 O   10.279320   -3.768866   -2.594165
 C    9.321038   -3.176628   -3.437908
 C    8.040716   -2.911529   -2.632393
 O    8.199760   -2.174942   -1.451627
 C    8.558108   -0.817407   -1.581999
 C   10.065852   -0.587763   -1.768026
 O   10.451588    0.532693   -0.996064
 C   11.846785    0.684789   -0.867164
 C   12.527731    1.238098   -2.125628
 O   13.902037    1.439490   -1.927061
 H   -7.832491    3.185965   -1.329672
 H   -8.696435    3.484870    0.832702
 H   -9.831432    2.671043   -0.282620
 H   -9.791357    5.684719   -0.085220
 H  -10.667078    4.718937    1.139348
 H  -11.736634    6.550131   -1.120221
 H  -12.652016    5.804299    0.222676
 H  -13.032232    4.829684   -2.623779
 H  -13.891719    6.285442   -2.040317
 H  -15.169098    3.698307   -2.774786
 H  -16.008619    5.134893   -2.132455
 H  -17.432647    3.408317   -1.421152
 H  -16.370571    3.616505    0.005047
 H  -14.900666    1.806151    0.499352
 H  -14.052626    2.041446   -1.043560
 H  -13.696113   -0.255532   -0.673664
 H  -15.165591   -0.263554   -1.698811
 H  -17.184490   -0.974871   -0.660272
 H  -17.124015    0.353269    0.514968
 H  -18.305322   -1.280622    1.712602
 H  -16.633860   -1.499803    2.287370
 H  -16.093443   -3.104381   -0.486885
 H  -16.705552   -4.604033    0.243874
 H  -15.342425   -4.211049    2.271311
 H  -14.789413   -2.646278    1.611978
 H  -13.996590   -3.105371   -0.901427
 H  -12.828657   -4.448026   -0.831228
 H  -11.475302   -3.262496    0.815974
 H  -12.775656   -2.078111    1.109699
 H  -11.572158   -2.865026   -2.353186
 H  -10.269049   -3.064704   -1.143140
 H  -10.820289   -0.347266   -2.357060
 H   -9.834754   -1.543138   -3.249343
 H   -9.004541    1.082125   -1.922970
 H   -7.928607    0.035597   -2.878088
 H   -6.483030   -0.348297   -0.931257
 H   -7.646185    0.474460    0.139380
 H   -5.853059    1.949338    0.720408
 H   -5.374665    3.120822   -0.536586
 H   -3.422046    1.840266   -0.182341
 H   -4.133874    1.202456   -1.692685
 H   -5.030128    0.076248    1.788467
 H   -3.297997    0.455465    1.628356
 H   -2.834188   -1.903906    1.035310
 H   -4.567345   -2.294349    1.164369
 H   -4.210908   -3.768052    2.965226
 H   -3.611548   -3.037116    4.488557
 H   -1.820220   -3.597278    2.076968
 H   -2.063880   -4.736698    3.423983
 H    0.220026   -4.518915    4.050583
 H    0.724985   -2.921133    4.655363
 H    0.623811   -2.095327    2.232897
 H    0.567734   -3.811080    1.736452
 H    2.725368   -3.992047    0.871501
 H    4.070013   -3.481354    1.920020
 H    3.184419   -1.070685    1.648850
 H    2.167728   -1.690996    0.324915
 H    6.146181   -1.783873   -0.230649
 H    5.568872   -1.784365    1.446916
 H    4.771501    0.584413    1.168344
 H    5.354213    0.561125   -0.513590
 H    6.434108    2.343251    1.718301
 H    6.902741    2.301781    0.001064
 H    9.189652    1.592838    0.608471
 H    8.721039    1.510105    2.328144
 H   10.186401    4.849938    1.524347
 H   10.679261    3.349860    0.685941
 H   11.081718    2.224893    2.808053
 H   10.118208    3.447911    3.683347
 H   13.255920    2.574775    2.544517
 H   13.964370    4.020780    3.319844
 H   13.067534    5.354482    1.312597
 H   12.944511    3.790984    0.457986
 H   16.370343    3.803634   -0.089456
 H   14.800104    3.138294   -0.626910
 H   15.946600    2.345764    2.072761
 H   16.511087    1.582708    0.561667
 H   13.628748   -0.346990    1.686033
 H   15.169168    0.044196    2.506984
 H   15.441320   -1.940672    1.116585
 H   16.411901   -0.621643    0.418248
 H   15.304380   -2.994826   -1.003947
 H   16.259132   -1.687043   -1.764313
 H   14.990228   -2.568256   -3.544656
 H   14.065916   -1.123009   -3.057465
 H   13.104976   -3.577695   -4.416762
 H   11.995770   -2.268936   -3.939671
 H   11.881732   -4.953543   -2.533175
 H   11.140337   -4.797629   -4.154608
 H    9.069873   -3.859638   -4.266452
 H    9.695919   -2.241822   -3.876734
 H    7.633226   -3.868779   -2.299287
 H    7.315948   -2.420310   -3.302180
 H    8.268874   -0.357466   -0.632782
 H    7.987969   -0.348847   -2.396152
 H   10.311627   -0.408546   -2.824615
 H   10.600154   -1.484298   -1.424667
 H   12.315123   -0.276312   -0.609520
 H   12.005542    1.382913   -0.040484
 H   12.095737    2.206114   -2.396817
 H   12.366502    0.545580   -2.967653
 H   14.234216    0.705090   -1.383743
