23 
4osf_ligand_xtb.xyz
 O    4.429690   -0.877033   -0.408992
 C    3.197732   -0.399226   -0.088797
 C    2.904289    0.926850   -0.394558
 C    1.663635    1.446599   -0.087950
 C    0.690332    0.667565    0.528746
 C   -0.676223    1.226625    0.805348
 C   -1.561984    1.137740   -0.449168
 N   -1.736000   -0.227670   -0.877317
 C   -2.809868   -0.962283   -0.580063
 S   -4.144327   -0.427502    0.192802
 C    0.992568   -0.653775    0.828888
 C    2.233073   -1.186754    0.526878
 H    4.509736   -1.796695   -0.128422
 H    3.662975    1.529168   -0.867832
 H    1.447724    2.478146   -0.325553
 H   -0.605430    2.273892    1.100876
 H   -1.157608    0.670629    1.611122
 H   -1.107182    1.703626   -1.266625
 H   -2.554535    1.538649   -0.232493
 H   -0.921610   -0.681165   -1.265598
 H   -2.759835   -1.993736   -0.918824
 H    0.252582   -1.275454    1.312917
 H    2.455573   -2.217118    0.772819
