33 
4oty_ligand_ani.xyz
 O   -3.220202    3.090156    0.031576
 C   -2.214394    2.473550    0.268572
 O   -1.069466    2.741235   -0.376887
 C   -2.160343    1.354345    1.318484
 C   -1.914032   -0.011170    0.713316
 C   -2.997032   -0.789816    0.322286
 C   -2.832956   -2.055516   -0.244790
 C   -4.028170   -2.878103   -0.652990
 C   -1.533633   -2.528008   -0.410901
 C   -0.430011   -1.760949   -0.045010
 C   -0.612335   -0.489159    0.494946
 N    0.479089    0.371851    0.833263
 C    1.780652    0.089567    0.362288
 C    2.185585    0.224395   -0.968306
Cl    1.050021    0.758955   -2.170599
 C    3.489332   -0.064124   -1.363383
 C    4.419511   -0.485917   -0.423078
 C    4.059135   -0.613580    0.915302
 C    2.760935   -0.315528    1.272530
 F    2.390077   -0.414710    2.569831
 H   -0.357938    2.136303   -0.092715
 H   -3.126327    1.371156    1.827169
 H   -1.396031    1.601450    2.067842
 H   -4.001161   -0.391985    0.466909
 H   -4.672023   -3.099033    0.206801
 H   -4.642270   -2.348363   -1.391073
 H   -3.725918   -3.831881   -1.095371
 H   -1.374009   -3.516386   -0.838224
 H    0.576326   -2.148977   -0.181354
 H    0.528461    0.499988    1.839059
 H    3.762707    0.045326   -2.408421
 H    5.434921   -0.711265   -0.733777
 H    4.762473   -0.930206    1.678892
