17 
4owm_ligand_ani.xyz
 O   -2.425825   -1.211853    0.273700
 C   -2.063396    0.045344    0.008518
 O   -2.887370    0.907907   -0.178508
 C   -0.585729    0.354419   -0.015157
 C   -0.225061    1.702610    0.004344
 C    1.105723    2.089099    0.035218
 C    2.107847    1.120271    0.046225
 C    1.742761   -0.209724    0.008478
 F    2.693785   -1.173046    0.022647
 C    0.412207   -0.626639   -0.049395
 N    0.087909   -2.021299   -0.122944
 H   -1.625352   -1.777057    0.373882
 H   -1.032141    2.428196   -0.000643
 H    1.369561    3.141661    0.055759
 H    3.161468    1.379331    0.080482
 H   -0.048637   -2.313555   -1.090739
 H    0.855127   -2.572780    0.247121
