17 
4own_ligand_ani.xyz
 N   -1.309701    2.105927   -0.132641
 O   -2.802056   -0.084374    0.405473
 O   -1.981320   -1.994309   -0.331138
 F    3.006151   -1.303646    0.122502
 C    1.062828    1.736889   -0.106452
 C    2.158303    0.892373   -0.051649
 C    0.673476   -1.003134    0.082910
 C   -1.827276   -0.710587    0.047296
 C   -0.253170    1.239159   -0.062208
 C    1.948625   -0.475463    0.054994
 C   -0.442095   -0.160154    0.005540
 H   -1.120134    3.077233    0.046288
 H   -2.207917    1.740408    0.160102
 H   -1.174679   -2.323658   -0.749430
 H    1.214307    2.811263   -0.183098
 H    3.171390    1.279789   -0.081279
 H    0.572424   -2.078740    0.216127
