38 
4oya_ligand_ani.xyz
 C   17.324924   20.913936   -1.480272
 C   18.080548   22.120279   -1.240136
 C   17.539738   23.485637   -1.474118
 C   19.691997   24.744429   -0.932756
 C   20.348047   25.967782   -0.838094
 C   19.697221   27.154304   -1.138894
 C   18.358630   27.132108   -1.543298
 C   16.415339   28.413707   -2.082903
 C   16.081569   28.015288   -3.489952
 C   14.220428   26.780675   -6.191396
 C   15.871581   27.247225   -7.920446
 C   16.763626   27.782409   -7.004095
 C   16.357900   27.807106   -5.670584
 C   17.688497   25.919598   -1.638362
 N   16.077280   20.812218   -2.008287
 N   18.064397   19.891572   -1.139067
 O   19.245057   20.425323   -0.702617
 N   19.244668   21.763296   -0.768851
 O   16.358125   23.583861   -1.798636
 C   18.358100   24.724166   -1.336744
 O   17.805494   28.356949   -1.826348
 N   14.965366   27.463141   -3.879470
 C   15.108822   27.317266   -5.253554
 C   14.615401   26.752510   -7.518788
 N   16.960647   28.255327   -4.510166
 H   20.194814   23.811414   -0.695420
 H   21.387609   25.995212   -0.522948
 H   20.202964   28.112440   -1.061909
 H   16.138706   29.459277   -1.913469
 H   15.841251   27.796321   -1.381555
 H   13.253434   26.402301   -5.872442
 H   16.146035   27.208055   -8.971268
 H   17.732684   28.165023   -7.314619
 H   16.649498   25.835865   -1.937503
 H   15.587276   19.940085   -1.883686
 H   15.541806   21.668297   -2.046894
 H   13.942188   26.340261   -8.266179
 H   17.895331   28.617336   -4.409276
