38 
4oya_ligand_dft.xyz
 C   17.289831   20.965428   -1.604012
 C   17.969063   22.192471   -1.277562
 C   17.496522   23.552378   -1.647942
 C   19.669231   24.749061   -1.082267
 C   20.361381   25.951319   -0.949631
 C   19.726047   27.161530   -1.173877
 C   18.376681   27.185221   -1.542477
 C   16.466213   28.540874   -2.013243
 C   16.119751   28.080641   -3.397311
 C   14.210611   26.735763   -6.005797
 C   15.874158   27.024748   -7.760889
 C   16.787752   27.593020   -6.885745
 C   16.382322   27.724869   -5.558952
 C   17.673578   25.996671   -1.686258
 N   16.186981   20.821180   -2.381921
 N   17.952680   19.972099   -1.063963
 O   19.016787   20.561937   -0.417964
 N   19.012950   21.889752   -0.550537
 O   16.373778   23.623851   -2.129861
 C   18.323455   24.776180   -1.447775
 O   17.852241   28.430120   -1.744518
 N   14.986709   27.537745   -3.744655
 C   15.116207   27.305333   -5.107155
 C   14.603726   26.602689   -7.327961
 N   17.001533   28.231980   -4.433908
 H   20.174663   23.810154   -0.897979
 H   21.408566   25.940321   -0.664827
 H   20.251994   28.104687   -1.066085
 H   16.246317   29.605954   -1.899486
 H   15.861276   27.985564   -1.288435
 H   13.233916   26.410131   -5.663851
 H   16.146131   26.902808   -8.804893
 H   17.767335   27.917994   -7.222032
 H   16.635522   25.968256   -1.997967
 H   15.703005   19.938296   -2.329936
 H   15.630872   21.656898   -2.496245
 H   13.920672   26.163055   -8.048223
 H   17.946544   28.571022   -4.348861
