25 
4oym_ligand_ani.xyz
 C    4.193187   -1.870894    0.050561
 C    3.026661    0.177435   -0.001688
 C    1.899253    2.306457   -0.060184
 C    0.658001    1.675566   -0.051671
 C    0.609183    0.282145   -0.017663
 C    1.795446   -0.465055    0.004201
 C   -2.001171    0.094689    0.001386
 C   -3.223847   -0.671979   -0.032487
 O    4.227088   -0.462264    0.023293
 C    3.076750    1.575837   -0.034223
 C   -0.647979   -0.519220    0.000982
 O   -0.576916   -1.746285    0.025451
 N   -2.333706    1.355287    0.070926
 O   -3.672149    1.405423    0.087331
 N   -4.231084    0.159236    0.025121
 N   -3.351517   -2.019273   -0.145399
 H    3.676198   -2.238726    0.946190
 H    3.693598   -2.273062   -0.840133
 H    5.232327   -2.201448    0.067253
 H    1.946181    3.391628   -0.085959
 H   -0.266707    2.244193   -0.066260
 H    1.698481   -1.544623    0.026391
 H    4.048988    2.059225   -0.037706
 H   -2.510676   -2.560345   -0.001131
 H   -4.241323   -2.428460    0.092935
