22 
4oyo_ligand_xtb.xyz
 C   15.508338   32.636270   -1.054250
 C   16.556224   32.445703   -2.088604
 C   17.922806   31.835848   -3.717356
 C   16.700507   31.501031   -3.094208
 C   15.778377   30.424519   -3.439164
 C   13.518468   29.683064   -3.884597
 C   13.972100   28.393257   -4.103744
 C   15.321573   28.109561   -3.991265
 C   16.211943   29.116795   -3.660697
 N   17.647347   33.239623   -2.167591
 N   18.473363   32.885941   -3.151883
 C   14.413610   30.683725   -3.557912
Cl   17.887427   28.711780   -3.486017
 H   15.962031   32.846498   -0.086616
 H   14.856901   33.472499   -1.311903
 H   14.901518   31.738340   -0.972086
 H   18.389787   31.362401   -4.556648
 H   12.466470   29.910142   -3.971772
 H   13.279054   27.606899   -4.361166
 H   15.689018   27.108347   -4.153610
 H   17.876149   34.023168   -1.576626
 H   14.062990   31.693589   -3.406286
