22 
4oz3_ligand_xtb.xyz
 C   19.103913   20.784491   -6.980149
 C   17.660203   21.131399   -6.870066
 C   17.056107   22.412348   -6.845233
 C   17.681472   23.730810   -6.893274
 C   17.098872   24.739535   -7.657439
 C   17.676098   25.993679   -7.715361
 C   18.837947   26.257548   -7.008982
 C   19.416448   25.262607   -6.239444
 C   18.843627   24.005594   -6.178305
 F   19.302793   19.546769   -7.442825
 F   19.746520   20.850312   -5.794417
 F   19.768765   21.613158   -7.805045
 N   16.750626   20.170642   -6.817545
 N   15.584279   20.784027   -6.757837
 C   15.704289   22.125519   -6.778363
 H   16.200747   24.529440   -8.219825
 H   17.220046   26.766742   -8.316288
 H   19.290350   27.236717   -7.058174
 H   20.319064   25.464864   -5.682462
 H   19.292089   23.242898   -5.560792
 H   14.738918   20.236307   -6.705104
 H   14.857828   22.778594   -6.727072
