42 
4p1r_ligand_xtb.xyz
 C    4.443504   -3.204564   -0.814736
 O    3.320264   -2.415280   -0.459449
 C    3.594481   -1.127618   -0.266714
 N    4.779651   -0.599085   -0.344637
 C    4.588039    0.738870   -0.099408
 C    5.466910    1.806900   -0.039962
 C    4.909044    3.045387    0.237194
 C    3.537389    3.167847    0.439136
 N    2.676526    2.161777    0.385522
 C    3.210496    0.984582    0.120664
 N    2.581036   -0.239770    0.016326
 C    1.204238   -0.499609    0.150898
 C    0.281016    0.485019   -0.186480
 C   -1.073170    0.249399   -0.067629
 C   -1.535194   -0.984150    0.390013
 N   -2.876672   -1.300274    0.525912
 C   -4.003690   -0.576585    0.233620
 C   -5.257318   -1.170491    0.466679
 C   -6.393576   -0.454390    0.173446
 C   -6.287088    0.838195   -0.345570
 C   -7.503944    1.645115   -0.672762
 C   -5.004189    1.324387   -0.534142
 N   -3.898898    0.651837   -0.259135
 C   -0.600965   -1.961829    0.739695
 C    0.752909   -1.725336    0.627167
 H    4.884976   -2.843788   -1.745563
 H    5.201921   -3.163594   -0.030543
 H    4.069256   -4.218699   -0.935642
 H    6.525281    1.674682   -0.200789
 H    5.534765    3.922355    0.297574
 H    3.095248    4.130566    0.655703
 H    0.634030    1.443562   -0.529336
 H   -1.788823    1.009106   -0.330306
 H   -3.054639   -2.227680    0.886242
 H   -5.318702   -2.171848    0.867888
 H   -7.369652   -0.887919    0.342227
 H   -8.141647    1.106398   -1.372848
 H   -8.086025    1.836387    0.228575
 H   -7.226598    2.598351   -1.115338
 H   -4.840357    2.318104   -0.932485
 H   -0.942104   -2.919739    1.108413
 H    1.456099   -2.492166    0.907246
