62 
4p3h_ligand_ani.xyz
 C    1.363934  -35.775396  -12.789420
 C    1.231760  -33.785913  -18.583032
 C    1.798728  -34.513261  -20.812351
 C    1.685393  -33.201935  -21.275630
 C    1.370044  -32.189711  -20.369304
 C   -0.618769  -31.304734  -17.559560
 C   -0.894406  -30.861805  -16.263671
 C   -2.995878  -31.614323  -17.912173
 C   -5.355108  -33.552925  -14.247270
 C   -4.089578  -33.079118  -13.527249
 C   -2.864848  -33.928820  -13.890426
 C   -3.155523  -35.406521  -13.598753
 C   -4.408183  -35.887374  -14.332551
 C   -5.626039  -35.033851  -13.971806
 C   -1.606949  -33.430086  -13.159977
 C   -0.380463  -34.258660  -13.459545
 C    0.259317  -34.997069  -12.461291
 C    1.801250  -35.790685  -14.105769
 C    1.111115  -35.015172  -15.027764
 N    0.045119  -34.266451  -14.725135
 C    1.575013  -35.008004  -16.459646
 O    2.450382  -35.769635  -16.841630
 N    0.948003  -34.076812  -17.232669
 C    1.139053  -32.454967  -19.027237
 C    1.583946  -34.801112  -19.474483
 C    0.814384  -31.328917  -18.068556
 C   -2.203859  -30.775960  -15.801055
 C   -1.685226  -31.689660  -18.374536
 C   -3.259190  -31.151807  -16.628035
 C    1.899113  -32.825691  -22.674019
 N    2.083298  -33.650642  -23.724532
 N    1.946071  -31.592744  -23.137725
 N    2.161068  -31.690837  -24.465733
 N    2.243255  -32.916920  -24.834752
 H    1.873125  -36.361386  -12.027415
 H    2.070753  -35.325749  -21.482105
 H    1.309198  -31.171137  -20.745382
 H   -0.069043  -30.584913  -15.611027
 H   -3.813152  -31.916960  -18.561698
 H   -5.229527  -33.406604  -15.331960
 H   -6.216190  -32.943102  -13.947278
 H   -3.894831  -32.021368  -13.750796
 H   -4.245861  -33.141548  -12.438819
 H   -2.678389  -33.832075  -14.972655
 H   -3.297509  -35.533377  -12.513547
 H   -2.289159  -36.019887  -13.879435
 H   -4.597524  -36.944500  -14.109792
 H   -4.229687  -35.822574  -15.416235
 H   -6.511939  -35.373275  -14.522648
 H   -5.852606  -35.165305  -12.903536
 H   -1.406597  -32.394985  -13.462502
 H   -1.787670  -33.426019  -12.078146
 H   -0.116746  -34.962116  -11.441966
 H    2.651819  -36.377930  -14.438878
 H    0.259256  -33.501917  -16.760902
 H    1.690348  -35.814636  -19.104288
 H    1.490341  -31.370735  -17.204157
 H    1.032258  -30.379775  -18.577495
 H   -2.394158  -30.412157  -14.793156
 H   -1.485923  -32.057279  -19.379194
 H   -4.285863  -31.083390  -16.277085
 H    2.087047  -34.656782  -23.792620
