55 
4p5z_ligand_dft.xyz
 F    9.276368    1.118966   -1.513888
 C    8.143466    1.283081   -0.809063
 F    8.426196    2.134959    0.193451
 F    7.256861    1.895438   -1.607824
 C    7.621061   -0.027882   -0.280800
 C    6.251838   -0.169922   -0.077755
 C    8.517950   -1.039914    0.044527
 C    8.024923   -2.221437    0.585464
 C    6.663179   -2.382681    0.795738
 C    5.765477   -1.360739    0.466423
 N    4.403134   -1.599018    0.720436
 C    3.328458   -0.791883    0.391725
 O    3.425490    0.263998   -0.204184
 N    2.126144   -1.329282    0.820529
 C    0.842351   -0.783173    0.649538
 C    0.558495    0.261879   -0.234706
 C   -0.749151    0.714242   -0.363968
 C   -0.199002   -1.353545    1.391582
 C   -1.496915   -0.884887    1.274085
 C   -1.776847    0.158009    0.394014
 N   -3.106015    0.641727    0.266248
 C   -3.512198    1.961905    0.377132
 N   -2.660572    2.964157    0.633221
 C   -4.234445   -0.131298   -0.006318
 C   -5.368093    0.762586   -0.079976
 C   -4.883331    2.080448    0.166895
 C   -5.602188    3.344383    0.280978
 N   -6.937861    3.268102    0.063404
 O   -5.027767    4.404447    0.561051
 N   -4.273855   -1.412522   -0.160479
 C   -5.535259   -1.896826   -0.423030
 C   -6.670845   -1.039130   -0.501084
 N   -6.577651    0.317006   -0.323462
 C   -5.700802   -3.285862   -0.615737
 C   -6.943730   -3.809840   -0.876389
 C   -8.070722   -2.962427   -0.953439
 C   -7.937314   -1.607888   -0.769779
 H    5.566804    0.620595   -0.347530
 H    9.580037   -0.909713   -0.127914
 H    8.704710   -3.027044    0.843534
 H    6.292235   -3.313935    1.218330
 H    4.203771   -2.511846    1.100750
 H    2.162256   -2.125460    1.439094
 H    1.351788    0.708224   -0.816422
 H   -0.972288    1.506249   -1.072105
 H    0.008066   -2.170428    2.078944
 H   -2.296376   -1.332961    1.852556
 H   -1.743319    2.781455    1.008502
 H   -3.124925    3.858090    0.789476
 H   -7.486234    4.108793    0.146123
 H   -7.376317    2.378754   -0.146462
 H   -4.817339   -3.913344   -0.552753
 H   -7.062701   -4.878716   -1.024833
 H   -9.048557   -3.386865   -1.160120
 H   -8.789612   -0.938068   -0.825364
