34 
4p72_ligand_dft.xyz
 C   -5.041652   -1.367506   -0.000059
 C   -3.563938   -0.991006   -0.000116
 C   -2.145073    0.931287   -0.000074
 C    0.272512    0.773171    0.000161
 C   -0.991889    0.157112    0.000069
 C    2.728665    0.136460    0.000169
 C    3.584894   -0.986877    0.000091
 C    4.943268   -0.758327   -0.000019
 C    5.446595    0.542986   -0.000092
 C    4.512415    1.564304   -0.000071
Cl    6.041693   -2.111180   -0.000066
 N    3.188206    1.387155    0.000090
 N    1.370704   -0.098327    0.000294
 C    0.364613    2.165700    0.000015
 C   -0.809993    2.916674   -0.000115
 C   -2.061669    2.325377   -0.000120
 O   -3.404822    0.410171   -0.000159
 O   -5.354069   -2.547638   -0.000175
 N   -5.905670   -0.329520    0.000103
 C   -7.339412   -0.512382    0.000155
 H   -3.107267   -1.442581   -0.889844
 H   -3.107210   -1.442493    0.889633
 H   -1.053868   -0.926414    0.000120
 H    3.192028   -1.997976    0.000147
 H    6.510623    0.742317   -0.000166
 H    4.844304    2.599851   -0.000066
 H    1.121210   -1.075366    0.000213
 H    1.333227    2.641315   -0.000039
 H   -0.735618    4.000101   -0.000207
 H   -2.973603    2.912149   -0.000168
 H   -5.510923    0.598730    0.000239
 H   -7.792092   -0.065293   -0.891067
 H   -7.535287   -1.585447   -0.000253
 H   -7.791878   -0.066084    0.891889
