50 
4p73_ligand_ani.xyz
 N    3.884917    3.237846   -0.933231
 N   -2.565832   -0.996645   -0.424275
 C   -1.552740   -1.666714    0.291372
 N   -4.455211    0.238894   -0.888228
 N   -6.324059    1.409392   -1.625865
 C    0.645459   -2.651459    0.241048
 N    2.999458   -1.537974   -0.578019
 C    0.532106   -3.021418    1.576818
 C   -0.633490   -2.698223    2.261120
 O    1.840172   -3.219712   -2.029842
 O    2.924602   -3.937475    0.148470
 O   -3.954467   -0.264155    1.273278
 C   -3.664803   -0.346401    0.096157
 C   -5.616127    0.955345   -0.636385
 C   -7.416681    2.092366   -1.137823
 C   -7.528681    2.151834    0.209818
 S   -6.211550    1.312580    0.955600
 C   -0.390599   -1.999650   -0.413259
 C   -1.674909   -2.020024    1.636129
 S    2.162009   -2.981450   -0.633517
 C    2.485748   -0.435093   -1.396201
 C    3.582649    0.606461   -1.574883
 N    4.068671    1.029808   -0.272570
 C    4.597084   -0.062176    0.521192
 C    3.525352   -1.127786    0.726976
 C    4.209542    2.365193    0.033875
 C    4.645747    2.801591    1.305464
 C    4.754446    4.159574    1.535348
 C    4.433770    5.064198    0.526129
 C    4.005961    4.540357   -0.682055
 H   -2.370797   -0.892586   -1.408604
 H   -4.265736    0.114753   -1.873813
 H    1.347007   -3.554698    2.056427
 H   -0.739032   -2.974777    3.306503
 H   -8.113618    2.536255   -1.839397
 H   -8.300080    2.633236    0.796548
 H   -0.291739   -1.748440   -1.465982
 H   -2.575715   -1.762438    2.177062
 H    1.607890    0.026540   -0.919633
 H    2.187037   -0.837153   -2.367443
 H    3.217370    1.479660   -2.114520
 H    4.411797    0.166291   -2.149858
 H    4.954218    0.287244    1.489544
 H    5.454274   -0.516103    0.001794
 H    3.961050   -2.005077    1.210816
 H    2.716682   -0.744727    1.366855
 H    4.876469    2.098359    2.098162
 H    5.092210    4.512654    2.507494
 H    4.510132    6.135870    0.674755
 H    3.736171    5.200680   -1.505013
