36 
4p7m_ligand_ani.xyz
 C   -3.764022    0.306387    0.313020
 C   -4.740002   -0.406051   -0.382798
 O   -5.880318    0.262812   -0.701637
 C   -4.529342   -1.743888   -0.719107
 C   -3.335983   -2.354985   -0.352099
 C   -2.350838   -1.659346    0.337169
 C   -2.579913   -0.324239    0.662677
 O   -1.658352    0.396297    1.414505
 C   -0.487211    0.818976    0.810036
 C    0.622176   -0.013716    0.729513
 C   -0.393338    2.118217    0.333846
 C    0.823460    2.544563   -0.207094
 C    0.980188    3.951418   -0.726807
 N    1.889704    1.751876   -0.284694
 C    1.789427    0.488932    0.148169
 C    3.008655   -0.351597   -0.007263
 C    2.924166   -1.745436   -0.042515
 C    4.070051   -2.519175   -0.185824
 C    5.316194   -1.908164   -0.290447
 C    5.408288   -0.519279   -0.260609
 C    4.261912    0.254076   -0.126814
 H   -3.942507    1.342806    0.581765
 H   -6.475807   -0.331054   -1.175655
 H   -5.291431   -2.301619   -1.260683
 H   -3.169629   -3.397390   -0.608396
 H   -1.423432   -2.138181    0.632444
 H    0.579024   -1.015925    1.146821
 H   -1.235711    2.800728    0.398680
 H    0.304562    4.131630   -1.571143
 H    0.730338    4.685313    0.048394
 H    2.009877    4.112631   -1.053592
 H    1.956056   -2.235059    0.025067
 H    3.987390   -3.602731   -0.211055
 H    6.213151   -2.511912   -0.398460
 H    6.377405   -0.034224   -0.346785
 H    4.318946    1.338832   -0.115793
