46 
4p7s_ligand_dft.xyz
 C    4.665554    1.810445   -2.767454
 O    5.433738    1.091575   -1.827729
 C    4.790396    0.215350   -1.018891
 C    3.420567   -0.028401   -1.060540
 C    5.598696   -0.467015   -0.099644
 C    5.053761   -1.390359    0.780647
 C    5.924452   -2.133021    1.762434
 C    3.673034   -1.633291    0.749441
 C    2.889275   -0.955395   -0.163786
 O    1.537937   -1.245546   -0.224406
 C    0.647265   -0.328305    0.242289
 C   -0.691655   -0.563773   -0.047422
 C    1.001289    0.795948    0.983534
 C   -0.020136    1.650930    1.395394
 C    0.286599    2.892326    2.191558
 N   -1.309315    1.431057    1.127727
 C   -1.644838    0.336489    0.428356
 C   -3.094169    0.142915    0.164304
 C   -3.967079    1.238435    0.233095
 C   -5.318191    1.092325   -0.017460
 C   -5.844023   -0.164787   -0.337187
 O   -7.180707   -0.205674   -0.566234
 C   -7.758417   -1.448846   -0.892537
 C   -4.994703   -1.269783   -0.395056
 C   -3.634395   -1.104445   -0.143854
 H    4.173329    1.138569   -3.482047
 H    3.907492    2.432611   -2.274716
 H    5.367165    2.452235   -3.301200
 H    2.755982    0.470209   -1.755210
 H    6.663020   -0.253688   -0.098013
 H    5.930624   -3.206577    1.542983
 H    6.957599   -1.776628    1.730534
 H    5.554276   -2.011466    2.786114
 H    3.209722   -2.344867    1.425327
 H   -0.955613   -1.421857   -0.653653
 H    2.035452    1.005517    1.229471
 H   -0.197124    2.838247    3.172029
 H    1.361708    3.027390    2.338102
 H   -0.113992    3.773671    1.681166
 H   -3.559423    2.209674    0.490819
 H   -5.993978    1.940071    0.027804
 H   -7.333216   -1.860686   -1.817045
 H   -7.631815   -2.177723   -0.081510
 H   -8.821956   -1.257460   -1.040295
 H   -5.373217   -2.259633   -0.622414
 H   -2.998258   -1.984310   -0.168707
