46 
4p7s_ligand_ani.xyz
 C    5.999708    1.544346    0.755455
 O    5.850606    0.166407    1.017547
 C    4.780247   -0.462293    0.465384
 C    3.804899    0.191864   -0.288501
 C    4.697019   -1.836699    0.694412
 C    3.645366   -2.576803    0.168524
 C    3.571625   -4.063380    0.410501
 C    2.667237   -1.928586   -0.587122
 C    2.755418   -0.561320   -0.803516
 O    1.801858    0.041983   -1.619213
 C    0.790272    0.776693   -1.025650
 C   -0.446480    0.185760   -0.805629
 C    0.964370    2.117361   -0.713933
 C   -0.110515    2.813470   -0.152728
 C    0.038555    4.264924    0.224827
 N   -1.291346    2.246493    0.077562
 C   -1.474492    0.965485   -0.270195
 C   -2.837061    0.420853   -0.036793
 C   -3.693386    1.051414    0.874882
 C   -4.963447    0.564708    1.112852
 C   -5.417550   -0.568265    0.430187
 O   -6.679912   -0.969206    0.726388
 C   -7.179390   -2.099320    0.045397
 C   -4.583297   -1.203164   -0.488944
 C   -3.303936   -0.703880   -0.712156
 H    6.103531    1.739429   -0.319840
 H    5.150957    2.121965    1.144557
 H    6.911965    1.852753    1.268254
 H    3.857373    1.256908   -0.491967
 H    5.473333   -2.311363    1.287941
 H    4.458848   -4.571123    0.015196
 H    3.520310   -4.286569    1.482203
 H    2.691652   -4.501208   -0.068250
 H    1.838283   -2.483949   -1.016641
 H   -0.592129   -0.863698   -1.043154
 H    1.906203    2.623816   -0.903732
 H    0.839207    4.396730    0.962588
 H    0.305091    4.869251   -0.650291
 H   -0.897888    4.638484    0.645561
 H   -3.339714    1.938893    1.391205
 H   -5.631976    1.046470    1.820310
 H   -7.204795   -1.935200   -1.040003
 H   -6.579387   -2.993911    0.258358
 H   -8.195514   -2.248731    0.412977
 H   -4.910337   -2.082201   -1.033251
 H   -2.676981   -1.204673   -1.446274
