53 
4p90_ligand_ani.xyz
 C   -6.104572    0.379461    1.384723
 C   -4.755614    0.072945    1.222180
 C   -4.021581    0.614283    0.160055
 C   -2.576154    0.322303   -0.144883
 C   -2.153856   -1.060932   -0.276735
 C   -2.957435   -2.268545   -0.420979
 C   -0.936879   -2.939828   -0.563009
 C   -0.819109   -1.524158   -0.376140
 C    0.455351   -0.966696   -0.344449
 C    1.543859   -1.817625   -0.508696
 C    1.295050   -3.200122   -0.686335
 C    2.908459   -1.289980   -0.497070
 C    4.061457   -1.775388   -1.157281
 C    6.090290    1.861744   -0.837009
 C    7.072716    2.918334   -0.343167
 C    7.725291    1.509962    1.569950
 C    6.764203    0.408549    1.136039
Cl   -4.011631   -0.940731    2.424188
 C   -4.664060    1.525105   -0.677334
 C   -6.010146    1.835520   -0.538212
 C   -6.661790    2.783276   -1.514125
 O   -7.895537    3.225701   -0.992666
 C   -6.730429    1.248236    0.500425
 O   -1.806387    1.253158   -0.327569
 N    0.094217   -3.756639   -0.711562
 N   -2.268091   -3.357257   -0.581416
 C    3.366166   -0.163766    0.159488
 N    4.682691   -0.042313   -0.120262
 N    5.123790   -1.012156   -0.929208
 C    5.596192    1.001756    0.335497
 N    8.215469    2.266640    0.373567
 H   -6.656149   -0.060618    2.210078
 H   -4.047382   -2.305064   -0.407267
 H    0.591918    0.103134   -0.217339
 H    2.134482   -3.882665   -0.801458
 H    4.151726   -2.634218   -1.811653
 H    6.571227    1.210907   -1.578708
 H    5.241509    2.345003   -1.328489
 H    6.560735    3.586690    0.353859
 H    7.460530    3.518324   -1.163934
 H    8.578192    1.105411    2.111336
 H    7.201374    2.204798    2.231026
 H    6.382254   -0.120668    2.013252
 H    7.287724   -0.327462    0.512458
 H   -4.066474    1.994495   -1.456659
 H   -6.802932    2.269311   -2.479779
 H   -5.980409    3.628514   -1.702255
 H   -8.299570    3.810034   -1.644335
 H   -7.780215    1.492411    0.620246
 H    2.864033    0.535290    0.819012
 H    5.012419    1.642437    1.006273
 H    8.935520    2.961480    0.639269
 H    8.611615    1.549494   -0.289671
