51 
4phw_ligand_dft.xyz
 O   24.046809   77.564823   18.224420
 C   24.591579   78.288952   19.031288
 C   24.897684   79.709956   18.675264
 N   24.908796   80.718150   19.616613
 C   25.146750   81.891658   18.941759
 C   25.253301   83.221290   19.355942
 C   25.518603   84.156108   18.370054
 C   25.673028   83.784941   17.018034
 C   25.564030   82.466562   16.615596
 C   25.292125   81.502300   17.594781
 N   25.123207   80.139356   17.461258
 C   24.930864   77.813604   20.407044
 C   26.010095   78.317455   21.139222
 C   26.300930   77.812994   22.401238
 C   25.506403   76.805874   22.934011
 O   25.891805   76.290123   24.146998
 C   24.967017   76.050109   25.126607
 N   23.856556   76.759809   25.111892
 C   22.971885   76.556432   26.093282
 C   23.180667   75.649051   27.117825
 C   24.366071   74.915267   27.106119
 C   25.306178   75.089667   26.097174
 C   26.584600   74.282119   26.070758
 C   27.855431   75.134902   26.232877
 C   29.089969   74.236684   26.198047
 O   29.151062   73.472222   25.013758
 C   28.037420   72.615345   24.884136
 C   26.724915   73.393686   24.821691
 C   24.439105   76.274086   22.209973
 C   24.164132   76.775589   20.949907
 H   24.699556   80.611200   20.596999
 H   25.136151   83.510729   20.395481
 H   25.611245   85.202595   18.644160
 H   25.880211   84.555459   16.281964
 H   25.678298   82.171272   15.578131
 H   26.648148   79.087958   20.716551
 H   27.141466   78.183805   22.977497
 H   22.065926   77.155418   26.046586
 H   22.441929   75.514101   27.899852
 H   24.563053   74.187802   27.889726
 H   26.541234   73.606631   26.938740
 H   27.918317   75.862744   25.418770
 H   27.824022   75.688285   27.179017
 H   29.090329   73.566871   27.077004
 H   30.007124   74.830840   26.226862
 H   28.011378   71.904495   25.729781
 H   28.196386   72.042818   23.966702
 H   26.722336   74.015079   23.921350
 H   25.881544   72.696113   24.753932
 H   23.835450   75.481085   22.636184
 H   23.349879   76.367585   20.360144
