46 
4pku_ligand_ani.xyz
 C   -2.065681    2.563446   -0.020304
 C   -0.747063    2.104632   -0.044327
 C   -2.949905    2.142640   -1.018221
 C   -2.503086    1.311631   -2.035368
 C   -1.186566    0.866609   -2.055745
 C   -0.310576    1.240031   -1.040017
 C    1.094291    0.680759   -0.981964
 N    1.441609    0.175810    0.357005
 C    2.707975    0.651979    0.953945
 C    2.561781    2.068363    1.488701
 C    3.873209    0.578285   -0.043025
 N    4.301602   -0.658815   -0.356145
 O    5.295338   -0.744019   -1.317022
 O    4.413819    1.565757   -0.538903
 S    1.066540   -1.438448    0.696004
 O    1.780920   -2.304157   -0.245984
 O    1.259777   -1.620978    2.127538
 C   -0.663071   -1.580640    0.348727
 C   -1.094012   -2.281476   -0.771151
 C   -2.445746   -2.277765   -1.084477
 C   -3.319607   -1.585209   -0.259740
 F   -4.629425   -1.580676   -0.579258
 C   -2.919486   -0.910805    0.892872
 C   -1.562344   -0.951164    1.198343
 C   -3.910394   -0.181855    1.760355
 N   -2.512454    3.370622    1.031759
 H   -0.072794    2.401337    0.756985
 H   -3.988615    2.466860   -0.983704
 H   -3.195627    0.998541   -2.815529
 H   -0.847940    0.200467   -2.846613
 H    1.814590    1.468233   -1.222015
 H    1.225277   -0.110913   -1.732143
 H    2.902965   -0.034196    1.786956
 H    3.476316    2.359968    2.010832
 H    1.728370    2.110273    2.195826
 H    2.395480    2.787065    0.680879
 H    3.713040   -1.487166   -0.358129
 H    5.436703    0.201046   -1.534859
 H   -0.371418   -2.799373   -1.394663
 H   -2.838248   -2.789341   -1.958884
 H   -1.201155   -0.461817    2.100255
 H   -3.496863   -0.025809    2.761886
 H   -4.847195   -0.737968    1.853440
 H   -4.147660    0.803578    1.343814
 H   -1.774074    3.892177    1.485566
 H   -3.283407    3.975394    0.782378
