46 
4pku_ligand_dft.xyz
 C    2.133212    2.605732    0.156291
 C    0.821556    2.125077    0.131309
 C    3.004934    2.140395    1.150360
 C    2.560944    1.216850    2.085708
 C    1.253629    0.738002    2.050358
 C    0.380667    1.189256    1.063976
 C   -1.037165    0.657577    1.008968
 N   -1.436030    0.152007   -0.319721
 C   -2.653666    0.698581   -0.940083
 C   -2.455314    2.146913   -1.377298
 C   -3.920554    0.568859   -0.083700
 N   -3.933119   -0.379545    0.876552
 O   -5.150198   -0.588696    1.506648
 O   -4.898567    1.296498   -0.247163
 S   -1.128280   -1.470718   -0.624929
 O   -1.757994   -2.303166    0.408223
 O   -1.477108   -1.700351   -2.017939
 C    0.619583   -1.581462   -0.386266
 C    1.114769   -2.441604    0.585335
 C    2.488308   -2.494166    0.788768
 C    3.305484   -1.676088    0.026764
 F    4.626375   -1.709626    0.249661
 C    2.832777   -0.807735   -0.959434
 C    1.459919   -0.786926   -1.163685
 C    3.781620    0.070894   -1.724260
 N    2.585725    3.477340   -0.836275
 H    0.148677    2.458405   -0.653702
 H    4.030821    2.499555    1.179216
 H    3.247530    0.857817    2.846698
 H    0.923274   -0.002542    2.772740
 H   -1.743379    1.452356    1.265517
 H   -1.177786   -0.119032    1.769505
 H   -2.832175    0.102209   -1.840369
 H   -3.379670    2.520086   -1.820772
 H   -1.651234    2.196605   -2.116057
 H   -2.206713    2.796381   -0.531738
 H   -3.357260   -1.218653    0.861575
 H   -5.708628    0.090599    1.073663
 H    0.435643   -3.045610    1.175869
 H    2.928538   -3.145598    1.534895
 H    1.036808   -0.114788   -1.903094
 H    3.234213    0.789484   -2.337861
 H    4.435993   -0.522516   -2.371680
 H    4.417568    0.636148   -1.036965
 H    1.863535    4.039967   -1.264810
 H    3.380054    4.043411   -0.571418
