48 
4pmp_ligand_ani.xyz
 C    0.575826    2.586267    0.724207
 C    2.007655    2.252314    0.427360
 C    2.814208   -0.845484   -0.471799
 C    5.157652   -0.826751    0.159166
 C    8.672641   -0.019693    0.411919
 C    8.508131    1.038274   -0.426376
 C    4.929491   -1.904001    1.018103
 C    3.657401   -2.448549    1.126751
 C    2.599804   -1.921334    0.389416
 C   -3.569125   -1.034842   -0.292292
 C   -7.908689    0.023427   -0.229014
 C   -3.778451    0.926468    1.105466
 O   -0.944971   -0.945644   -1.455002
 C   -0.667042   -0.175806   -0.545090
 N   -1.587568    0.282427    0.370392
 C   -2.979525    0.041208    0.374423
 C   -5.154063    0.750131    1.168764
 C   -5.720236   -0.331916    0.512779
 O   -7.088989   -0.587144    0.652028
 F   -7.833690    1.360875   -0.149100
 F   -7.634526   -0.317670   -1.496667
 F   -9.153923   -0.345765    0.048178
 C   -4.944957   -1.215022   -0.222364
 N    0.622199    0.299601   -0.374343
 C    1.023363    1.153562    0.707883
 C    1.661726   -0.244009   -1.245444
 C    4.095129   -0.310070   -0.586870
 C    6.511983   -0.259680    0.061907
 S    6.864160    1.143971   -0.907331
 N    7.545171   -0.747515    0.686709
 H   -0.033351    2.931742   -0.104946
 H    0.366440    3.046089    1.687505
 H    2.762614    2.461751    1.181109
 H    2.356961    2.370429   -0.595061
 H    9.612146   -0.314322    0.863642
 H    9.253681    1.738567   -0.773439
 H    5.761998   -2.303234    1.590462
 H    3.485768   -3.289111    1.794413
 H    1.606818   -2.356132    0.481033
 H   -2.951956   -1.711957   -0.865990
 H   -3.325004    1.772693    1.615365
 H   -1.274088    0.943640    1.061120
 H   -5.786839    1.440491    1.716285
 H   -5.425812   -2.035714   -0.745640
 H    1.148584    0.655211    1.671053
 H    1.166845   -0.985464   -1.877873
 H    2.040785    0.549805   -1.902449
 H    4.262651    0.518761   -1.269859
