52 
4pms_ligand_xtb.xyz
 C    4.221722   -0.091305    0.208453
 C    5.557339   -0.526695    0.543352
 C    7.854455   -0.810909   -0.089063
 C    7.118195   -1.465784    2.104548
 C   -0.615576    1.916078   -0.754869
 C   -0.249918    3.305145   -0.441654
 C   -1.817786    1.286500   -0.509759
 C   -1.705840   -0.032064   -1.008652
 C   -2.562150   -1.149247   -1.081220
 C   -4.253982   -0.670892    0.737844
 C   -4.956578    0.181739    3.317528
 C   -3.265842   -0.409690    1.711751
 C   -6.626933   -0.882275    0.182688
 C   -6.300889   -1.350490   -1.059288
 O   -1.053063    3.920089    0.442910
 O    0.683073    3.894466   -0.927757
 C   -0.402973   -0.144831   -1.556645
 N    0.230031    1.048916   -1.414829
 C    1.613895    1.269766   -1.734091
 C    2.504699    0.658345   -0.711245
 N    3.823924    0.421418   -0.925787
 C    5.832562   -1.061010    1.801566
 C    8.128117   -1.341379    1.162791
 C    6.573406   -0.402490   -0.403978
 O    3.217557   -0.184460    1.092773
 N    2.107731    0.305785    0.481258
 C    0.009078   -1.341294   -2.140531
 C   -0.929440   -2.350962   -2.165267
 N   -2.162721   -2.260154   -1.668451
 C   -3.945491   -1.099980   -0.581740
 C   -4.958460   -1.459528   -1.439777
 C   -5.619582   -0.545304    1.110472
 C   -5.938721   -0.100023    2.411015
 C   -3.609025    0.009783    2.967112
 H    8.644049   -0.715645   -0.818964
 H    7.335311   -1.879151    3.077972
 H   -2.699980    1.703374   -0.061260
 H   -5.208980    0.520939    4.311456
 H   -2.226889   -0.561839    1.461247
 H   -7.660676   -0.775747    0.479194
 H   -7.073904   -1.628063   -1.760584
 H   -1.740289    3.333402    0.785623
 H    1.803270    2.347899   -1.771583
 H    1.848291    0.841496   -2.713306
 H    5.037917   -1.151791    2.526251
 H    9.131386   -1.658136    1.405778
 H    6.335870    0.015206   -1.369335
 H    0.996125   -1.477845   -2.552156
 H   -0.694928   -3.309059   -2.609860
 H   -4.703934   -1.811825   -2.427766
 H   -6.980699    0.003179    2.678982
 H   -2.840920    0.203869    3.701524
