52 
4pms_ligand_dft.xyz
 C    3.976187    0.108389   -0.028116
 C    4.532546   -1.236522    0.099799
 C    4.278554   -3.609653   -0.229555
 C    6.299858   -2.733798    0.760894
 C   -0.407154    2.294221    0.518268
 C   -0.022316    3.170944    1.647294
 C   -1.537711    1.529928    0.384035
 C   -1.415333    0.814707   -0.843287
 C   -2.228722   -0.103672   -1.542854
 C   -3.727237   -1.086330    0.283053
 C   -4.156060   -2.211947    2.837113
 C   -2.635047   -1.421271    1.131189
 C   -6.152402   -1.121026   -0.112130
 C   -5.961766   -0.620436   -1.372465
 O   -1.028804    3.530545    2.465896
 O    1.104207    3.544844    1.861533
 C   -0.185133    1.196319   -1.414064
 N    0.420468    2.099162   -0.581924
 C    1.719659    2.694121   -0.835075
 C    2.840677    1.810743   -0.373282
 N    2.819232    0.450596   -0.517980
 C    5.799491   -1.442093    0.652417
 C    5.541972   -3.816501    0.321038
 C    3.770625   -2.322406   -0.341672
 O    4.692931    1.155504    0.389346
 N    3.928384    2.291341    0.161020
 C    0.215062    0.674979   -2.649019
 C   -0.676836   -0.190086   -3.248049
 N   -1.864017   -0.572609   -2.728673
 C   -3.560802   -0.516141   -1.019694
 C   -4.659678   -0.319836   -1.824349
 C   -5.046522   -1.374780    0.739048
 C   -5.228422   -1.929944    2.033432
 C   -2.844061   -1.963961    2.372638
 H    3.687897   -4.453630   -0.571464
 H    7.283447   -2.895441    1.190340
 H   -2.345765    1.428600    1.096229
 H   -4.308004   -2.638477    3.823981
 H   -1.621282   -1.255455    0.783067
 H   -7.152853   -1.343890    0.249748
 H   -6.809477   -0.442397   -2.026968
 H   -1.879168    3.261127    2.093363
 H    1.791748    3.656858   -0.333356
 H    1.804780    2.858096   -1.914262
 H    6.384576   -0.594690    0.994183
 H    5.936623   -4.824316    0.407965
 H    2.788593   -2.141904   -0.766750
 H    1.169303    0.907786   -3.106684
 H   -0.435062   -0.627624   -4.213389
 H   -4.511759    0.085169   -2.820419
 H   -6.240613   -2.135953    2.372216
 H   -1.994716   -2.214137    3.001249
