54 
4pmt_ligand_ani.xyz
 C    3.775788   -2.599021    0.174919
 C    2.055951   -3.956728    0.711386
 N    2.855554    3.469257    1.933643
 C    5.514543   -1.046517   -0.428071
 N   -4.937905   -0.016200    0.037942
 C    3.836246    2.141299   -1.482002
 C    3.540880    2.958661    0.909406
 C    1.565668    3.732697    1.737425
 C    0.911513    3.502149    0.531693
 C    1.645758    2.979496   -0.525316
 C   -0.763129   -0.687280   -0.122716
 C   -3.008476   -1.552568    0.023667
 C   -1.299657    0.601515   -0.209478
 C   -7.194400   -0.623341    0.727593
 C   -6.909047    1.275405   -0.576758
 C   -5.520792    0.825222   -1.003410
 O   -7.741600    0.165434   -0.308266
 C   -5.807282   -1.135904    0.366505
 C   -3.556155   -0.265348   -0.048942
 C   -1.636972   -1.765555   -0.014933
 C   -2.668219    0.810335   -0.170110
 N    0.633163   -0.810862   -0.173690
 C    1.477186   -1.852888    0.083024
 N    1.080832   -3.045811    0.474186
 N    3.354680   -3.823561    0.591615
 C    2.875446   -1.564147   -0.095841
 N    3.218818   -0.322066   -0.503704
 C    4.499562   -0.064302   -0.663782
 C    5.153731   -2.293285   -0.010349
 N    4.855811    1.202868   -1.047024
 C    2.997211    2.695256   -0.348878
 H    1.698942   -4.929174    1.042263
 H    6.559335   -0.781657   -0.579837
 H    3.157449    1.658282   -2.197793
 H    4.347882    2.955812   -2.008941
 H    4.591760    2.751527    1.094812
 H    1.024018    4.144652    2.586368
 H   -0.145963    3.737076    0.428554
 H    1.177986    2.807533   -1.493901
 H   -3.657627   -2.418779    0.101350
 H   -0.632638    1.450485   -0.319965
 H   -7.879378   -1.462580    0.882367
 H   -7.141653   -0.040642    1.660661
 H   -7.390367    1.845372   -1.377540
 H   -6.835290    1.918801    0.314154
 H   -5.592276    0.283578   -1.963107
 H   -4.890529    1.702787   -1.170847
 H   -5.396104   -1.675016    1.227233
 H   -5.897447   -1.846857   -0.474897
 H   -1.237494   -2.770781    0.045965
 H   -3.061945    1.821952   -0.208624
 H    1.139103    0.037865   -0.405890
 H    5.894690   -3.063814    0.182677
 H    5.761536    1.283811   -1.479895
