71 
4pni_ligand_ani.xyz
 O   -5.253304   -0.853009   -0.448329
 C   -4.608303   -1.788110   -0.930790
 N   -5.181176   -2.995073   -1.168110
 C   -3.177018   -1.641731   -1.265220
 S   -2.242262   -2.871944   -2.050017
 C   -0.849326   -1.857326   -2.088701
 C   -1.077066   -0.643878   -1.521772
 C   -2.415160   -0.508988   -1.039989
 N   -2.954572    0.622252   -0.434402
 C   -2.333108    1.783635   -0.093190
 N   -1.010043    1.857094   -0.048479
 C   -3.139344    2.902157    0.224539
 C   -4.477250    3.239221    0.298326
 C   -4.442631    4.645054    0.680520
 N   -3.248156    5.146162    0.831717
 C   -2.397133    4.107019    0.560997
 N   -1.081987    4.173640    0.598651
 C   -0.451773    3.028026    0.315306
 N    0.913886    3.086197    0.384484
 C    1.834091    2.036786    0.239876
 C    3.161386    2.377183   -0.094169
 O    3.415733    3.714077   -0.172112
 C    4.738502    4.106647   -0.473634
 C    1.521804    0.709258    0.454748
 C    2.471657   -0.297866    0.253571
 C    3.761465    0.020344   -0.198623
 C    4.090212    1.375239   -0.338374
 N    2.085158   -1.644807    0.445140
 C    1.165035   -1.962134    1.414674
 C    0.539899   -3.358958    1.387914
 N   -0.658010   -3.312240    2.269740
 C   -1.898456   -2.972352    1.515464
 C   -0.855055   -4.544022    3.049698
 O    0.824090   -1.193089    2.302827
 C    2.821794   -2.656513   -0.312823
 C    4.312313   -2.438343   -0.101828
 C    4.774766   -1.053098   -0.597588
 C    6.153174   -0.775979    0.025555
 C    4.929197   -1.072392   -2.133349
 H   -6.169510   -3.070192   -0.981132
 H   -4.702454   -3.749218   -1.635295
 H    0.069684   -2.215083   -2.532035
 H   -0.358091    0.160252   -1.439853
 H   -3.963197    0.559501   -0.300520
 H   -5.358233    2.634060    0.114651
 H   -5.318814    5.274188    0.839725
 H    1.297837    4.014034    0.501778
 H    5.446808    3.718860    0.269440
 H    5.038120    3.766028   -1.472835
 H    4.745298    5.196864   -0.446329
 H    0.532237    0.443304    0.783508
 H    5.090492    1.646888   -0.663355
 H    1.250657   -4.097279    1.773066
 H    0.251450   -3.656551    0.376692
 H   -0.436926   -2.509737    2.882354
 H   -1.763475   -2.024494    0.989462
 H   -2.116963   -3.759401    0.787064
 H   -2.738094   -2.877388    2.210192
 H   -1.068208   -5.384832    2.377340
 H    0.040400   -4.779568    3.630535
 H   -1.699148   -4.416607    3.732088
 H    2.552473   -2.598464   -1.377021
 H    2.530259   -3.644356    0.044017
 H    4.891116   -3.218933   -0.608709
 H    4.520976   -2.521151    0.972468
 H    6.596258    0.151158   -0.349570
 H    6.083698   -0.702159    1.117135
 H    6.841696   -1.593360   -0.219196
 H    3.977037   -1.276283   -2.635896
 H    5.293471   -0.106805   -2.501950
 H    5.649446   -1.841843   -2.434650
