22 
4pnl_ligand_dft.xyz
 C    3.697577   -1.132622   -0.143844
 C    2.306938   -0.578485   -0.059128
 N    1.279867   -1.366696   -0.043803
 C    0.025369   -0.791923    0.032170
 C   -1.086170   -1.811388    0.045889
 C   -2.438228   -1.277608    0.501480
 S   -2.912281    0.217702   -0.416417
 C   -1.523212    1.240705    0.143868
 C   -0.184268    0.556043    0.075713
 C    0.960749    1.451781    0.079005
 O    0.929837    2.670958    0.136331
 N    2.184810    0.776733    0.002688
 H    4.289924   -0.835753    0.728662
 H    3.642109   -2.220177   -0.184738
 H    4.208916   -0.765324   -1.040409
 H   -0.767231   -2.634283    0.696346
 H   -1.168428   -2.230465   -0.964602
 H   -2.426436   -1.049760    1.573199
 H   -3.221061   -2.020458    0.329409
 H   -1.710847    1.593985    1.165003
 H   -1.499393    2.131332   -0.489706
 H    3.004975    1.370726   -0.004249
