21 
4pnm_ligand_xtb.xyz
 C    1.662963   -1.058938   -0.003530
 O    1.765223   -2.407376   -0.011048
 C    0.372211   -0.484283   -0.002770
 N   -0.720005   -1.309438   -0.000692
 C   -1.888542   -0.786749    0.001805
 C   -3.091825   -1.671255    0.011110
 N   -2.095709    0.565717   -0.002765
 C   -1.075849    1.510606   -0.004935
 O   -1.340758    2.694256   -0.009841
 C    0.258404    0.917247   -0.000587
 C    1.393018    1.730648    0.006324
 C    2.640739    1.153347    0.010458
 C    2.772069   -0.232351    0.004259
 H    2.695696   -2.665486   -0.010996
 H   -3.079802   -2.308772   -0.870113
 H   -3.055580   -2.320985    0.882618
 H   -4.012247   -1.093919    0.027636
 H   -3.038483    0.937590   -0.004193
 H    1.258792    2.800785    0.009195
 H    3.527267    1.768707    0.018198
 H    3.759502   -0.676539    0.006171
