17 
4pnn_ligand_ani.xyz
 C    2.400586    1.012781    0.000589
 C    2.701929   -0.359843   -0.002161
 C    1.082009    1.419298    0.002576
 C    1.696758   -1.303338   -0.001328
 C   -1.856688   -1.468645    0.000640
 C    0.054050    0.471050    0.001559
 C    0.348262   -0.902266    0.000870
 C   -1.346391    0.915433   -0.000369
 N   -0.645265   -1.886728    0.001886
 N   -2.244679   -0.153661   -0.001250
 O   -1.751863    2.062028   -0.001705
 H    3.203396    1.744522    0.000474
 H    3.740977   -0.681239   -0.004998
 H    0.805899    2.470644    0.004581
 H    1.914010   -2.367760   -0.002623
 H   -2.676853   -2.185236    0.001058
 H   -3.225998    0.098753   -0.003562
