31 
4po0_ligand_ani.xyz
 C    3.352085    0.052492   -0.076617
 O    4.679625    0.316922   -0.207613
 C    2.829811   -1.253865    0.115300
 C   -3.178125    0.390970    0.467730
 C    1.475596   -1.434375    0.236659
 C    0.575973   -0.343665    0.178133
 C    1.104008    0.959595   -0.011917
 C    2.502300    1.132511   -0.139249
 C   -0.829465   -0.512392    0.300969
 C   -1.681563    0.562731    0.262228
 C   -3.526673   -0.139201    1.861451
 C    0.202283    2.058850   -0.071132
 C   -1.145614    1.861773    0.063998
 C    5.577011   -0.768301   -0.142085
 O   -3.935839   -1.727290   -0.436693
 O   -3.882140    0.069709   -1.774215
 C   -3.709229   -0.551659   -0.592871
 H    3.492093   -2.110857    0.166382
 H   -3.655687    1.362341    0.306273
 H    1.075945   -2.437042    0.382923
 H    2.920602    2.124617   -0.287866
 H   -1.223462   -1.520330    0.416011
 H   -3.094882   -1.132792    2.010203
 H   -3.140603    0.528546    2.637248
 H   -4.610846   -0.223632    1.979735
 H    0.601920    3.058947   -0.222634
 H   -1.830307    2.707423    0.020676
 H    6.573056   -0.341471   -0.265795
 H    5.390038   -1.494238   -0.944297
 H    5.518509   -1.280850    0.827129
 H   -4.199933   -0.608174   -2.393413
