47 
4poh_ligand_ani.xyz
 C   -2.423632    1.455942    1.518409
 C   -3.920686    1.646870    1.837888
 C   -4.786983    1.343179    0.616188
 C   -4.525968   -0.063363    0.130156
 C   -5.548219   -0.897112   -0.295362
 C   -5.278370   -2.194285   -0.708120
 C   -3.970001   -2.668859   -0.668231
 C   -2.912075   -1.871842   -0.255894
 C   -1.547100   -2.506142   -0.147013
 C   -3.183462   -0.522013    0.097843
 C   -2.155518    0.467477    0.403634
 C   -0.977178    0.518527   -0.281492
 C   -0.349497    1.717177   -0.833763
 C   -1.257935    2.798646   -1.370825
 C    0.997024    1.800025   -0.943062
 C    1.931707    0.813160   -0.425248
 C    3.261799    0.913382   -0.589573
 C    4.275633   -0.034105   -0.114148
 C    3.807904   -1.294777    0.585015
 C    5.559290    0.250978   -0.379606
 C    6.765775   -0.431160    0.174743
 O    7.783660   -0.550609   -0.452544
 O    6.681348   -0.914655    1.438047
 H   -1.897015    1.116268    2.421851
 H   -1.947282    2.406305    1.260346
 H   -4.106845    2.663266    2.203648
 H   -4.213102    0.962168    2.645049
 H   -4.566884    2.060963   -0.191242
 H   -5.850082    1.466733    0.854789
 H   -6.573228   -0.529536   -0.297895
 H   -6.085729   -2.842791   -1.038477
 H   -3.765352   -3.699148   -0.955767
 H   -1.644900   -3.589669   -0.021026
 H   -0.948316   -2.359433   -1.054616
 H   -0.980625   -2.129528    0.710279
 H   -0.471584   -0.406328   -0.544811
 H   -0.699085    3.548857   -1.938422
 H   -2.011626    2.346450   -2.024220
 H   -1.800104    3.314761   -0.572132
 H    1.429699    2.660296   -1.452906
 H    1.503084   -0.023065    0.128921
 H    3.662026    1.774715   -1.122324
 H    4.611617   -2.027778    0.691361
 H    3.392507   -1.074189    1.574715
 H    3.010022   -1.766614    0.003528
 H    5.797008    1.007650   -1.123432
 H    5.860691   -0.608471    1.849522
