45 
4poj_ligand_dft.xyz
 C    1.337959   -1.118623    1.624642
 C    1.817647   -0.397884    2.742678
 C    2.764605    0.575102    2.580439
 C    3.271064    0.870173    1.288361
 C    4.248075    1.880081    1.090550
 C    4.728561    2.163471   -0.158642
 C    4.261653    1.453862   -1.294757
 C    4.807773    1.790364   -2.658198
 C    3.316609    0.471393   -1.119021
 C    2.793230    0.145227    0.161726
 C    1.803850   -0.873621    0.355573
 C    1.291063   -1.646287   -0.851814
 C    0.329092   -2.772234   -0.546308
 C    0.951330   -4.131646   -0.395375
 C   -0.993036   -2.582923   -0.391755
 C   -1.666212   -1.295812   -0.434622
 C   -2.992841   -1.147584   -0.270848
 C   -3.709521    0.129535   -0.257552
 C   -2.907993    1.383942   -0.509202
 C   -5.043243    0.107700   -0.054514
 C   -5.986037    1.259867   -0.032020
 O   -7.065974    1.227906   -0.562080
 O   -5.598181    2.367339    0.649586
 H    0.578458   -1.879270    1.775978
 H    1.425576   -0.624957    3.729528
 H    3.139566    1.135408    3.433038
 H    4.610800    2.430134    1.955335
 H    5.476876    2.941176   -0.290656
 H    4.614588    2.839119   -2.911657
 H    5.893380    1.643350   -2.694184
 H    4.357530    1.167224   -3.436198
 H    2.961453   -0.067197   -1.992588
 H    2.153085   -2.070247   -1.383280
 H    0.832792   -0.940696   -1.556293
 H    0.216627   -4.892747   -0.118165
 H    1.439010   -4.445730   -1.327080
 H    1.731511   -4.106332    0.376595
 H   -1.623305   -3.448517   -0.188824
 H   -1.043057   -0.415648   -0.573768
 H   -3.602611   -2.036889   -0.113925
 H   -3.534615    2.270327   -0.616353
 H   -2.183493    1.556326    0.295889
 H   -2.334828    1.275731   -1.435732
 H   -5.550953   -0.850424    0.018518
 H   -4.786921    2.173287    1.137722
