32 
4pop_ligand_ani.xyz
 C   -5.442036   -0.660444    0.679745
 N   -1.142515    1.041005    1.658770
 C    2.559180    2.018636   -0.131587
 O    5.081798    0.491940   -0.066205
 C    4.299293   -0.385003    0.725682
 C    0.667255   -1.197113   -0.578443
 S    2.074658   -1.977780    0.021070
 C    2.902685   -0.459626    0.172529
 C    2.112495    0.589316   -0.202562
 C    0.806256    0.156265   -0.636928
 C   -0.314434    1.053515   -1.120832
 C   -2.021659    0.596452    0.708016
 N   -3.227826    0.215258    1.130421
 C   -4.092597   -0.208548    0.202002
 N   -3.868178   -0.262762   -1.110327
 C   -2.658804    0.150523   -1.510181
 C   -1.673381    0.600701   -0.662453
 H   -5.334817   -1.484940    1.390203
 H   -5.952021    0.157734    1.196014
 H   -6.040914   -0.985671   -0.172451
 H   -1.443192    0.849215    2.603284
 H   -0.155135    0.896485    1.492286
 H    2.960196    2.250512    0.861014
 H    3.358782    2.212540   -0.851767
 H    1.741507    2.713547   -0.332582
 H    5.974322    0.498420    0.299446
 H    4.241369   -0.010348    1.764614
 H    4.738632   -1.389770    0.761605
 H   -0.210067   -1.767514   -0.857708
 H   -0.307224    1.091652   -2.217628
 H   -0.141462    2.081882   -0.779105
 H   -2.474775    0.112672   -2.586674
