47 
4pp5_ligand_ani.xyz
 C   -6.260429   -1.792272    0.708367
 C   -4.985812   -1.501546   -0.050160
 C   -4.677505   -2.254098   -1.175674
 C   -3.521248   -1.999371   -1.913604
 C   -2.664391   -0.992018   -1.525071
 C   -2.939549   -0.215751   -0.375176
 C   -4.114898   -0.481826    0.362976
 C   -4.466607    0.349660    1.585399
 C   -3.271562    1.082573    2.182480
 C   -2.512833    1.823616    1.081120
 C   -2.025995    0.862144    0.032120
 C   -0.769956    0.922452   -0.484418
 C    0.020333    2.124602   -0.724415
 C   -0.723371    3.374987   -1.111747
 C    1.374833    2.083951   -0.689012
 C    2.166622    0.938371   -0.272095
 C    3.507970    0.911654   -0.364122
 C    4.389371   -0.203390   -0.001304
 C    3.756478   -1.473774    0.528038
 C    5.703371   -0.048605   -0.223028
 C    6.803501   -0.941497    0.245956
 O    7.802212   -1.127396   -0.395426
 O    6.642175   -1.543779    1.449399
 H   -6.850094   -2.556126    0.195058
 H   -6.055439   -2.159851    1.720965
 H   -6.885201   -0.896785    0.803400
 H   -5.353451   -3.047750   -1.486486
 H   -3.294935   -2.594430   -2.795712
 H   -1.784748   -0.771721   -2.122624
 H   -4.935333   -0.280880    2.351258
 H   -5.235256    1.085749    1.296182
 H   -2.598220    0.362125    2.665463
 H   -3.602202    1.781853    2.959405
 H   -1.663096    2.374665    1.500001
 H   -3.191760    2.557855    0.618349
 H   -0.272165   -0.008861   -0.757712
 H   -1.342956    3.758526   -0.295738
 H   -0.039397    4.173176   -1.415266
 H   -1.399504    3.153807   -1.944274
 H    1.929844    2.968857   -0.999092
 H    1.621779    0.085248    0.137540
 H    4.023981    1.788678   -0.751742
 H    4.472915   -2.296582    0.591624
 H    3.307507   -1.314708    1.514674
 H    2.951983   -1.791855   -0.142262
 H    6.046732    0.756802   -0.868046
 H    5.863974   -1.177568    1.893467
