49 
4pp7_ligand_ani.xyz
 N   -0.845196   -1.224879   -0.192226
 C    0.364258   -0.760809    0.354545
 C    1.563210   -0.810854   -0.352036
 C    2.791955   -0.373500    0.151471
 C    2.813181    0.150932    1.438131
 C    1.640695    0.214270    2.184130
 C    0.448562   -0.232976    1.649164
 F   -0.665315   -0.160309    2.394422
 F    1.555911   -1.297762   -1.619460
 N    3.900446   -0.449125   -0.719210
 S    5.519596   -0.494920   -0.287888
 C    6.152751    1.128722   -0.708388
 C    4.325048    2.889117   -0.311148
 C    5.651709    2.291216    0.147750
 C   -1.967712   -0.383652   -0.256859
 C   -1.806559    0.991886   -0.547863
 C   -2.897891    1.822337   -0.653133
 C   -4.199474    1.324125   -0.467980
 C   -4.355489   -0.035004   -0.175821
 C   -3.247709   -0.880446   -0.078177
 N   -5.282593    2.187749   -0.580531
 C   -6.445317    1.673848   -0.405458
 N   -6.722990    0.357238   -0.119281
 C   -5.702241   -0.591214    0.017835
 C   -8.109582   -0.076037    0.033625
 O   -5.939661   -1.758684    0.273818
 O    5.647684   -0.659639    1.149326
 O    6.118276   -1.438301   -1.217545
 C   -0.985401   -2.643493   -0.451315
 H    3.741887    0.503254    1.864716
 H    1.637418    0.614859    3.190921
 H    3.730403   -0.987516   -1.561363
 H    5.940342    1.271869   -1.773644
 H    7.235220    0.995092   -0.600296
 H    4.400813    3.266989   -1.337261
 H    3.514080    2.154927   -0.284511
 H    4.039074    3.726170    0.333586
 H    6.424170    3.068019    0.103423
 H    5.594109    1.972227    1.195288
 H   -0.806827    1.394646   -0.698094
 H   -2.782531    2.878374   -0.878489
 H   -3.431563   -1.926918    0.152726
 H   -7.327595    2.308468   -0.482031
 H   -8.613555    0.517791    0.801583
 H   -8.652788    0.012610   -0.912477
 H   -8.086002   -1.120100    0.337015
 H   -1.278200   -3.209538    0.445934
 H   -1.738089   -2.797444   -1.230383
 H   -0.031308   -3.037115   -0.811988
