45 
4ppa_ligand_dft.xyz
 C   -6.290484    0.043853    2.250747
 C   -5.667439   -0.701017    1.256513
 C   -5.953278   -0.464924   -0.091020
 C   -6.867656    0.524453   -0.430577
 C   -7.498502    1.271206    0.571473
 C   -7.209807    1.032507    1.917019
 C   -8.440347    2.293971    0.207625
 N   -9.198610    3.118697   -0.089555
 C   -5.281905   -1.292063   -1.168901
 N   -3.853824   -1.421985   -0.966919
 C   -2.903151   -0.487044   -1.210639
 C   -1.719774   -1.005222   -0.725299
 C   -2.067050   -2.266067   -0.188240
 N   -3.365893   -2.500140   -0.336020
 N   -0.472827   -0.380504   -0.789078
 C    0.687296   -0.892016   -0.294067
 O    0.799688   -1.969965    0.273639
 C    1.850257   -0.003350   -0.506712
 C    3.147257   -0.188383   -0.151476
 C    3.915666   -1.203947    0.515789
 C    5.240970   -1.000042    0.680402
 C    5.909141    0.210498    0.204655
 C    5.112448    1.235392   -0.473161
 C    3.795298    1.011114   -0.625739
 N    2.833137    1.847938   -1.242041
 N    1.714531    1.248864   -1.165660
 C    7.248244    0.404296    0.377156
 C    8.092471    1.534148   -0.022572
 N    9.318096    1.346094    0.319542
 N    9.415092    0.072167    0.981883
 C    8.244119   -0.460066    1.014191
 H   -6.059937   -0.146813    3.293798
 H   -4.947428   -1.471866    1.517309
 H   -7.099975    0.727861   -1.472094
 H   -7.700744    1.618828    2.686241
 H   -5.458693   -0.853834   -2.155832
 H   -5.676345   -2.311260   -1.177236
 H   -3.131836    0.450024   -1.697238
 H   -1.419698   -2.988835    0.280673
 H   -0.408574    0.527892   -1.232280
 H    3.417782   -2.100054    0.867102
 H    5.844942   -1.748492    1.179684
 H    5.573706    2.145477   -0.839240
 H    7.793594    2.438025   -0.538926
 H    8.085144   -1.428941    1.470863
