45 
4prj_ligand_ani.xyz
 C   -6.732026   -1.103729    1.962475
 C   -5.877449   -1.286951    0.879867
 C   -6.076165   -0.579599   -0.303567
 C   -7.124771    0.327302   -0.388367
 C   -7.983328    0.513526    0.696939
 C   -7.790030   -0.206230    1.878546
 C   -9.073777    1.446372    0.582596
 N   -9.953675    2.194462    0.490703
 C   -5.144362   -0.768950   -1.477031
 N   -3.785584   -0.360420   -1.177722
 C   -2.677856   -1.138069   -1.057895
 C   -1.640615   -0.290898   -0.743565
 C   -2.231587    0.994697   -0.690853
 N   -3.531059    0.934345   -0.952751
 N   -0.307371   -0.662550   -0.534305
 C    0.743850    0.192462   -0.393647
 O    0.655234    1.411870   -0.377227
 C    2.013676   -0.508969   -0.263928
 C    3.310659    0.014401   -0.113608
 C    3.874281    1.301256   -0.029941
 C    5.239793    1.387856    0.119831
 C    6.064543    0.225450    0.191476
 C    5.490145   -1.032731    0.103580
 C    4.108504   -1.134175   -0.048877
 N    3.299492   -2.291031   -0.158974
 N    2.082017   -1.881945   -0.283933
 C    7.496762    0.374105    0.354784
 C    8.430643   -0.481246    1.008042
 N    9.641561   -0.003970    0.947803
 N    9.591795    1.204905    0.235238
 C    8.350914    1.420866   -0.097605
 H   -6.571551   -1.665661    2.878382
 H   -5.047744   -1.985342    0.955671
 H   -7.291652    0.903389   -1.296339
 H   -8.463103   -0.059762    2.718654
 H   -5.490668   -0.173533   -2.326657
 H   -5.110060   -1.818732   -1.782985
 H   -2.708091   -2.210152   -1.207711
 H   -1.744470    1.936527   -0.475144
 H   -0.066805   -1.650641   -0.531569
 H    3.235068    2.173554   -0.084746
 H    5.714803    2.360303    0.196889
 H    6.092464   -1.931537    0.137697
 H    8.234776   -1.411953    1.530248
 H    8.084127    2.301549   -0.672515
