48 
4psq_ligand_ani.xyz
Cl    5.935452   -0.991865    0.270233
 C    5.391246    0.649355    0.072540
 C    6.346386    1.648757   -0.068593
 C    5.949866    2.973648   -0.204769
 C    4.596805    3.289132   -0.187020
 C    3.646357    2.287329   -0.035923
 C    4.017387    0.940856    0.086633
 N    3.070606   -0.101158    0.220793
 C    2.824004   -0.882950   -0.995962
 C    2.078948   -2.161661   -0.626156
 C    1.826847    0.238468    0.901454
 C    1.106353   -1.048445    1.287740
 N    0.849706   -1.837798    0.086738
 C   -0.347668   -2.081132   -0.535089
 O   -0.398277   -2.655572   -1.617627
 C   -1.635195   -1.648738    0.074853
 C   -2.827248   -1.799364   -0.585573
 N   -1.850796   -1.061810    1.301035
 C   -3.141072   -0.862602    1.362732
 N   -3.790096   -1.289655    0.245529
 C   -5.220768   -1.172143   -0.003909
 C   -5.694185    0.264759   -0.110142
 C   -6.730838    0.733936    0.694699
 C   -5.096353    1.139070   -1.018646
 C   -5.529023    2.456528   -1.120276
 C   -6.564277    2.917840   -0.311733
 C   -7.165149    2.053426    0.597299
 H    7.397872    1.375921   -0.075746
 H    6.696813    3.753495   -0.319800
 H    4.272223    4.321828   -0.283818
 H    2.593230    2.548891   -0.009877
 H    3.782173   -1.126629   -1.464718
 H    2.230671   -0.308302   -1.728702
 H    2.712117   -2.768666    0.034556
 H    1.817556   -2.748128   -1.508529
 H    1.156124    0.848184    0.268324
 H    2.065338    0.818517    1.798908
 H    0.177067   -0.844772    1.814967
 H    1.766282   -1.641506    1.934431
 H   -3.054885   -2.219824   -1.555972
 H   -3.678031   -0.414810    2.188434
 H   -5.766012   -1.687335    0.793724
 H   -5.421563   -1.711587   -0.934032
 H   -7.201033    0.061337    1.410764
 H   -4.283961    0.785674   -1.649785
 H   -5.054355    3.126940   -1.833012
 H   -6.900604    3.948726   -0.390370
 H   -7.973972    2.404861    1.233685
