33 
4ptc_ligand_ani.xyz
 O   -2.619578   -2.650987   -0.063490
 C   -2.506123   -1.303856   -0.031609
 C   -3.567426   -0.444060    0.008139
 S   -2.969673    1.183851    0.038776
 C   -1.355242    0.556382   -0.009159
 N   -1.267847   -0.752465   -0.038960
 C   -0.129060    1.367824   -0.014278
 C   -0.109175    2.763957   -0.048783
 C    1.125680    3.394726   -0.050005
 N    2.298629    2.753775   -0.019452
 C    2.258440    1.423603    0.009806
 C    1.077693    0.683634    0.013143
 N    3.524957    0.822653    0.040433
 C    3.848304   -0.512843    0.023533
 O    3.027949   -1.415949   -0.010756
 C    5.316425   -0.800036    0.045900
 C    5.731850   -2.073071    0.741973
 C    5.765377   -2.006234   -0.743391
 C   -5.023262   -0.694154    0.023988
 O   -5.822375    0.229631    0.065700
 N   -5.387012   -2.001309   -0.011348
 H   -1.714336   -2.995609   -0.088580
 H   -1.013684    3.361708   -0.076040
 H    1.178604    4.480323   -0.076836
 H    1.112031   -0.395914    0.035118
 H    4.278116    1.494309    0.046350
 H    5.983487    0.056239    0.100335
 H    4.924378   -2.643928    1.190828
 H    6.668869   -2.065095    1.290378
 H    6.725576   -1.950821   -1.247114
 H    4.980038   -2.532898   -1.277513
 H   -6.373320   -2.203690   -0.008857
 H   -4.704940   -2.741608   -0.050375
