37 
4pte_ligand_ani.xyz
 C   -2.566360   -1.555341   -1.048604
 C   -1.420281   -0.810832   -0.977813
 C   -1.379534    0.418915   -0.264246
 C   -2.516314    0.851281    0.375478
 C   -3.714748    0.096842    0.328102
 C   -3.746193   -1.118667   -0.391816
 C   -4.969556   -1.834435   -0.410935
 C   -6.050164   -1.325126    0.256072
 N   -6.036176   -0.155614    0.951567
 C   -4.911150    0.513387    0.976261
 C   -0.114548    1.208211   -0.229606
 C   -0.123200    2.601308   -0.346067
 C    1.088339    3.276397   -0.323957
 N    2.275733    2.680299   -0.183313
 C    2.269731    1.351502   -0.067982
 C    1.112784    0.571000   -0.090047
 N    3.549266    0.796438    0.080024
 C    3.910222   -0.527427    0.162155
 O    3.122834   -1.458075    0.104717
 C    5.378837   -0.765344    0.322406
 C    5.768498   -2.018404    1.067255
 C    5.940764   -1.961414   -0.408932
 H   -2.583971   -2.491142   -1.599897
 H   -0.517662   -1.145036   -1.484391
 H   -2.505315    1.778073    0.943497
 H   -5.040760   -2.775125   -0.949833
 H   -7.001705   -1.853322    0.258135
 H   -4.906224    1.451076    1.535240
 H   -1.053581    3.144459   -0.479478
 H    1.108623    4.359940   -0.419197
 H    1.199738   -0.502738    0.017062
 H    4.282624    1.490099    0.091020
 H    6.009282    0.113393    0.430450
 H    4.941067   -2.612775    1.443288
 H    6.648430   -1.974952    1.701733
 H    6.942506   -1.876462   -0.819035
 H    5.229748   -2.519867   -1.010618
