43 
4puj_ligand_ani.xyz
 N   19.108563   17.621265   18.153938
 C   18.303138   17.491465   19.277565
 C   18.629871   17.533545   20.619987
 C   17.618470   17.361914   21.561964
 C   17.952719   17.412531   22.990204
 O   19.051607   17.620695   23.465023
 N   16.848879   17.191500   23.815581
 C   15.567983   16.996247   23.340482
 N   14.604737   16.868696   24.319378
 N   15.244922   16.975686   22.093981
 C   16.268638   17.147887   21.176013
 C   15.938402   17.108754   19.812606
 C   16.950711   17.280066   18.901401
 N   16.971960   17.311021   17.514497
 C   18.285692   17.499608   17.147045
 N   18.675102   17.520234   15.833120
 C   17.775627   17.971483   14.790270
 C   18.537630   18.012276   13.470192
 H   19.650417   17.696152   20.956213
 H   17.024819   17.303028   24.808006
 H   13.718594   16.570408   23.933099
 H   14.873123   16.341651   25.138630
 H   14.898567   16.945892   19.540910
 H   16.208583   17.062058   16.906382
 H   19.625977   17.854790   15.735425
 H   16.938941   17.268478   14.696518
 H   17.343155   18.961131   15.015876
 H   18.862958   16.990562   13.240454
 H   17.865829   18.334809   12.651702
 N   19.721979   18.847384   13.562010
 C   20.685006   18.574764   12.512005
 C   21.990875   19.313157   12.809177
 O   21.776520   20.591858   13.385183
 C   20.519377   21.122876   13.046493
 C   19.392580   20.272735   13.638984
 H   20.892790   17.499280   12.484273
 H   20.306949   18.847764   11.505686
 H   22.589035   18.756946   13.537297
 H   22.575962   19.405259   11.879522
 H   20.485065   22.136705   13.454958
 H   20.408932   21.197786   11.951417
 H   18.455787   20.497614   13.098921
 H   19.237532   20.551038   14.689611
