43 
4puj_ligand_xtb.xyz
 N   19.097490   16.900655   17.954536
 C   18.347325   16.984974   19.104468
 C   18.699619   16.785526   20.422189
 C   17.713820   16.947191   21.396320
 C   18.054733   16.745834   22.796791
 O   19.139416   16.441685   23.249120
 N   16.978557   16.931620   23.662908
 C   15.721667   17.282133   23.244639
 N   14.790371   17.503509   24.219989
 N   15.405559   17.459317   22.010833
 C   16.383488   17.306247   21.059581
 C   16.028415   17.510265   19.723868
 C   17.010181   17.347422   18.777403
 N   17.001154   17.476758   17.407091
 C   18.278764   17.185979   16.982059
 N   18.620566   17.149279   15.670275
 C   17.866816   17.851395   14.653500
 C   18.621941   17.874767   13.310685
 H   19.700074   16.512450   20.714537
 H   17.179179   16.827154   24.649927
 H   13.847216   17.598318   23.882134
 H   14.901526   17.033681   25.103015
 H   15.014943   17.783565   19.478224
 H   16.203923   17.688319   16.833950
 H   19.613503   17.057040   15.526189
 H   16.914702   17.327300   14.504577
 H   17.640606   18.881619   14.964331
 H   19.118992   16.909588   13.176708
 H   17.888300   17.989422   12.507900
 N   19.608872   18.910420   13.118128
 C   20.759677   18.873399   14.002267
 C   21.821102   19.827651   13.446415
 O   21.325499   21.141023   13.341884
 C   20.189342   21.176323   12.512364
 C   19.085122   20.261335   13.047209
 H   20.509905   19.189332   15.029501
 H   21.166041   17.859711   14.020090
 H   22.683012   19.876694   14.113501
 H   22.140246   19.469953   12.455908
 H   19.855986   22.215228   12.491531
 H   20.458417   20.854852   11.494965
 H   18.231426   20.279151   12.366875
 H   18.766510   20.640913   14.033617
