25 
4puk_ligand_ani.xyz
 N   -2.561085   -0.994638   -0.058876
 N   -2.428495    1.304989   -0.033817
 C   -3.179136    0.196557   -0.058201
 C   -5.412942   -0.794098    0.154067
 C   -1.160717    0.795951   -0.017812
 C    0.077379    1.425026    0.004169
 C    1.226116    0.648795    0.008588
 C    3.587012   -0.845983    0.007261
 C    1.148577   -0.769287   -0.004799
 C   -0.091341   -1.418357   -0.024710
 C   -1.240483   -0.638647   -0.033914
 N   -4.536493    0.314604   -0.111997
 C    2.587132    1.294807    0.023406
 O    2.661152    2.517413    0.036725
 N    3.689494    0.509629    0.020001
 N    4.574414   -1.664157   -0.000031
 N    2.318522   -1.457858    0.001602
 H   -4.923714   -1.687030   -0.232653
 H   -5.593058   -0.934927    1.227117
 H   -6.364691   -0.643709   -0.361539
 H    0.184358    2.504778    0.015683
 H   -0.144211   -2.503184   -0.034322
 H   -4.868728    1.253959    0.030980
 H    5.434270   -1.121764    0.004664
 H    2.342485   -2.463992   -0.010237
