25 
4pul_ligand_ani.xyz
 N   -2.559991   -0.995091   -0.043692
 N   -2.428088    1.304938   -0.053591
 C   -3.178657    0.196125   -0.062925
 C   -5.418761   -0.791736    0.141631
 C   -1.160228    0.796613   -0.025552
 C    0.078184    1.425664   -0.005540
 C    1.226827    0.649388    0.015519
 C    3.586886   -0.846629   -0.004901
 C    1.148989   -0.768737    0.017236
 C   -0.091014   -1.417667    0.002433
 C   -1.239867   -0.638065   -0.020695
 N   -4.535388    0.312357   -0.119988
 C    2.588370    1.294581    0.032695
 O    2.663260    2.516815    0.062439
 N    3.690251    0.508899    0.009020
 N    4.572691   -1.665379   -0.050914
 N    2.318571   -1.457767    0.036081
 H   -4.893205   -1.696686   -0.160030
 H   -5.675137   -0.876294    1.205054
 H   -6.333217   -0.684710   -0.447791
 H    0.185532    2.505424   -0.007388
 H   -0.144415   -2.502433    0.007359
 H   -4.870532    1.254893   -0.008500
 H    5.432649   -1.123882   -0.079396
 H    2.341546   -2.463753    0.013351
