61 
4pv0_ligand_ani.xyz
 O    7.437721   -0.056406    2.630374
 C    6.997277    0.084316    1.519113
 O    7.706718    0.771560    0.594558
 C    5.676635   -0.468523    1.086296
 C    4.740090   -0.769815    2.076260
 C    3.500846   -1.287902    1.741667
 C    5.358480   -0.736931   -0.247376
 C    4.127829   -1.273418   -0.595603
 C    3.187765   -1.549412    0.403390
 N    1.902875   -2.029189    0.093559
 C    1.535198   -2.750210   -1.020641
 O    2.314782   -3.125499   -1.878895
 C    0.071650   -3.079031   -1.077470
 C   -0.317923   -4.248787   -1.726234
 C   -1.663433   -4.593537   -1.781261
 C   -0.897425   -2.241046   -0.529106
 C   -2.248951   -2.573585   -0.591936
 C   -2.626975   -3.766533   -1.211960
 C   -3.248330   -1.645592    0.001913
 C   -4.466080   -2.081096    0.434780
 N   -2.827226   -0.339166    0.091280
 C   -3.665729    0.544246    0.564632
 C   -4.974500    0.176407    1.037478
 N   -5.931009    0.931384    1.554824
 C   -6.941878    0.053915    1.821885
 C   -6.608551   -1.233037    1.469802
 N   -5.335570   -1.147522    0.963720
 N   -3.390358    1.877437    0.669278
 C   -2.300452    2.632414    0.204589
 C   -1.100970    2.052441   -0.214497
 C   -0.054439    2.854062   -0.661544
 O    1.131939    2.366302   -1.111515
 C    1.338750    0.974561   -0.998197
 C   -2.433324    4.023397    0.182149
 C   -1.381792    4.816601   -0.259124
 C   -0.187222    4.254804   -0.679127
 O    0.854163    5.065794   -1.044436
 C    1.115266    5.098938   -2.439219
 H    7.172688    0.929284   -0.195891
 H    5.005095   -0.586965    3.113074
 H    2.773456   -1.498351    2.522521
 H    6.086992   -0.571271   -1.040838
 H    3.883148   -1.469224   -1.632910
 H    1.227747   -1.987406    0.842951
 H    0.446109   -4.874754   -2.178358
 H   -1.968474   -5.513440   -2.273203
 H   -0.619668   -1.292823   -0.071125
 H   -3.674272   -4.048813   -1.285701
 H   -4.807683   -3.106572    0.430564
 H   -7.874722    0.383123    2.258671
 H   -7.137013   -2.172043    1.527744
 H   -4.161722    2.408496    1.056284
 H   -1.007644    0.976351   -0.187719
 H    1.268804    0.655360    0.049189
 H    0.607299    0.416201   -1.599581
 H    2.343546    0.765848   -1.369634
 H   -3.361178    4.489730    0.503150
 H   -1.472886    5.898252   -0.279722
 H    1.366012    4.103023   -2.819476
 H    0.251514    5.497673   -2.987964
 H    1.968429    5.767813   -2.575291
