108 
4pxf_ligand_xtb.xyz
 N    0.812571    0.987921   -1.114101
 C    2.143231    1.067956   -1.729416
 C    3.093246    0.571712   -0.614954
 O    2.760525    0.795513    0.540648
 C    2.466690    2.510134   -2.116632
 C    3.719585    2.575089   -2.963994
 O    4.036033    3.818693   -3.282548
 O    4.353648    1.611163   -3.307828
 N    4.173439   -0.078818   -1.019071
 C    5.071979   -0.838860   -0.155402
 C    4.306891   -2.109246    0.262438
 O    4.619745   -3.207146   -0.141689
 C    5.631566   -0.041641    1.033490
 C    6.188563    1.321680    0.593569
 C    6.686763   -0.892923    1.736068
 C    7.166498    1.280453   -0.575720
 N    3.246132   -1.892253    1.072890
 C    2.235990   -2.909272    1.211854
 C    1.130869   -2.671758    0.161437
 O    1.158883   -1.728964   -0.614318
 C    1.656424   -2.927892    2.640528
 C    0.511842   -1.942679    2.730473
 O   -0.603543   -2.498359    3.152444
 O    0.610188   -0.779769    2.416459
 N    0.177827   -3.611046    0.146281
 C   -0.958580   -3.546576   -0.743608
 C   -1.938918   -2.461088   -0.253484
 O   -1.816471   -1.937003    0.830783
 C   -1.640686   -4.923265   -0.858543
 C   -2.149381   -5.415883    0.496849
 C   -0.691819   -5.938777   -1.491560
 N   -2.943562   -2.226979   -1.127778
 C   -3.836350   -1.082798   -1.081471
 C   -3.057357    0.159229   -1.527133
 O   -1.851718    0.258064   -1.377468
 C   -4.442295   -0.891844    0.318012
 C   -5.498009    0.201892    0.388212
 S   -6.731024    0.179176   -0.962615
 C   -7.697534   -1.282996   -0.509123
 N   -3.798899    1.121933   -2.099568
 C   -3.178175    2.326766   -2.621953
 C   -2.078572    2.769996   -1.660117
 O   -0.906840    2.876042   -1.997791
 N   -2.523794    3.049028   -0.430984
 C   -1.650414    3.259929    0.707195
 C   -1.440165    1.903631    1.399575
 O   -2.345107    1.215775    1.789836
 C   -2.279800    4.259494    1.679485
 C   -1.463595    4.463920    2.962865
 C   -2.194575    5.457380    3.863599
 C   -0.049785    4.959207    2.667597
 O   -0.160383    1.596227    1.474316
 H    0.938664    1.244409   -0.107212
 H    0.103805    1.622861   -1.547421
 H    0.472033    0.010893   -1.105191
 H    2.201933    0.419571   -2.605606
 H    1.642142    2.949752   -2.682942
 H    2.618511    3.128211   -1.229308
 H    4.838611    3.858337   -3.828474
 H    4.360383   -0.103811   -2.012773
 H    5.904229   -1.173207   -0.779123
 H    4.823192    0.157813    1.742195
 H    6.687679    1.764699    1.457180
 H    5.353048    1.975766    0.333849
 H    6.261116   -1.842284    2.051940
 H    7.522347   -1.104708    1.074778
 H    7.064533   -0.374860    2.613306
 H    7.975776    0.581353   -0.386223
 H    6.669642    0.999996   -1.501432
 H    7.604621    2.265708   -0.716916
 H    2.953547   -0.941601    1.276196
 H    2.725246   -3.865384    0.986488
 H    1.300263   -3.917464    2.922632
 H    2.444285   -2.629333    3.334088
 H   -1.365407   -1.901614    3.040064
 H    0.133218   -4.292805    0.886219
 H   -0.578788   -3.233116   -1.724812
 H   -2.505251   -4.803045   -1.519512
 H   -2.815976   -6.261920    0.352582
 H   -2.696119   -4.632471    1.016320
 H   -1.334312   -5.751111    1.134329
 H    0.205453   -6.063260   -0.890840
 H   -1.183701   -6.904061   -1.574297
 H   -0.392843   -5.621085   -2.487459
 H   -2.846896   -2.644191   -2.041292
 H   -4.645759   -1.271793   -1.795351
 H   -3.648640   -0.634319    1.020761
 H   -4.870105   -1.849429    0.621284
 H   -5.037583    1.186733    0.333796
 H   -6.043964    0.132705    1.328180
 H   -8.504189   -1.357602   -1.230791
 H   -8.103400   -1.144939    0.488804
 H   -7.073403   -2.170245   -0.555746
 H   -4.789007    0.978468   -2.246665
 H   -2.723580    2.140357   -3.601142
 H   -3.935137    3.105674   -2.719154
 H   -3.494883    2.881784   -0.209993
 H   -0.693911    3.623906    0.326568
 H   -2.397993    5.216607    1.167578
 H   -3.271695    3.890733    1.953163
 H   -1.396621    3.504657    3.487882
 H   -3.202922    5.114030    4.081751
 H   -2.257901    6.430436    3.381999
 H   -1.664850    5.576090    4.804699
 H    0.546362    4.190691    2.182928
 H    0.446825    5.228729    3.595846
 H   -0.079883    5.840563    2.030930
 H    0.023193    0.725109    1.915925
