49 
4pyx_ligand_ani.xyz
 F   -0.699272    1.026676   -1.573068
 C    0.467370    0.738956   -0.955975
 C    1.368859    1.785530   -0.785523
 S    0.983822    3.462059   -1.169394
 C   -0.545861    3.676920   -0.216059
 C   -0.339824    3.562162    1.285680
 O   -1.620450    3.652076    1.885873
 C    2.624632    1.436119   -0.295832
 F    3.585992    2.345208   -0.138853
 C    0.672702   -0.589812   -0.546684
 C    1.974833   -0.906308   -0.073352
 S    2.651785   -2.465658    0.443785
 O    2.863733   -2.395969    1.880026
 N    1.433716   -3.588345    0.193985
 O    3.728661   -2.790392   -0.475474
 C    2.902973    0.119342    0.040144
 F    4.123182   -0.138810    0.498214
 N   -0.328945   -1.514430   -0.605178
 C   -1.750761   -1.234720   -0.467353
 C   -2.472214   -2.580160   -0.610905
 C   -3.948257   -2.543409   -1.008948
 C   -4.947962   -1.970286    0.009363
 C   -5.235703   -0.456603   -0.070852
 C   -4.512236    0.450271    0.930399
 C   -3.023755    0.720050    0.698609
 C   -2.084285   -0.486434    0.849958
 H   -1.295891    2.955083   -0.542537
 H   -0.902393    4.678307   -0.475778
 H    0.323590    4.367869    1.632513
 H    0.143660    2.600002    1.519473
 H   -1.501396    3.605243    2.841498
 H    1.242456   -4.061950    1.072941
 H    1.734462   -4.253120   -0.513165
 H   -0.013418   -2.442998   -0.341666
 H   -2.030340   -0.604074   -1.314858
 H   -2.356064   -3.146103    0.327220
 H   -1.928123   -3.150029   -1.376001
 H   -4.243221   -3.576559   -1.234035
 H   -4.049306   -1.996392   -1.958174
 H   -4.633045   -2.237668    1.028582
 H   -5.900434   -2.492123   -0.147401
 H   -6.311518   -0.310445    0.093390
 H   -5.047310   -0.101303   -1.094998
 H   -4.644830    0.031972    1.939866
 H   -5.033188    1.417677    0.943176
 H   -2.709836    1.493013    1.413923
 H   -2.877151    1.172990   -0.292665
 H   -1.139327   -0.135615    1.283633
 H   -2.498207   -1.189842    1.587084
