49 
4pyx_ligand_dft.xyz
 F   -0.757933    1.027977   -1.746455
 C    0.387973    0.791652   -1.089003
 C    1.189064    1.880275   -0.769378
 S    0.736913    3.554823   -1.137386
 C   -0.908709    3.662914   -0.359799
 C   -0.886105    3.416991    1.140820
 O   -2.228845    3.491280    1.578667
 C    2.422566    1.617094   -0.169943
 F    3.258196    2.607012    0.141103
 C    0.685175   -0.545976   -0.760086
 C    1.942990   -0.758393   -0.153820
 S    2.474991   -2.347092    0.464742
 O    1.676527   -3.394081   -0.164471
 N    3.997234   -2.515762   -0.186054
 O    2.547786   -2.243849    1.910247
 C    2.788388    0.318333    0.115036
 F    3.969580    0.108398    0.706121
 N   -0.222190   -1.544293   -1.062667
 C   -1.613052   -1.432477   -0.575429
 C   -2.344574   -2.716627   -0.975360
 C   -3.857065   -2.561012   -1.164983
 C   -4.673526   -2.009250    0.014786
 C   -4.674412   -0.469587    0.197268
 C   -3.923308    0.077939    1.419711
 C   -2.400638    0.173519    1.302734
 C   -1.675929   -1.129353    0.947961
 H   -1.604413    2.976771   -0.844165
 H   -1.242769    4.683732   -0.566992
 H   -0.253657    4.169830    1.633076
 H   -0.455138    2.426092    1.345810
 H   -2.259908    3.212157    2.500580
 H    4.101635   -3.448747   -0.571877
 H    4.725592   -2.272219    0.476573
 H    0.161614   -2.465785   -0.882526
 H   -2.073706   -0.605659   -1.119280
 H   -2.137334   -3.500117   -0.233247
 H   -1.925375   -3.064098   -1.927012
 H   -4.251997   -3.550596   -1.425578
 H   -4.038190   -1.924915   -2.042488
 H   -4.357182   -2.498874    0.945281
 H   -5.709930   -2.329177   -0.141833
 H   -5.716107   -0.141638    0.288173
 H   -4.296785    0.017401   -0.712042
 H   -4.180670   -0.536795    2.293990
 H   -4.295024    1.088139    1.631571
 H   -2.014079    0.548151    2.259830
 H   -2.151544    0.938887    0.557169
 H   -0.649850   -1.071520    1.328998
 H   -2.136300   -1.967881    1.483794
