49 
4pyx_ligand_xtb.xyz
 F   -0.643678    1.263729   -1.387308
 C    0.503059    0.747493   -0.893448
 C    1.598620    1.591888   -0.809479
 S    1.514755    3.318644   -1.201630
 C    0.113969    3.848716   -0.163755
 C    0.407921    3.627945    1.313109
 O   -0.733680    4.025164    2.037188
 C    2.825440    1.048888   -0.420611
 F    3.912460    1.829454   -0.344029
 C    0.522565   -0.611434   -0.506538
 C    1.776748   -1.108065   -0.109277
 S    2.201233   -2.754503    0.481516
 O    2.559713   -2.645326    1.859222
 N    0.740827   -3.640005    0.447781
 O    3.074972   -3.377958   -0.456945
 C    2.897066   -0.294791   -0.095130
 F    4.063200   -0.824605    0.285221
 N   -0.560702   -1.420393   -0.562965
 C   -1.957330   -1.009973   -0.440696
 C   -2.786193   -2.283578   -0.626229
 C   -4.211678   -2.069996   -1.134089
 C   -5.181691   -1.399972   -0.157239
 C   -5.202487    0.135825   -0.195445
 C   -4.504278    0.835528    0.972100
 C   -2.993750    1.001757    0.827578
 C   -2.187982   -0.297210    0.909511
 H   -0.797794    3.334095   -0.455240
 H    0.000586    4.911781   -0.370545
 H    1.289120    4.215414    1.603756
 H    0.627592    2.563750    1.496211
 H   -0.533605    4.006409    2.978540
 H    0.534802   -3.983905    1.374220
 H    0.822846   -4.406291   -0.204212
 H   -0.366972   -2.352600   -0.204377
 H   -2.191706   -0.327376   -1.260748
 H   -2.811384   -2.844252    0.311040
 H   -2.270831   -2.901114   -1.366387
 H   -4.609071   -3.058353   -1.378578
 H   -4.181068   -1.498588   -2.063679
 H   -4.973893   -1.744777    0.856569
 H   -6.183892   -1.753700   -0.408891
 H   -6.246263    0.457216   -0.185263
 H   -4.772750    0.489680   -1.133642
 H   -4.726961    0.304760    1.900618
 H   -4.929165    1.837984    1.066056
 H   -2.658730    1.665369    1.628172
 H   -2.780364    1.507597   -0.114891
 H   -1.204746   -0.058065    1.324089
 H   -2.668302   -0.978884    1.612458
