51 
4pyy_ligand_dft.xyz
 F   -0.742236   -2.102761    0.855617
 C   -1.100704   -0.926592    0.338939
 C   -2.418772   -0.733376   -0.045692
 S   -3.666606   -2.028528    0.031265
 O   -3.196153   -3.101063    0.880460
 N   -4.877219   -1.261907    0.875591
 O   -4.080527   -2.254057   -1.339165
 C   -2.795278    0.508229   -0.543320
 F   -4.058028    0.748972   -0.899512
 C   -1.868959    1.526148   -0.642526
 F   -2.309857    2.715274   -1.038013
 C   -0.111383    0.069937    0.218294
 C   -0.528413    1.316613   -0.308773
 S    0.593064    2.719928   -0.512030
 O    0.146164    3.520763   -1.637130
 O    1.967815    2.199074   -0.519174
 C    0.383340    3.667967    1.004015
 C    1.031753    3.035567    2.239516
 O    0.359724    1.894033    2.699028
 N    1.172783   -0.112198    0.715529
 C    1.923476   -1.387493    0.670920
 C    1.982952   -1.974409   -0.744864
 C    2.554862   -1.091636   -1.856487
 C    4.032243   -0.687809   -1.737610
 C    4.997164   -1.826815   -1.351648
 C    5.419039   -1.882758    0.124164
 C    4.351076   -2.176520    1.188041
 C    3.270857   -1.092642    1.353455
 H   -5.201721   -1.852237    1.634313
 H   -5.622159   -0.933168    0.271001
 H   -0.692045    3.814177    1.138107
 H    0.845643    4.632620    0.766551
 H    0.989358    3.787535    3.034936
 H    2.090921    2.840014    2.027348
 H    0.765625    1.102301    2.304159
 H    1.778062    0.626145    0.362974
 H    1.405074   -2.112770    1.298438
 H    0.961749   -2.258319   -1.025889
 H    2.534940   -2.919762   -0.697545
 H    1.950424   -0.181808   -1.959649
 H    2.425067   -1.645500   -2.794996
 H    4.141850    0.147059   -1.036143
 H    4.329180   -0.279600   -2.710260
 H    5.919200   -1.716493   -1.934496
 H    4.574932   -2.794913   -1.654511
 H    5.897718   -0.926217    0.379225
 H    6.202029   -2.645694    0.220753
 H    4.876029   -2.286077    2.143780
 H    3.886655   -3.152751    0.997669
 H    3.054345   -0.943098    2.417540
 H    3.670240   -0.134937    0.997582
