49 
4q06_ligand_xtb.xyz
 F   -0.754015    1.283034   -1.354154
 C    0.248689    0.495887   -0.919254
 C    1.486133    1.128335   -0.785345
 S    1.507386    2.845584   -1.168874
 C    2.959431    3.520692   -0.296361
 C    2.853179    3.369757    1.212264
 O    1.787083    4.169764    1.661444
 C    2.574781    0.332612   -0.423907
 F    3.829145    0.824174   -0.333305
 C    0.011897   -0.862585   -0.655296
 C    1.144644   -1.608638   -0.256105
 S    0.820723   -3.297987    0.291054
 O    0.267961   -4.026117   -0.812892
 N    2.229951   -4.042183    0.694057
 O    0.047033   -3.171952    1.487835
 C    2.382688   -1.014596   -0.159655
 F    3.460540   -1.742067    0.206993
 N   -1.165467   -1.519267   -0.852792
 C   -2.505427   -1.209913   -0.324486
 C   -2.453038   -0.842023    1.171947
 C   -2.269265    0.629303    1.558776
 C   -3.558543    1.454285    1.699844
 C   -4.034389    2.165660    0.428029
 C   -5.063903    1.405718   -0.413888
 C   -4.725654   -0.055235   -0.715100
 C   -3.290916   -0.253290   -1.223251
 H    2.927142    4.579212   -0.552811
 H    3.872269    3.076495   -0.682071
 H    3.805098    3.695478    1.659255
 H    2.692087    2.316631    1.482711
 H    1.673891    4.056599    2.609967
 H    2.850421   -4.228840   -0.074882
 H    2.697426   -3.682334    1.508505
 H   -1.007834   -2.518872   -0.852911
 H   -3.020717   -2.175942   -0.380147
 H   -1.634039   -1.427772    1.598846
 H   -3.365343   -1.205073    1.648574
 H   -1.598709    1.132242    0.866023
 H   -1.776160    0.633020    2.534551
 H   -3.360973    2.225521    2.448351
 H   -4.358585    0.826863    2.096209
 H   -3.166051    2.422023   -0.180136
 H   -4.500269    3.112360    0.713387
 H   -5.185202    1.945773   -1.355968
 H   -6.028103    1.429386    0.100640
 H   -5.438679   -0.419611   -1.457084
 H   -4.882036   -0.648799    0.184171
 H   -3.296137   -0.679554   -2.227535
 H   -2.800091    0.708124   -1.287570
