49 
4q06_ligand_dft.xyz
 F    0.022346    1.696758   -1.386388
 C    0.868691    0.788324   -0.891071
 C    2.162249    1.201380   -0.580532
 S    2.679026    2.880219   -0.837108
 C    2.439102    3.541954    0.856294
 C    1.021723    3.368260    1.400701
 O    0.033616    3.965549    0.602698
 C    3.030597    0.241674   -0.066288
 F    4.274719    0.562018    0.273090
 C    0.383928   -0.509538   -0.690054
 C    1.309246   -1.449414   -0.197165
 S    0.856015   -3.148946    0.157975
 O   -0.334856   -3.490253   -0.607491
 N    2.088147   -4.004334   -0.560912
 O    0.892548   -3.306512    1.599231
 C    2.608997   -1.064327    0.117266
 F    3.478825   -1.946047    0.619947
 N   -0.973776   -0.763752   -0.973104
 C   -1.884343   -0.699482    0.200636
 C   -2.012071    0.729626    0.741217
 C   -2.774514    1.754731   -0.110499
 C   -4.285312    1.905051    0.155567
 C   -5.224388    0.909029   -0.545707
 C   -5.550004   -0.392404    0.201356
 C   -4.358458   -1.187618    0.752920
 C   -3.196816   -1.353291   -0.243151
 H    2.672873    4.606028    0.755848
 H    3.170226    3.085020    1.530319
 H    0.972359    3.861024    2.376945
 H    0.820898    2.298790    1.569714
 H    0.005776    3.489186   -0.238640
 H    1.701584   -4.781134   -1.087641
 H    2.802895   -4.285006    0.101796
 H   -1.056945   -1.697792   -1.362632
 H   -1.467316   -1.308077    1.022804
 H   -0.997653    1.104771    0.920809
 H   -2.460601    0.680418    1.740244
 H   -2.604294    1.546220   -1.173992
 H   -2.314332    2.729106    0.087367
 H   -4.564724    2.909669   -0.183886
 H   -4.470802    1.897432    1.239473
 H   -4.812185    0.681366   -1.537417
 H   -6.181724    1.408248   -0.740499
 H   -6.121999   -1.034288   -0.481961
 H   -6.223959   -0.162308    1.037019
 H   -4.720641   -2.170755    1.072393
 H   -3.999721   -0.703628    1.667668
 H   -2.992145   -2.415975   -0.417710
 H   -3.464052   -0.930625   -1.218058
