51 
4q07_ligand_ani.xyz
 F    0.604785   -2.284782   -0.528868
 C    1.093615   -1.037959   -0.429318
 C    2.420084   -0.901447   -0.041736
 S    3.283758   -2.426745    0.291557
 O    3.276235   -3.191264   -0.937675
 N    4.855052   -2.031992    0.583914
 O    2.750089   -2.952715    1.532118
 C    2.910945    0.392105    0.086883
 F    4.155754    0.662107    0.499831
 C    2.093602    1.473084   -0.213693
 F    2.628371    2.690840   -0.059182
 C    0.224236    0.026040   -0.712408
 C    0.781112    1.325615   -0.634473
 S   -0.106162    2.816178   -1.022784
 O   -1.484727    2.490296   -1.405443
 O    0.708553    3.623660   -1.915954
 C   -0.179643    3.662842    0.553852
 C   -1.017522    2.906503    1.570720
 O   -1.042322    3.710975    2.731278
 N   -1.077921   -0.154033   -1.064924
 C   -1.929672   -1.291826   -0.771145
 C   -2.065697   -1.552304    0.744439
 C   -2.955801   -0.565529    1.520879
 C   -4.368912   -1.059833    1.857387
 C   -5.342683   -1.333849    0.704257
 C   -4.963517   -2.507790   -0.215024
 C   -4.297990   -2.115554   -1.544233
 C   -3.250568   -1.004203   -1.500294
 H    5.338015   -1.669234   -0.229303
 H    4.987581   -1.469168    1.415637
 H   -0.620824    4.639649    0.337266
 H    0.846197    3.811921    0.897041
 H   -0.568314    1.919123    1.768530
 H   -2.027623    2.752490    1.164314
 H   -1.601294    3.276612    3.385135
 H   -1.538244    0.694775   -1.373016
 H   -1.475026   -2.181680   -1.216994
 H   -1.054616   -1.553004    1.169406
 H   -2.432967   -2.574109    0.892552
 H   -3.007770    0.402367    0.998325
 H   -2.462825   -0.342867    2.475759
 H   -4.834790   -0.326192    2.528750
 H   -4.275327   -1.983908    2.448419
 H   -5.491237   -0.421707    0.110862
 H   -6.319611   -1.544239    1.157237
 H   -5.866618   -3.080408   -0.462059
 H   -4.327181   -3.205388    0.342717
 H   -5.083286   -1.781641   -2.234854
 H   -3.857660   -3.011656   -2.002118
 H   -2.984114   -0.741179   -2.533098
 H   -3.696271   -0.095769   -1.070981
