49 
4q08_ligand_dft.xyz
 F   -0.229857    1.716030    0.224858
 C    0.636866    0.694106    0.268858
 C    1.962991    0.987294    0.593046
 S    2.437725    2.647193    0.992233
 C    3.701893    2.950646   -0.293242
 C    3.176877    2.907912   -1.716778
 O    2.272148    3.971198   -1.896551
 C    2.872590   -0.063641    0.586231
 F    4.158568    0.146831    0.878042
 C    0.179604   -0.596266   -0.024298
 C    1.144613   -1.635177   -0.010956
 S    0.581207   -3.312452   -0.337786
 O    1.663998   -4.243255   -0.120196
 N   -0.545911   -3.609873    0.840406
 O   -0.132279   -3.251622   -1.604711
 C    2.480149   -1.355604    0.261611
 F    3.419002   -2.292437    0.259382
 N   -1.144832   -0.926244   -0.312457
 C   -2.316042   -0.075308   -0.053801
 C   -3.543195   -0.789315   -0.673512
 C   -4.357250    0.059260   -1.656953
 C   -5.388178    1.005139   -1.035211
 C   -4.867779    2.059713   -0.047243
 C   -4.636254    1.586053    1.408444
 C   -3.177179    1.438802    1.862533
 C   -2.445176    0.158350    1.458690
 H    4.526322    2.246025   -0.168837
 H    4.071457    3.956593   -0.073263
 H    2.706776    1.931060   -1.909473
 H    4.041939    2.996121   -2.394282
 H    1.829310    3.853646   -2.743658
 H   -0.108747   -3.777986    1.740670
 H   -1.251108   -2.873579    0.862165
 H   -1.214627   -1.493175   -1.150966
 H   -2.193377    0.893425   -0.549694
 H   -4.201213   -1.160839    0.121303
 H   -3.197002   -1.685856   -1.202117
 H   -4.894888   -0.615657   -2.333799
 H   -3.666965    0.634393   -2.289743
 H   -6.164663    0.408210   -0.536189
 H   -5.892958    1.523254   -1.860165
 H   -5.607378    2.867837   -0.023032
 H   -3.950906    2.517110   -0.443549
 H   -5.172343    0.643138    1.584242
 H   -5.105037    2.315825    2.078067
 H   -3.150854    1.492595    2.957716
 H   -2.599263    2.300650    1.504252
 H   -1.443346    0.203551    1.900711
 H   -2.936363   -0.715546    1.909446
