48 
4q19_ligand_xtb.xyz
 C    8.229716   -0.015892    0.853731
 O    7.315912   -0.780345    0.108903
 C    6.002162   -0.439779    0.148918
 C    5.133178   -1.246777   -0.617652
 C    3.782543   -0.975489   -0.639255
 O    5.677106   -2.278198   -1.316384
 C    5.467048    0.617452    0.871800
 C    4.109068    0.882119    0.845762
 C    3.250462    0.092714    0.091376
 C    1.831706    0.337315    0.038626
 N    0.993291   -0.328437   -0.679094
 S    1.073180    1.619325    0.980733
 C   -0.458128    1.155341    0.312737
 C   -1.699805    1.894853    0.660864
 C   -1.730887    3.289349    0.021065
 C   -1.718319    3.218540   -1.500504
 C   -0.284202    0.105241   -0.550087
 C   -1.346009   -0.587361   -1.323616
 S   -2.170787   -1.915047   -0.344542
 C   -3.763348   -1.242358   -0.074424
 N   -4.580688   -2.048175    0.573885
 N   -4.033043   -0.030221   -0.528772
 C   -5.267333    0.436115   -0.293908
 N   -5.510218    1.712529   -0.696281
 C   -6.219116   -0.327224    0.374309
 C   -5.816007   -1.592631    0.805066
 N   -6.629580   -2.411524    1.516110
 H    8.248985    1.027288    0.520743
 H    8.006145   -0.050633    1.925208
 H    9.203980   -0.468017    0.675305
 H    3.108622   -1.587884   -1.220074
 H    4.976154   -2.749841   -1.783196
 H    6.107878    1.248597    1.466290
 H    3.715815    1.709975    1.416685
 H   -1.762386    2.002719    1.746789
 H   -2.563169    1.319400    0.322375
 H   -0.866154    3.861698    0.365167
 H   -2.632401    3.805557    0.357602
 H   -0.802479    2.749845   -1.854088
 H   -2.559186    2.630376   -1.862559
 H   -1.781900    4.215639   -1.930684
 H   -0.898462   -1.087794   -2.179782
 H   -2.147659    0.081611   -1.625666
 H   -4.836267    2.135541   -1.310753
 H   -6.461457    2.028357   -0.757127
 H   -7.212537    0.045939    0.560222
 H   -6.302855   -3.350619    1.662755
 H   -7.617801   -2.236233    1.535797
