48 
4q19_ligand_dft.xyz
 C    8.238287   -0.173808    0.853038
 O    7.291955   -0.916740    0.120684
 C    6.003043   -0.508911    0.162392
 C    5.092318   -1.289315   -0.582585
 C    3.752154   -0.953568   -0.602307
 O    5.603149   -2.354175   -1.252329
 C    5.528459    0.591785    0.866652
 C    4.173582    0.923784    0.840551
 C    3.274024    0.157076    0.109821
 C    1.838132    0.460446    0.047666
 N    0.997330   -0.184150   -0.706421
 S    1.095365    1.727315    0.994651
 C   -0.447499    1.333310    0.302766
 C   -1.689047    2.090835    0.670897
 C   -1.840993    3.436339   -0.060117
 C   -1.972186    3.283255   -1.573611
 C   -0.284706    0.297991   -0.575879
 C   -1.360207   -0.345775   -1.397960
 S   -2.104827   -1.829138   -0.620477
 C   -3.724859   -1.263604   -0.171111
 N   -4.431486   -2.197400    0.456510
 N   -4.104170   -0.027940   -0.475053
 C   -5.341976    0.322381   -0.080730
 N   -5.697553    1.620227   -0.334800
 C   -6.187798   -0.564040    0.581097
 C   -5.672334   -1.841427    0.824966
 N   -6.413569   -2.815209    1.428926
 H    8.298051    0.863606    0.498502
 H    8.008620   -0.175867    1.926662
 H    9.197400   -0.666055    0.688976
 H    3.043457   -1.549198   -1.171765
 H    4.880214   -2.801520   -1.708568
 H    6.209025    1.206725    1.443764
 H    3.837696    1.793919    1.397179
 H   -1.703677    2.264084    1.753278
 H   -2.555353    1.461576    0.441801
 H   -0.984841    4.082255    0.172433
 H   -2.731025    3.938722    0.338502
 H   -1.082629    2.807478   -2.000065
 H   -2.834827    2.655569   -1.829064
 H   -2.101952    4.254549   -2.061692
 H   -0.928127   -0.680878   -2.343017
 H   -2.183570    0.337806   -1.607723
 H   -5.129039    2.096210   -1.019475
 H   -6.678675    1.850712   -0.345979
 H   -7.187062   -0.279540    0.891836
 H   -5.896829   -3.624316    1.739379
 H   -7.210524   -2.548574    1.983998
