55 
4q1a_ligand_ani.xyz
 O    4.803059    4.947424    0.770463
 C    5.581047    3.783719    0.569869
 C    4.609606    2.628357    0.444274
 O    5.378829    1.461549    0.213878
 C    4.716179    0.296959   -0.001175
 C    3.343510    0.146106    0.063550
 C    5.523870   -0.827933   -0.305187
 O    6.857796   -0.606516   -0.335040
 C    7.691373   -1.708256   -0.617200
 C    4.917655   -2.053040   -0.549973
 C    3.531843   -2.189890   -0.498970
 C    2.740512   -1.090553   -0.190600
 C    1.276396   -1.170955   -0.116368
 N    0.531813   -0.227439    0.380661
 S    0.387773   -2.546177   -0.700450
 C   -1.093625   -1.759005   -0.258387
 C   -2.416301   -2.408128   -0.532114
 C   -2.826816   -3.465499    0.507050
 C   -3.022211   -2.890122    1.907117
 C   -0.798812   -0.554245    0.333521
 C   -1.777585    0.379828    0.977237
 S   -2.461456    1.670873   -0.120604
 C   -4.196624    1.314944   -0.131171
 N   -4.906333    2.263989   -0.731584
 N   -4.638876    0.184311    0.408501
 C   -5.959755   -0.041841    0.301919
 N   -6.420758   -1.249608    0.768572
 C   -6.815087    0.878592   -0.297632
 C   -6.227627    2.042012   -0.803326
 N   -6.957630    3.003350   -1.441211
 H    5.401625    5.699844    0.838176
 H    6.260761    3.595227    1.414203
 H    6.184138    3.847432   -0.347809
 H    3.919253    2.809603   -0.390651
 H    4.021159    2.528430    1.366718
 H    2.694283    0.978259    0.316303
 H    7.575680   -2.500768    0.134200
 H    7.485152   -2.122323   -1.613209
 H    8.712888   -1.327209   -0.587647
 H    5.517018   -2.924703   -0.785941
 H    3.083536   -3.159073   -0.695022
 H   -2.389558   -2.870860   -1.526536
 H   -3.189955   -1.629617   -0.565356
 H   -2.078397   -4.265900    0.532261
 H   -3.762679   -3.924132    0.164966
 H   -2.083329   -2.490186    2.309090
 H   -3.751200   -2.068496    1.894747
 H   -3.387463   -3.651355    2.603365
 H   -1.254350    0.916365    1.775225
 H   -2.621311   -0.158396    1.410863
 H   -5.811268   -1.714704    1.424289
 H   -7.401145   -1.297502    1.001050
 H   -7.879437    0.689275   -0.387671
 H   -6.479264    3.878176   -1.590337
 H   -7.947473    3.059283   -1.262000
