55 
4q1a_ligand_dft.xyz
 O    5.109831    4.637843    1.468615
 C    5.782691    3.514930    0.939525
 C    4.728301    2.450112    0.701813
 O    5.404391    1.323834    0.182727
 C    4.672534    0.224751   -0.116142
 C    3.303759    0.117612    0.046594
 C    5.407404   -0.870234   -0.631798
 O    6.740066   -0.670550   -0.755497
 C    7.515316   -1.728597   -1.268224
 C    4.738308   -2.039577   -0.966450
 C    3.356008   -2.138944   -0.798114
 C    2.630622   -1.068500   -0.294409
 C    1.175258   -1.119786   -0.098925
 N    0.483149   -0.150644    0.423057
 S    0.205477   -2.501317   -0.553643
 C   -1.217596   -1.681734    0.009618
 C   -2.571593   -2.324359   -0.053974
 C   -2.840252   -3.330065    1.079270
 C   -2.823557   -2.687916    2.464433
 C   -0.856784   -0.454488    0.493144
 C   -1.776080    0.571393    1.084721
 S   -2.412909    1.788933   -0.128361
 C   -4.126702    1.352440   -0.259657
 N   -4.780248    2.122838   -1.122856
 N   -4.617693    0.359372    0.472749
 C   -5.924012    0.088231    0.297970
 N   -6.404499   -0.982168    1.003229
 C   -6.723262    0.821295   -0.575711
 C   -6.085617    1.850424   -1.276740
 N   -6.747545    2.619172   -2.188931
 H    5.758392    5.334070    1.615556
 H    6.539207    3.120542    1.633357
 H    6.282687    3.742313   -0.013037
 H    3.976095    2.820140   -0.007036
 H    4.224159    2.206467    1.646255
 H    2.716161    0.939581    0.436833
 H    7.458120   -2.618095   -0.627126
 H    7.206861   -1.997715   -2.286967
 H    8.543284   -1.364850   -1.287795
 H    5.282940   -2.889091   -1.361479
 H    2.862284   -3.068575   -1.066336
 H   -2.692802   -2.827479   -1.020371
 H   -3.328689   -1.534447   -0.013880
 H   -2.100018   -4.139263    1.039088
 H   -3.819351   -3.790195    0.897485
 H   -1.845358   -2.246071    2.682106
 H   -3.568027   -1.885024    2.530601
 H   -3.043671   -3.422214    3.246058
 H   -1.226789    1.144132    1.834511
 H   -2.650917    0.119584    1.553809
 H   -5.826507   -1.290097    1.770885
 H   -7.399446   -1.052324    1.146637
 H   -7.771977    0.589200   -0.725292
 H   -6.260219    3.446173   -2.499201
 H   -7.752447    2.670430   -2.151742
