59 
4q1f_ligand_ani.xyz
 C    2.700298   -1.417018    1.405371
 S    3.436499   -2.492247    0.195636
 O    4.863204   -2.535188    0.453743
 O    2.640645   -3.713186    0.166615
 N    3.213801   -1.762963   -1.259699
 C    4.051241   -0.667333   -1.717907
 C    3.378794    0.693358   -1.630525
 O    3.056278    0.951536   -0.270894
 C    2.107742    1.924532   -0.087767
 C    0.765184    1.620222   -0.181677
 C    2.516689    3.234410    0.224119
 O    3.854095    3.452533    0.212791
 C    4.299690    4.747221    0.548094
 C    1.546541    4.193633    0.502681
 C    0.192735    3.871644    0.440247
 C   -0.208748    2.587121    0.088521
 C   -1.616952    2.199772   -0.034405
 N   -2.006903    1.185248   -0.747194
 S   -2.905225    3.035143    0.790981
 C   -4.033261    1.902353    0.130350
 C   -5.499896    1.921505    0.431244
 C   -3.369783    1.012721   -0.669849
 C   -4.040674   -0.124779   -1.397133
 C   -3.351195   -0.459537   -2.714368
 S   -4.354068   -1.588027   -0.306328
 C   -2.719264   -2.092963    0.168257
 N   -1.850184   -2.367376   -0.796149
 N   -2.535696   -2.229522    1.479704
 C   -1.334092   -2.671317    1.856763
 N   -1.129377   -2.818634    3.200489
 C   -0.337622   -3.018918    0.936369
 C   -0.662589   -2.845050   -0.404965
 N    0.252498   -3.115298   -1.401928
 H    1.728683   -1.064583    1.051426
 H    3.362893   -0.567010    1.567766
 H    2.587225   -1.998890    2.323321
 H    2.259576   -1.833551   -1.602037
 H    4.317731   -0.857762   -2.763761
 H    4.968166   -0.679824   -1.123681
 H    2.458967    0.700397   -2.233108
 H    4.042143    1.485141   -2.000778
 H    0.457373    0.622102   -0.481437
 H    3.916813    5.496815   -0.157385
 H    5.388352    4.717042    0.490087
 H    3.994687    5.024097    1.566268
 H    1.833581    5.205347    0.766678
 H   -0.542729    4.642041    0.653506
 H   -6.082500    2.056350   -0.489317
 H   -5.772634    2.712793    1.132333
 H   -5.804554    0.955091    0.852286
 H   -5.078749    0.165843   -1.614111
 H   -3.828857   -1.318588   -3.193037
 H   -2.295606   -0.683220   -2.552173
 H   -3.427738    0.405104   -3.383733
 H   -1.806733   -2.354220    3.787937
 H   -0.174992   -2.798809    3.529184
 H    0.629320   -3.404887    1.238385
 H    0.979592   -3.770719   -1.131984
 H   -0.177084   -3.289210   -2.302345
