72 
4q4i_ligand_dft.xyz
 N   -0.565819    1.936813   -0.736355
 C   -0.084918    2.586665    0.529776
 C   -0.980417    3.759082    0.910705
 C   -2.474179    3.424739    1.071525
 C   -2.704906    2.203325    1.967047
 C   -3.209629    4.651510    1.616923
 C    1.376864    2.997411    0.284742
 O    1.407220    3.714411   -0.939228
 C    2.254610    1.734032    0.258355
 O    2.463854    1.127703    1.300952
 N    2.643447    1.353039   -0.974661
 C    3.304618    0.083491   -1.300313
 C    2.268269   -1.033462   -1.076564
 O    1.541092   -1.408797   -1.986473
 C    4.676163   -0.106794   -0.627829
 C    5.596518    1.071209   -0.952926
 C    5.292020   -1.431288   -1.087346
 N    2.180103   -1.525318    0.186542
 C    1.081228   -2.400747    0.514850
 C   -0.239325   -1.682686    0.244013
 O   -0.332270   -0.451370    0.251745
 C    1.158539   -2.889354    1.980145
 C    0.938865   -1.764768    2.998581
 C    2.477835   -3.625462    2.227861
 N   -1.323972   -2.445007    0.027438
 C   -2.595421   -1.821960   -0.240858
 C   -3.685638   -2.852625   -0.004991
 O   -3.477680   -4.018911    0.215025
 C   -2.661840   -1.265230   -1.692854
 C   -3.509737   -0.022103   -1.777272
 O   -3.206686    1.045931   -1.268721
 O   -4.629254   -0.187452   -2.462944
 O   -4.894308   -2.295729   -0.101160
 H   -0.100409    1.021165   -0.839690
 H   -0.368714    2.547514   -1.533797
 H   -1.577361    1.701147   -0.727374
 H   -0.102990    1.803475    1.289100
 H   -0.855223    4.564634    0.176140
 H   -0.599106    4.142067    1.866404
 H   -2.898025    3.205842    0.081911
 H   -2.257469    2.354751    2.957014
 H   -2.280196    1.284828    1.544075
 H   -3.776286    2.032573    2.107460
 H   -3.049006    5.530126    0.983118
 H   -2.862214    4.895466    2.627726
 H   -4.286743    4.467218    1.669903
 H    1.704400    3.607487    1.131961
 H    2.049973    4.431312   -0.890729
 H    2.443889    2.000674   -1.723637
 H    3.454867    0.103354   -2.383403
 H    4.538955   -0.139608    0.458093
 H    5.189989    2.018294   -0.584470
 H    5.754230    1.161236   -2.034830
 H    6.574943    0.926801   -0.485804
 H    6.270742   -1.574259   -0.620195
 H    5.436904   -1.441941   -2.174284
 H    4.664984   -2.286483   -0.816758
 H    2.536820   -0.922950    0.921031
 H    1.134023   -3.270327   -0.149994
 H    0.341398   -3.613377    2.097712
 H    0.992058   -2.172645    4.012127
 H   -0.039673   -1.289134    2.878998
 H    1.698979   -0.979514    2.920551
 H    2.640463   -4.416108    1.488060
 H    2.471771   -4.085119    3.220430
 H    3.331235   -2.941050    2.181849
 H   -1.292577   -3.457116    0.046938
 H   -2.734136   -0.993053    0.460780
 H   -3.019670   -2.022618   -2.392751
 H   -1.644128   -0.987368   -1.979262
 H   -5.116770    0.654043   -2.461518
 H   -5.559102   -2.994232    0.021366
