25 
4q4s_ligand_ani.xyz
 N   -2.428367    1.303585   -0.041641
 C   -1.160802    0.794489   -0.017263
 C   -1.240464   -0.640279   -0.025242
 N   -2.561349   -0.996072   -0.052972
 C   -3.179016    0.195124   -0.062919
 N   -4.536232    0.314269   -0.125700
 C   -5.414142   -0.790729    0.151546
 C   -0.090814   -1.419498   -0.009666
 C    1.149070   -0.770084    0.005653
 C    1.226083    0.648035    0.014100
 C    2.586532    1.295094    0.026876
 O    2.659463    2.517717    0.045055
 N    3.689362    0.510801    0.014803
 C    3.587652   -0.844837    0.000511
 N    4.575802   -1.661768   -0.021814
 N    2.319654   -1.457774    0.011967
 C    0.077110    1.423840    0.005036
 H   -4.867110    1.254687    0.014130
 H   -4.937540   -1.685755   -0.246271
 H   -5.576840   -0.933715    1.227124
 H   -6.373772   -0.632381   -0.346957
 H   -0.143204   -2.504358   -0.011260
 H    5.435048   -1.118299   -0.028450
 H    2.344436   -2.463817   -0.005814
 H    0.183935    2.503683    0.012746
