37 
4q6d_ligand_dft.xyz
 O    5.481045   -1.130488    0.346366
 S    4.860117    0.154174    0.054668
 O    5.183600    1.347187    0.822070
 N    5.166184    0.568377   -1.545365
 C    3.102221   -0.083634    0.070181
 C    2.584878   -1.371513    0.147158
 C    2.262488    1.028592    0.010688
 C    0.890044    0.849075    0.019494
 C    0.350538   -0.443703    0.098210
 C    1.206932   -1.545032    0.156482
 N   -1.031587   -0.743855    0.109123
 N   -1.754556    0.278611    0.265038
 N   -3.061782    0.075913    0.210552
 C   -3.857190    1.212310    0.658326
 C   -4.923404    1.640248   -0.354099
 C   -6.254428    0.877120   -0.262618
 C   -6.126137   -0.618536    0.063485
 C   -4.963915   -1.331809   -0.639668
 C   -3.624726   -1.263533    0.096524
 H    5.478053   -0.240617   -2.074453
 H    5.858209    1.311966   -1.564571
 H    3.257268   -2.220188    0.208649
 H    2.687573    2.025696   -0.039113
 H    0.223292    1.701709   -0.030035
 H    0.770629   -2.536505    0.216860
 H   -3.136467    2.016898    0.814258
 H   -4.311685    0.983642    1.633788
 H   -4.486919    1.534379   -1.353675
 H   -5.121125    2.709608   -0.218957
 H   -6.784366    0.997512   -1.215019
 H   -6.890577    1.342906    0.499759
 H   -7.069845   -1.109962   -0.197738
 H   -6.011467   -0.754473    1.147409
 H   -4.843459   -0.958201   -1.664102
 H   -5.199237   -2.398745   -0.727130
 H   -3.732838   -1.692489    1.105229
 H   -2.877707   -1.864338   -0.423742
