37 
4q6d_ligand_xtb.xyz
 O    5.467031   -1.058874    0.189342
 S    4.761332    0.166435   -0.059150
 O    5.156835    1.355922    0.639779
 N    4.869340    0.498121   -1.715163
 C    3.015475   -0.090505    0.112860
 C    2.504192   -1.370800    0.023692
 C    2.193358    1.006177    0.293080
 C    0.830285    0.823952    0.384982
 C    0.287236   -0.466503    0.297299
 C    1.140838   -1.561399    0.116301
 N   -1.062035   -0.751478    0.364055
 N   -1.830632    0.247130    0.601828
 N   -3.101210    0.013942    0.672157
 C   -3.937983    1.171690    0.862925
 C   -4.553207    1.641942   -0.461160
 C   -5.869488    0.949776   -0.828665
 C   -5.950088   -0.539181   -0.472742
 C   -4.663371   -1.327649   -0.722510
 C   -3.700291   -1.285552    0.464846
 H    5.384031   -0.219516   -2.199134
 H    5.269696    1.407324   -1.880233
 H    3.187451   -2.195026   -0.105308
 H    2.642811    1.983585    0.369765
 H    0.163267    1.660549    0.525469
 H    0.708634   -2.547999    0.054457
 H   -3.294111    1.956133    1.266166
 H   -4.717964    0.942001    1.592819
 H   -3.811016    1.480599   -1.244944
 H   -4.733361    2.716421   -0.406879
 H   -6.022774    1.070285   -1.902976
 H   -6.695279    1.459141   -0.327153
 H   -6.758349   -0.976416   -1.062227
 H   -6.229822   -0.653487    0.576923
 H   -4.161628   -0.963418   -1.619547
 H   -4.917254   -2.376171   -0.890238
 H   -4.231335   -1.577012    1.378490
 H   -2.865211   -1.972034    0.302382
