16 
4q7s_ligand_dft.xyz
 S    2.132930   -1.271681    0.000051
 C    0.654785   -0.448777   -0.000056
 C   -0.641688   -1.018013    0.000389
 C   -1.793502   -0.261273    0.000494
 C   -3.146960   -0.922365   -0.000486
 C   -1.675604    1.146785    0.000442
 C   -0.431714    1.713712    0.000109
 N    0.663845    0.929326   -0.000155
 O    1.861502    1.576821   -0.000357
 H   -0.689303   -2.101356    0.000753
 H   -3.271638   -1.546037   -0.891604
 H   -3.261148   -1.571515    0.873545
 H   -3.954346   -0.185802    0.014658
 H   -2.549840    1.786710    0.000689
 H   -0.233261    2.777250    0.000171
 H    2.501830    0.807385   -0.000444
