16 
4q7v_ligand_ani.xyz
 S    2.610560   -0.469121    0.000000
 C    0.926747   -0.409146   -0.000003
 C    0.030527   -1.517090   -0.000003
 C   -1.325409   -1.342160    0.000004
 C   -1.899587   -0.056530   -0.000006
 C   -3.392456    0.134255    0.000010
 C   -1.037959    1.008922   -0.000022
 N    0.302402    0.808944   -0.000003
 O    1.062581    1.936413    0.000013
 H    0.471515   -2.507309   -0.000007
 H   -1.974940   -2.217334    0.000016
 H   -3.726469    0.690972    0.883234
 H   -3.726442    0.691296   -0.883019
 H   -3.904031   -0.831210   -0.000172
 H   -1.324309    2.054640   -0.000050
 H    1.987082    1.561468    0.000029
