16 
4q7v_ligand_dft.xyz
 S    2.622360   -0.454246    0.000009
 C    0.930792   -0.412728   -0.000013
 C    0.042371   -1.518193   -0.000006
 C   -1.319033   -1.354039   -0.000005
 C   -1.906232   -0.069036   -0.000004
 C   -3.398626    0.140725    0.000009
 C   -1.044872    0.997841   -0.000001
 N    0.292307    0.804855   -0.000003
 O    1.048662    1.936334   -0.000001
 H    0.491433   -2.503840   -0.000006
 H   -1.962602   -2.229416   -0.000002
 H   -3.725342    0.697626    0.884339
 H   -3.725304    0.698019   -0.884085
 H   -3.922457   -0.818670   -0.000214
 H   -1.350305    2.036818   -0.000001
 H    1.974980    1.555316   -0.000037
