19 
4q81_ligand_dft.xyz
 C    0.410206    2.855076    0.000032
 C    0.527003    1.364282   -0.000001
 C    1.710902    0.671689   -0.000009
 C    1.717080   -0.740378    0.000013
 C    3.026141   -1.481375   -0.000007
 C    0.513014   -1.405678   -0.000007
 C   -0.727448   -0.725759   -0.000028
 S   -2.268175   -1.428801    0.000022
 N   -0.627845    0.648604   -0.000035
 O   -1.781732    1.375162   -0.000039
 H   -0.139948    3.200099    0.880422
 H    1.405597    3.302884    0.000295
 H   -0.139507    3.200214   -0.880580
 H    2.640240    1.230611    0.000020
 H    2.873836   -2.563219   -0.001041
 H    3.619451   -1.217317   -0.882245
 H    3.618553   -1.218893    0.883303
 H    0.470252   -2.488589    0.000009
 H   -2.470297    0.646363    0.000062
