15 
4q90_ligand_xtb.xyz
 C   -2.725486   -1.254769    0.001650
 C   -1.533548   -0.352061   -0.000680
 C   -0.249916   -0.879481   -0.002531
 C    0.826524   -0.001274   -0.001447
 S    2.475167   -0.622102    0.000532
 N    0.703842    1.316356   -0.000363
 C   -0.520487    1.815485   -0.000247
 C   -1.662968    1.035493    0.000154
 H   -2.717314   -1.890268   -0.882813
 H   -2.702909   -1.904024    0.875763
 H   -3.648637   -0.681339    0.013404
 H   -0.079569   -1.944902   -0.004044
 H    3.027726    0.586152    0.008660
 H   -0.575554    2.895995    0.000290
 H   -2.638018    1.497164    0.001378
