15 
4q90_ligand_dft.xyz
 C   -2.722626   -1.285990   -0.000224
 C   -1.535723   -0.359538    0.000248
 C   -0.238922   -0.865826    0.000340
 C    0.835694    0.024819    0.000118
 S    2.490436   -0.630554   -0.000110
 N    0.699040    1.349445   -0.000085
 C   -0.548290    1.826439   -0.000227
 C   -1.684217    1.028812    0.000122
 H   -2.712752   -1.930178   -0.885982
 H   -2.707295   -1.938767    0.879109
 H   -3.664226   -0.730538    0.005277
 H   -0.064071   -1.938106    0.000696
 H    3.079510    0.574412    0.000345
 H   -0.636828    2.910503    0.000209
 H   -2.670087    1.483130    0.000447
