44 
4q9m_ligand_ani.xyz
 C   -6.388675   -0.903658   -1.025596
 C   -5.736420   -0.148164    0.142524
 C   -6.272551    1.283359    0.219295
 C   -4.222486   -0.216415    0.061285
 C   -3.537672   -1.242054    0.719254
 C   -2.161116   -1.396628    0.631316
 C   -3.465685    0.674400   -0.701884
 C   -2.087378    0.544051   -0.797191
 C   -1.424593   -0.495081   -0.137408
 N   -0.026486   -0.570674   -0.268581
 C    0.817230   -1.582409    0.109019
 O    0.450814   -2.622478    0.641244
 C    2.238164   -1.344867   -0.216197
 C    3.159648   -2.336220   -0.403057
 C    3.077902   -3.813357   -0.273818
 O    4.307876   -1.786809   -0.804783
 N    4.190410   -0.416104   -0.869149
 C    2.970719   -0.138332   -0.494146
 C    2.549803    1.274945   -0.357085
 C    2.052036    1.789284    0.847374
Cl    1.964323    0.784883    2.258809
 C    1.603688    3.102232    0.937882
 C    1.674534    3.927170   -0.178382
 C    2.200550    3.444442   -1.373206
 C    2.645499    2.131337   -1.453036
 H   -6.095585   -0.456430   -1.982872
 H   -6.083663   -1.955362   -1.039209
 H   -7.481411   -0.864138   -0.951469
 H   -6.023368   -0.658767    1.071549
 H   -5.797074    1.845377    1.029834
 H   -6.103011    1.827338   -0.716858
 H   -7.353917    1.273721    0.397346
 H   -4.098351   -1.952078    1.325616
 H   -1.653617   -2.203511    1.143275
 H   -3.943695    1.496386   -1.229621
 H   -1.518038    1.256898   -1.390090
 H    0.406491    0.204040   -0.750737
 H    2.590851   -4.071055    0.669330
 H    2.442025   -4.222940   -1.064578
 H    4.070894   -4.262076   -0.333645
 H    1.205365    3.469111    1.878933
 H    1.324783    4.953035   -0.110437
 H    2.268458    4.092317   -2.242679
 H    3.073221    1.742664   -2.372692
