24 
4q9s_ligand_xtb.xyz
 C   -2.837789   -1.835368    0.130254
 C   -3.669635   -0.774004   -0.177290
 C   -1.474715   -1.639746    0.271593
 C   -3.140958    0.497799   -0.313842
 C   -0.926259   -0.371676    0.113239
 C   -1.780731    0.707657   -0.159091
 C    0.922858    1.141318    0.176024
 C    2.829274   -0.842847   -0.125995
 C   -0.099214    2.220366    0.395589
 C    1.381880   -1.250148    0.150446
 N    3.069398    0.481173   -0.142409
 N    0.451138   -0.138083    0.162729
 N    2.147450    1.479724    0.049407
 O    3.695726   -1.670341   -0.303625
 O   -1.294042    1.980144   -0.308476
 H   -3.244858   -2.826723    0.255157
 H   -4.729749   -0.930061   -0.300298
 H   -0.842387   -2.480645    0.504967
 H   -3.764883    1.345998   -0.545146
 H    0.294215    3.175694    0.047752
 H   -0.309603    2.291187    1.476192
 H    1.372290   -1.776021    1.117075
 H    1.093454   -1.970498   -0.624809
 H    4.013886    0.812846   -0.287730
