16 
4q9y_ligand_ani.xyz
 C   -2.663858   -1.372316    0.000036
 C   -1.521352   -0.388213   -0.000025
 C   -0.204367   -0.849378   -0.000013
 C    0.865268    0.043297    0.000011
 S    2.498013   -0.651169   -0.000006
 C    0.622380    1.417253    0.000054
 C   -0.686479    1.880268    0.000011
 C   -1.752031    0.986130   -0.000062
 H   -2.624509   -2.020685   -0.882526
 H   -2.624725   -2.020313    0.882884
 H   -3.631966   -0.864170   -0.000183
 H   -0.012436   -1.920267   -0.000025
 H    3.171492    0.507845   -0.000130
 H    1.447859    2.125305    0.000115
 H   -0.876990    2.950564    0.000043
 H   -2.774298    1.358183   -0.000161
