52 
4qaa_ligand_ani.xyz
 C    9.820860   -1.144830    0.418029
 C    8.934482   -0.296383   -0.489903
 C    7.450194   -0.631269   -0.350704
 C    6.559711    0.201422   -1.272833
 C    5.080818   -0.195806   -1.242764
 C    4.406060   -0.013237    0.116846
 C    2.922312   -0.373974    0.080230
 C    2.233389   -0.219222    1.438316
 N    0.846215   -0.641373    1.453105
 C   -0.150249    0.112199    0.911970
 C   -1.452049   -0.411282    0.778338
 C   -2.415259    0.424088    0.239850
 N   -2.148254    1.696267   -0.090511
 C   -0.880357    2.082679    0.071320
 N   -0.590951    3.381812   -0.253722
 N    0.145956    1.360505    0.541533
 C   -3.811182   -0.045763    0.019901
 C   -4.079376   -1.386085   -0.283197
 C   -5.375067   -1.828481   -0.474186
 C   -6.442756   -0.932597   -0.353734
 O   -7.679514   -1.458382   -0.544765
 C   -8.783996   -0.590850   -0.410483
 C   -6.192585    0.407133   -0.059217
 C   -4.881595    0.839675    0.114493
 H    9.563855   -0.994054    1.473021
 H    9.700254   -2.212099    0.197575
 H   10.879578   -0.894888    0.293023
 H    9.238974   -0.436907   -1.536363
 H    9.086352    0.768551   -0.265819
 H    7.147990   -0.487040    0.695825
 H    7.298935   -1.699352   -0.567459
 H    6.930875    0.109215   -2.303047
 H    6.658311    1.264204   -1.004685
 H    4.982591   -1.247759   -1.550860
 H    4.536485    0.394575   -1.992601
 H    4.529240    1.029120    0.447944
 H    4.910053   -0.636316    0.869689
 H    2.813418   -1.410908   -0.267637
 H    2.396644    0.262997   -0.643493
 H    2.257606    0.828504    1.751048
 H    2.755096   -0.811322    2.199034
 H    0.666361   -1.629437    1.538905
 H   -1.679984   -1.415483    1.119982
 H   -1.258708    3.831362   -0.862678
 H    0.384381    3.577858   -0.419940
 H   -3.261552   -2.094950   -0.392556
 H   -5.591232   -2.865758   -0.710595
 H   -8.834155   -0.158152    0.597390
 H   -8.748449    0.221887   -1.147865
 H   -9.670545   -1.201441   -0.587074
 H   -7.002235    1.123023    0.031797
 H   -4.684912    1.886651    0.329093
