43 
4qac_ligand_dft.xyz
 C   -4.582117    0.505063    0.013289
 C   -5.405595   -0.309098    1.008084
 C   -5.628108   -1.763053    0.526425
 C   -7.016003   -1.955430   -0.085274
 C   -4.537336   -2.155765   -0.485734
 C   -3.177271   -1.551185   -0.153062
 N   -3.259697   -0.095625   -0.140217
 C   -2.133338    0.667692   -0.145181
 C   -0.842818    0.090339   -0.098732
 N   -2.288723    1.998148   -0.189461
 C   -1.172220    2.732100   -0.194604
 N   -1.339679    4.084992   -0.270246
 N    0.091573    2.292642   -0.168917
 C    0.234648    0.960593   -0.124735
 C    1.635548    0.457570   -0.073550
 C    2.645338    1.285070    0.425428
 C    3.955771    0.836035    0.501137
 C    4.276371   -0.448636    0.067442
 C    5.705601   -0.914431    0.093157
 F    5.796290   -2.250190    0.216750
 F    6.392038   -0.368817    1.111908
 F    6.355603   -0.582070   -1.037652
 C    3.283626   -1.276967   -0.448149
 C    1.972709   -0.823986   -0.516915
 H   -4.441482    1.528144    0.359517
 H   -5.092535    0.562757   -0.958879
 H   -6.367622    0.189267    1.174089
 H   -4.876683   -0.302927    1.968184
 H   -5.541168   -2.428539    1.394579
 H   -7.171134   -1.256995   -0.917407
 H   -7.142359   -2.971835   -0.475129
 H   -7.803290   -1.776007    0.654710
 H   -4.828738   -1.821294   -1.489930
 H   -4.440688   -3.245443   -0.537125
 H   -2.448949   -1.864040   -0.909751
 H   -2.822576   -1.931004    0.818659
 H   -0.696649   -0.973534    0.018180
 H   -2.254094    4.446944   -0.054401
 H   -0.538730    4.654025   -0.049454
 H    2.381974    2.284983    0.750951
 H    4.729907    1.481337    0.902582
 H    3.534328   -2.272989   -0.796846
 H    1.211962   -1.469734   -0.943852
