25 
4qag_ligand_ani.xyz
 C    0.056688   -0.217945   -0.336683
 C   -1.078575    0.548352   -0.032388
 C   -2.332631   -0.041137    0.140918
 C   -2.448696   -1.419382    0.008115
 C   -1.331923   -2.203153   -0.285210
 C   -0.093559   -1.609325   -0.453358
 O   -3.392948    0.749464    0.430473
 O   -3.713090   -1.914071    0.188586
 O   -1.042533    1.901327    0.110663
 C    0.115938    2.621152   -0.054453
 C    1.315681    1.846559   -0.388305
 C    1.309970    0.508035   -0.520026
 O    0.075159    3.814368    0.080578
 C    2.578147   -0.237174   -0.889049
 C    3.134819   -1.133931    0.221618
 O    3.609392   -0.502289    1.316677
 O    3.189316   -2.332938    0.148842
 H   -1.442031   -3.280831   -0.382968
 H    0.769737   -2.231079   -0.667964
 H   -4.172934    0.180121    0.514443
 H   -3.706139   -2.871566    0.072068
 H    2.211611    2.439480   -0.538926
 H    3.350376    0.489124   -1.172403
 H    2.411262   -0.869845   -1.763611
 H    3.420607    0.445406    1.265743
