43 
4qb3_ligand_ani.xyz
 C    1.577955   -0.854531   -0.610202
 C    1.615429   -2.340551   -0.747525
 C    2.939792   -2.831971   -0.152975
 C    3.080420   -0.855576    1.371805
 O   -4.324882   -1.137220    1.984367
 C   -4.420211   -0.183338    1.228495
 C   -5.037815    1.126516    1.676627
 N   -3.984700   -0.220669   -0.063893
 C   -3.393103   -1.415738   -0.634679
 C   -1.894883   -1.285895   -0.911362
 C   -1.560755   -0.239901   -1.973668
 C   -0.098475   -0.277112   -2.425228
 N    0.849205    0.026620   -1.369758
 C    2.239167   -0.172300    0.378419
 O    3.626173   -0.322017    2.325916
 N    3.177497   -2.211818    1.145566
 C    1.916030    1.213741    0.239435
 C    1.045663    1.302178   -0.856629
 C    0.522655    2.527787   -1.279319
 C    0.902148    3.658886   -0.576089
 C    1.776679    3.582276    0.524159
 C    2.286493    2.367835    0.939533
 H    1.523242   -2.676364   -1.787190
 H    0.783152   -2.787187   -0.181957
 H    3.760926   -2.611528   -0.851294
 H    2.916649   -3.915594   -0.006861
 H   -6.043409    0.922504    2.054159
 H   -4.449783    1.524402    2.508634
 H   -5.097189    1.881034    0.886647
 H   -4.091427    0.595860   -0.644943
 H   -3.927925   -1.677427   -1.557133
 H   -3.570321   -2.210874    0.090495
 H   -1.528291   -2.271745   -1.235617
 H   -1.382028   -1.046930    0.028943
 H   -1.790480    0.764982   -1.598710
 H   -2.189347   -0.397456   -2.860523
 H    0.064709    0.442283   -3.234121
 H    0.148931   -1.264579   -2.826038
 H    3.819445   -2.678132    1.771799
 H   -0.159877    2.590783   -2.123141
 H    0.515396    4.628810   -0.878969
 H    2.049981    4.493129    1.049843
 H    2.960165    2.275142    1.785539
