62 
4qd6_ligand_dft.xyz
 C   -6.281947   23.904544   56.256850
 C   -6.856755   24.485815   57.373546
 C   -6.115614   24.901948   58.464497
 C   -4.725084   24.702587   58.384769
 N   -4.138627   24.136136   57.324989
 C   -4.884957   23.752200   56.289675
 S   -8.629980   24.761166   57.383383
 C   -8.776010   26.389963   56.662503
 C   -8.897603   26.511521   55.281808
 C   -8.987743   27.782478   54.724483
 C   -8.955824   28.907854   55.545024
 C   -8.840754   28.770242   56.926499
 C   -8.749479   27.504302   57.495002
 O   -9.057660   24.850070   58.776638
 O   -9.233502   23.807524   56.457296
 N   -3.898688   25.120361   59.395016
 N   -4.246018   23.173211   55.220038
 C   -2.880025   22.971509   55.050054
 C   -1.830063   23.004661   55.991820
 C   -0.701124   22.686062   55.262660
 N   -1.123702   22.471087   53.993675
 N   -2.450165   22.657509   53.832008
 C   -2.490666   24.766630   59.441315
 C   -1.708052   25.756989   60.303363
 C   -0.214454   25.424328   60.266096
 C    0.063530   23.995325   60.720269
 C   -0.764725   22.982805   59.926334
 C   -2.255556   23.329066   59.927389
 O    1.456671   23.778442   60.558852
 C    0.691634   22.556897   55.703642
 C    1.562894   21.624063   55.132197
 C    2.864912   21.498190   55.605604
 C    3.304726   22.282444   56.669255
 C    2.442180   23.210282   57.248954
 C    1.152673   23.357841   56.753987
 H   -6.885777   23.556650   55.427027
 H   -6.588957   25.338716   59.335998
 H   -8.938268   25.621373   54.663024
 H   -9.088002   27.894041   53.649514
 H   -9.027029   29.898156   55.105488
 H   -8.827055   29.649486   57.562765
 H   -8.676645   27.373425   58.569425
 H   -4.342863   25.342405   60.273804
 H   -4.800719   22.965331   54.403357
 H   -1.901580   23.189097   57.047513
 H   -0.555826   22.318470   53.176562
 H   -2.123163   24.853079   58.413796
 H   -1.880291   26.776697   59.943738
 H   -2.073383   25.713186   61.340845
 H    0.162474   25.534347   59.240296
 H    0.356634   26.118987   60.890404
 H   -0.209336   23.912448   61.787307
 H   -0.612741   21.974639   60.334162
 H   -0.383470   22.964804   58.898712
 H   -2.666143   23.231209   60.942800
 H   -2.807741   22.632238   59.288378
 H    1.632238   22.844581   60.725750
 H    1.212303   20.970400   54.337612
 H    3.531804   20.769240   55.154842
 H    4.316330   22.168145   57.047010
 H    2.759001   23.815290   58.092586
 H    0.490757   24.106504   57.178795
