62 
4qd6_ligand_ani.xyz
 C   -6.274813   24.001416   56.181568
 C   -6.878181   24.509750   57.322160
 C   -6.133606   24.830272   58.443467
 C   -4.743634   24.639063   58.360124
 N   -4.136571   24.173531   57.261912
 C   -4.879834   23.848337   56.210671
 S   -8.656055   24.781539   57.336051
 C   -8.788627   26.447421   56.721980
 C   -8.885356   26.658633   55.352267
 C   -8.932131   27.962684   54.873761
 C   -8.889985   29.034492   55.762624
 C   -8.806454   28.805848   57.134261
 C   -8.758926   27.505170   57.622077
 O   -9.092858   24.789003   58.728177
 O   -9.248882   23.896263   56.339119
 N   -3.937543   24.957959   59.413796
 N   -4.234211   23.342104   55.103642
 C   -2.897247   22.943219   55.018124
 C   -1.788057   23.310991   55.813628
 C   -0.713827   22.624712   55.282444
 N   -1.215746   21.919951   54.238412
 N   -2.537728   22.118992   54.042637
 C   -2.509499   24.699293   59.407592
 C   -1.830843   25.505181   60.517320
 C   -0.317831   25.287407   60.517842
 C    0.037013   23.811775   60.644029
 C   -0.641455   22.991593   59.543546
 C   -2.155789   23.206260   59.536229
 O    1.451026   23.713650   60.576841
 C    0.694264   22.589013   55.722176
 C    1.503341   21.457764   55.579374
 C    2.808704   21.465037   56.057303
 C    3.328038   22.597482   56.679402
 C    2.531709   23.730119   56.821964
 C    1.225750   23.720715   56.344127
 H   -6.858180   23.708207   55.315893
 H   -6.600314   25.191409   59.354054
 H   -8.939950   25.806296   54.681259
 H   -9.004876   28.144307   53.804958
 H   -8.926592   30.053406   55.384647
 H   -8.781277   29.643868   57.825434
 H   -8.716320   27.299819   58.687794
 H   -4.387294   25.096956   60.305411
 H   -4.808572   22.987320   54.352736
 H   -1.805991   23.961531   56.671964
 H   -0.697461   21.402834   53.543574
 H   -2.132518   25.058395   58.441940
 H   -2.070055   26.567964   60.394302
 H   -2.251663   25.186298   61.483828
 H    0.115847   25.657523   59.577314
 H    0.161459   25.845105   61.329908
 H   -0.323610   23.445618   61.621877
 H   -0.411495   21.925976   59.675683
 H   -0.212495   23.287530   58.576461
 H   -2.583318   22.824137   60.475285
 H   -2.625704   22.645649   58.721032
 H    1.676296   22.774571   60.576369
 H    1.108427   20.559043   55.109954
 H    3.425905   20.577600   55.942206
 H    4.350085   22.597629   57.048278
 H    2.922377   24.620885   57.307563
 H    0.600133   24.602485   56.460629
