47 
4qdk_ligand_xtb.xyz
 N    2.886044    0.214641   -1.136107
 C    3.028357   -0.700640    0.021593
 C    2.431843   -2.082718   -0.272756
 C    0.919770   -2.154824   -0.109578
 S    0.010920   -1.075734   -1.293677
 C    4.542105   -0.832181    0.242813
 O    4.851129   -1.466313    1.345469
 O    5.313737   -0.389827   -0.567548
 C   -1.532693   -2.005436   -1.505565
 C   -2.592750   -1.686863   -0.451216
 O   -2.026341   -1.586874    0.848884
 C   -3.365101   -0.382184   -0.713983
 O   -4.561997   -0.699666   -1.363491
 C   -3.602656    0.178526    0.709812
 O   -4.791781   -0.295294    1.258394
 C   -2.399641   -0.384708    1.480438
 N   -1.249920    0.502813    1.466042
 C   -0.093139    0.211825    2.135054
 N    0.943029    0.888605    1.742734
 C    0.463953    1.710253    0.752990
 C    1.059718    2.597154   -0.140940
 N    2.452553    2.724028   -0.231256
 N    0.315837    3.221328   -1.036305
 C   -0.986820    2.975861   -1.069898
 N   -1.658218    2.112769   -0.334255
 C   -0.918570    1.479820    0.569367
 H    3.779307    0.144632   -1.661479
 H    2.770341    1.248750   -0.822577
 H    2.083336   -0.054644   -1.718316
 H    2.549015   -0.266612    0.909648
 H    2.713663   -2.389871   -1.282439
 H    2.865448   -2.797061    0.429945
 H    0.586846   -3.172218   -0.307408
 H    0.620102   -1.874710    0.898266
 H    5.811925   -1.558282    1.469703
 H   -1.265389   -3.061076   -1.482347
 H   -1.913259   -1.751937   -2.494500
 H   -3.320116   -2.512249   -0.452382
 H   -2.756960    0.324098   -1.293646
 H   -5.004378    0.109545   -1.647529
 H   -3.598055    1.274122    0.726175
 H   -5.259428   -0.812239    0.581833
 H   -2.657833   -0.606272    2.521708
 H   -0.068053   -0.525917    2.913710
 H    2.904083    2.767129    0.676272
 H    2.710861    3.509012   -0.821626
 H   -1.555704    3.528734   -1.802582
