20 
4qem_ligand_xtb.xyz
 C    3.442598    0.023520    0.000671
 O    3.787577    1.175416    0.010054
 O    4.368672   -0.963696   -0.010724
 C    2.040045   -0.422534    0.000288
 C    1.050162    0.482948    0.002360
 C   -0.374085    0.243553    0.001833
 C   -1.243958    1.341450   -0.004056
 C   -2.609541    1.174612   -0.005714
 C   -3.154200   -0.108861   -0.001033
 C   -2.303291   -1.211529    0.005092
 C   -0.936147   -1.036303    0.006423
 O   -4.501713   -0.235143   -0.002283
 H    3.968206   -1.842263   -0.018499
 H    1.853412   -1.488130   -0.002071
 H    1.355844    1.522735    0.003580
 H   -0.830364    2.338853   -0.007566
 H   -3.279314    2.019528   -0.010415
 H   -2.722151   -2.209637    0.008633
 H   -0.299675   -1.907331    0.011828
 H   -4.751748   -1.167521    0.002950
