29 
4qer_ligand_xtb.xyz
 C    3.632215    1.233880   -0.107284
 C    4.480429    0.141304    0.016549
 C    3.938993   -1.133440    0.109362
 C    2.563627   -1.310952    0.078439
 C    1.702547   -0.218130   -0.035020
 C    2.256485    1.058392   -0.131435
 C    0.272118   -0.462288   -0.058382
 C   -0.693473    0.461272    0.053890
 C   -2.123321    0.224431    0.029932
 C   -2.989741    1.287684    0.308754
 C   -4.357181    1.127366    0.298962
 C   -4.908506   -0.115909    0.001126
 C   -4.063604   -1.183390   -0.284013
 C   -2.694751   -1.014320   -0.268847
 O   -6.262022   -0.239805   -0.003235
 O    4.796500   -2.183000    0.226104
 O    4.198001    2.467109   -0.205195
 H    5.547430    0.281713    0.035554
 H    2.151903   -2.309384    0.151825
 H    1.617049    1.922351   -0.240876
 H   -0.000405   -1.504630   -0.156062
 H   -0.419753    1.498212    0.196848
 H   -2.575587    2.258311    0.541451
 H   -5.020156    1.949689    0.516245
 H   -4.486561   -2.151380   -0.521680
 H   -2.065101   -1.858511   -0.502602
 H   -6.508534   -1.145670   -0.226057
 H    4.296954   -3.006448    0.282275
 H    3.507907    3.135925   -0.290527
