29 
4qer_ligand_ani.xyz
 C    3.654553    1.229625   -0.119881
 C    4.505615    0.137213   -0.009438
 C    3.956080   -1.136472    0.100209
 C    2.573864   -1.315289    0.101126
 C    1.723179   -0.211369   -0.004945
 C    2.269286    1.068499   -0.121553
 C    0.268355   -0.456012    0.007353
 C   -0.699823    0.466615    0.083412
 C   -2.150750    0.225958    0.035200
 C   -3.021804    1.288453    0.315401
 C   -4.395849    1.126453    0.295946
 C   -4.934061   -0.123379   -0.015419
 C   -4.088784   -1.192730   -0.305997
 C   -2.711983   -1.014176   -0.280494
 O   -6.289414   -0.234625   -0.021286
 O    4.831515   -2.173490    0.203839
 O    4.241658    2.453689   -0.226108
 H    5.580969    0.274536   -0.010057
 H    2.156593   -2.316627    0.191645
 H    1.630617    1.941944   -0.232548
 H   -0.002080   -1.509768   -0.032930
 H   -0.424689    1.512159    0.214878
 H   -2.607501    2.264341    0.560338
 H   -5.068323    1.950463    0.516961
 H   -4.504352   -2.168775   -0.552872
 H   -2.074657   -1.859905   -0.525266
 H   -6.531174   -1.141114   -0.249031
 H    4.335061   -2.998510    0.273488
 H    3.552199    3.126327   -0.291674
