33 
4qf9_ligand_ani.xyz
 C   -0.278562    2.294748   -0.310791
 N    1.991759   -1.197156   -0.555479
 O    3.923222   -2.355789   -0.319548
 C   -0.894087    1.130221   -0.787043
 N    3.152268    1.068325    0.355248
 O    5.132584    0.009233    0.649035
 C   -0.137039   -0.040350   -0.858402
 N   -2.173310   -0.041089    1.835130
 O   -4.463631   -1.397516   -0.629284
 C    1.055848    2.297163    0.074737
 O   -2.611500   -2.144258    0.404086
 C    1.803479    1.126693   -0.013957
 C    1.202929   -0.042214   -0.483812
 C    3.316311   -1.314108   -0.216122
 C    3.973113   -0.030887    0.305589
 C   -2.353786    1.145262   -1.196100
 C   -3.352415    1.255270   -0.031083
 C   -3.381449    0.065604    0.940235
 C   -3.437022   -1.276913    0.218102
 H   -0.854966    3.217076   -0.243923
 H    1.575171   -2.055785   -0.894713
 H    3.606249    1.902969    0.704916
 H   -0.601009   -0.970146   -1.177013
 H   -1.806597   -0.999366    1.641582
 H   -1.457354    0.662261    1.575888
 H   -2.423152    0.059499    2.833704
 H   -4.400977   -2.283973   -1.024033
 H    1.522141    3.207829    0.441801
 H   -2.582442    0.238702   -1.766381
 H   -2.528278    1.991604   -1.872443
 H   -3.162825    2.169258    0.544881
 H   -4.356286    1.356125   -0.451053
 H   -4.274028    0.137097    1.560069
