27 
4qfn_ligand_dft.xyz
 N    3.101839   -1.342158   -0.143541
 C    1.816725   -2.003527   -0.506802
 C    0.804416   -1.353145    0.447277
 O    1.209563   -0.997752    1.548222
 N   -0.431489   -1.176027   -0.022539
 C   -1.415014   -0.362962    0.683344
 C   -2.748989   -0.377166   -0.054783
 O   -2.680787   -0.992429   -1.251597
 C   -0.950365    1.096644    0.878118
 C   -0.413924    1.757948   -0.420112
 C    1.092896    1.813702   -0.436920
 O    1.830562    0.941951   -0.877719
 O    1.558843    2.922925    0.116943
 O   -3.740138    0.139397    0.380008
 H    3.103351   -1.280826    0.889594
 H    3.059561   -0.365087   -0.491056
 H    3.933236   -1.823369   -0.490214
 H    1.905251   -3.075547   -0.318051
 H    1.611140   -1.816004   -1.560079
 H   -0.670381   -1.474790   -0.958456
 H   -1.601647   -0.797032    1.670494
 H   -3.566003   -0.957290   -1.652619
 H   -1.811223    1.657057    1.248929
 H   -0.194105    1.116940    1.665545
 H   -0.790493    2.779731   -0.493675
 H   -0.739933    1.211785   -1.309655
 H    2.529964    2.910017    0.094227
