40 
4qfo_ligand_ani.xyz
 N    1.995075   -2.479124   -0.582567
 C    1.163842   -1.859639    0.505144
 C    0.074407   -1.076038   -0.256142
 O   -0.103670   -1.335668   -1.440383
 C    1.975472   -1.046207    1.523309
 C    2.613953    0.251628    1.021905
 S    3.982937   -0.043897   -0.140349
 C    4.316698    1.656579   -0.647779
 N   -0.670210   -0.170935    0.430543
 C   -1.569597    0.744935   -0.238908
 C   -1.041875    2.159405   -0.067391
 O   -0.145268    2.476197    0.679436
 C   -3.015433    0.663657    0.286015
 C   -3.615614   -0.747172    0.286395
 C   -3.648274   -1.361839   -1.113405
 C   -5.021125   -0.705477    0.886197
 O   -1.707493    3.043743   -0.826021
 H    1.404939   -2.343757   -1.434471
 H    2.883379   -1.953803   -0.690077
 H    2.184501   -3.479006   -0.415365
 H    0.656442   -2.663434    1.042076
 H    1.313151   -0.794117    2.361640
 H    2.749416   -1.694210    1.950041
 H    3.013520    0.804651    1.878734
 H    1.872838    0.886943    0.530824
 H    5.087353    1.633509   -1.421786
 H    4.677606    2.261819    0.189097
 H    3.417093    2.113637   -1.071492
 H   -0.308266    0.150528    1.317817
 H   -1.547874    0.497410   -1.304591
 H   -3.635196    1.330096   -0.327498
 H   -3.047577    1.068180    1.307684
 H   -2.987222   -1.382926    0.923534
 H   -2.644078   -1.487891   -1.532059
 H   -4.231513   -0.735447   -1.802189
 H   -4.122243   -2.349680   -1.085222
 H   -5.685092   -0.080303    0.274856
 H   -5.010094   -0.291144    1.900909
 H   -5.459465   -1.708590    0.935966
 H   -1.325926    3.917131   -0.634989
