34 
4qfp_ligand_xtb.xyz
 N    2.902755   -0.977436   -1.250881
 C    2.006188   -0.873909   -0.078132
 C    0.641758   -0.529519   -0.736109
 O    0.659530   -0.403924   -1.961626
 C    2.472556    0.209365    0.911076
 C    2.585663    1.574473    0.234431
 C    3.788863   -0.199513    1.570125
 N   -0.414660   -0.426251    0.035352
 C   -1.724206   -0.040685   -0.435902
 C   -1.943884    1.473539   -0.307761
 O   -0.816602    2.127114   -0.023593
 C   -2.789876   -0.777988    0.402568
 O   -2.358427   -0.648125    1.746562
 C   -2.923838   -2.239888   -0.013251
 O   -3.006025    1.995780   -0.454441
 H    3.638200   -0.267120   -1.227137
 H    2.149687   -0.726628   -2.037202
 H    3.307512   -1.899791   -1.405748
 H    1.931117   -1.836789    0.433213
 H    1.709052    0.279454    1.690451
 H    3.407201    1.620151   -0.478716
 H    2.777478    2.333452    0.986906
 H    1.661297    1.835009   -0.274161
 H    4.605442   -0.256021    0.853138
 H    4.064592    0.535607    2.320160
 H    3.695835   -1.162240    2.066360
 H   -0.373329   -0.528059    1.042873
 H   -1.820082   -0.296614   -1.495992
 H   -0.993239    3.080304    0.051554
 H   -3.744587   -0.257269    0.251195
 H   -3.052990   -0.966606    2.332321
 H   -1.974685   -2.759249    0.098368
 H   -3.663229   -2.736248    0.610258
 H   -3.249084   -2.307554   -1.046618
