53 
4qge_ligand_dft.xyz
 C   -0.565811    3.122612   -0.511965
 C   -1.169104    4.474697   -0.907436
 C   -1.786143    4.187551   -2.280012
 C   -2.447720    2.815525   -2.088884
 C   -1.545380    2.062111   -1.078147
 N   -2.327819    1.422400   -0.029851
 C   -2.355079    0.118905    0.306841
 N   -1.644606   -0.870042   -0.305850
 N   -3.122089    2.167415    0.789294
 C   -3.655751    1.319423    1.646532
 C   -3.211840    0.000688    1.400193
 C   -3.420000   -1.292980    1.986733
 O   -4.118152   -1.626558    2.921655
 N   -2.654084   -2.279394    1.297679
 C   -1.826021   -2.055488    0.227507
 N   -1.191451   -3.139159   -0.287698
 C   -0.316684   -3.089995   -1.459210
 C   -0.305825   -4.448749   -2.141374
 C    1.120569   -2.654056   -1.075198
 O    2.054613   -3.439118   -1.094017
 N    1.190606   -1.341093   -0.730505
 C    2.289275   -0.625092   -0.213944
 C    2.019191    0.621886    0.364175
 C    3.039664    1.404259    0.870285
 C    4.362534    0.952381    0.819281
 O    5.294148    1.790819    1.346043
 C    6.639475    1.374586    1.327968
 C    4.635245   -0.290925    0.252527
 C    3.604701   -1.077127   -0.264559
 H   -0.431738    3.007662    0.567037
 H    0.413833    2.994067   -0.986898
 H   -1.956370    4.747095   -0.195898
 H   -0.428389    5.279331   -0.924790
 H   -2.499664    4.951343   -2.602250
 H   -0.996362    4.130730   -3.039948
 H   -2.573096    2.259684   -3.022139
 H   -3.436246    2.942803   -1.637766
 H   -1.003756    1.244746   -1.559380
 H   -4.336671    1.669154    2.409314
 H   -2.801292   -3.220542    1.638781
 H   -1.140692   -3.975650    0.274589
 H   -0.744256   -2.336767   -2.128081
 H   -1.324042   -4.742728   -2.410456
 H    0.136290   -5.207149   -1.488507
 H    0.305294   -4.408893   -3.045450
 H    0.293931   -0.857773   -0.701208
 H    0.992602    0.975292    0.426029
 H    2.833453    2.369896    1.319849
 H    7.004309    1.229633    0.302497
 H    6.782569    0.445019    1.894320
 H    7.208893    2.175285    1.801678
 H    5.648601   -0.672234    0.199181
 H    3.822238   -2.043297   -0.699331
