51 
4qjm_ligand_ani.xyz
 F   -0.587229   -2.361698   -0.876718
 C   -0.933349   -1.065969   -0.819692
 C   -2.276817   -0.750719   -0.712169
 S   -3.499703   -1.970202   -0.336234
 O   -2.871345   -3.073086    0.363691
 N   -4.407717   -1.165211    0.816473
 O   -4.304055   -2.179516   -1.527192
 C   -2.651550    0.572618   -0.880390
 F   -3.936605    0.931679   -0.917385
 C   -1.675820    1.552583   -0.992799
 F   -2.101130    2.814800   -1.108282
 C    0.090409   -0.098986   -0.889010
 C   -0.322992    1.257071   -0.923141
 S    0.792445    2.637891   -0.804541
 O    0.521270    3.549836   -1.903902
 O    2.156277    2.145386   -0.586533
 C    0.290364    3.481249    0.707447
 C    0.783415    2.814311    1.995942
 C    0.254907    1.421316    2.265124
 C   -1.114760    1.167606    2.365662
 C   -1.593814   -0.123806    2.537519
 C    1.137366    0.349458    2.413033
 C    0.665773   -0.945343    2.608703
 C   -0.704131   -1.188350    2.649728
 N    1.407420   -0.428093   -0.930043
 C    1.967012   -1.752957   -0.780693
 C    3.457588   -1.651331   -0.545378
 C    4.350050   -1.662513   -1.616514
 C    5.719017   -1.522735   -1.400836
 C    6.208746   -1.364418   -0.108181
 C    5.324131   -1.348071    0.966814
 C    3.956002   -1.490995    0.748337
 H   -4.738142   -1.845889    1.493372
 H   -5.174084   -0.653920    0.391202
 H   -0.794884    3.601139    0.663216
 H    0.738692    4.474114    0.601620
 H    0.499950    3.483259    2.820063
 H    1.876652    2.789491    1.969653
 H   -1.820695    1.994647    2.298870
 H   -2.667694   -0.305680    2.543933
 H    2.207917    0.544827    2.372714
 H    1.362065   -1.774216    2.734357
 H   -1.077669   -2.206645    2.745573
 H    2.032249    0.372327   -0.922896
 H    1.769694   -2.354833   -1.676516
 H    1.499977   -2.269197    0.067727
 H    3.972788   -1.784228   -2.630462
 H    6.403711   -1.537469   -2.245650
 H    7.276817   -1.254471    0.062178
 H    5.699436   -1.225020    1.979427
 H    3.269656   -1.482234    1.594903
