51 
4qjo_ligand_ani.xyz
 F    1.294946   -2.496972   -0.197604
 C    1.546470   -1.182190   -0.286727
 C    2.828143   -0.722852   -0.023345
 S    4.166025   -1.757203    0.491401
 O    3.835882   -3.143421    0.237693
 N    5.331783   -1.334611   -0.622037
 O    4.579195   -1.297178    1.803584
 C    3.067191    0.638686   -0.108625
 F    4.270529    1.135548    0.176417
 C    2.050452    1.498317   -0.492420
 F    2.332821    2.808187   -0.539241
 C    0.480109   -0.337212   -0.653370
 C    0.776529    1.044820   -0.789601
 S   -0.388543    2.253188   -1.387499
 O   -1.716396    1.639758   -1.469414
 O    0.179315    2.900312   -2.560862
 C   -0.444119    3.517210   -0.099226
 C   -0.411416    3.039763    1.359748
 C   -1.483742    2.046540    1.747243
 C   -2.837488    2.385174    1.681641
 C   -3.821659    1.464261    2.026587
 C   -1.140306    0.765578    2.179310
 C   -2.120176   -0.160905    2.522656
 C   -3.466050    0.186299    2.444959
 N   -0.778550   -0.797184   -0.865374
 C   -1.281808   -2.107317   -0.527378
 C   -2.791984   -2.129939   -0.632677
 C   -3.576051   -2.648404    0.397750
 C   -4.961972   -2.709897    0.277733
 C   -5.582786   -2.251564   -0.879786
 C   -4.809621   -1.732766   -1.914010
 C   -3.425073   -1.665040   -1.785928
 H    5.770509   -2.168736   -0.996721
 H    5.999818   -0.677543   -0.234065
 H   -1.364206    4.067159   -0.321582
 H    0.400295    4.176467   -0.305741
 H   -0.506253    3.942984    1.976723
 H    0.578176    2.626752    1.582433
 H   -3.126984    3.384990    1.359571
 H   -4.869261    1.749995    1.966809
 H   -0.087396    0.492550    2.239431
 H   -1.826354   -1.157538    2.851488
 H   -4.237873   -0.533379    2.711609
 H   -1.448319   -0.066403   -1.093009
 H   -0.987319   -2.390314    0.492463
 H   -0.843936   -2.863297   -1.192885
 H   -3.099957   -3.010260    1.309072
 H   -5.559730   -3.113672    1.092222
 H   -6.664156   -2.298976   -0.976279
 H   -5.284813   -1.365300   -2.820596
 H   -2.831053   -1.256689   -2.602834
