51 
4qjp_ligand_ani.xyz
 F    2.870020    1.299185   -0.737731
 C    1.637143    1.406641   -0.205795
 C    1.118542    2.668089    0.039051
 S    2.099917    4.093703   -0.326817
 O    3.276670    4.049630    0.522308
 N    2.554908    3.776585   -1.897712
 O    1.235106    5.252897   -0.372639
 C   -0.145694    2.733026    0.611667
 F   -0.738311    3.887238    0.887704
 C   -0.836042    1.566812    0.925412
 F   -2.045943    1.733020    1.456634
 C    0.954801    0.216687    0.060207
 C   -0.292280    0.307636    0.685511
 S   -1.148083   -1.179898    1.143263
 O   -2.401742   -0.824728    1.783966
 O   -0.214268   -2.061637    1.849908
 C   -1.491701   -1.966653   -0.439919
 C   -2.259116   -1.097729   -1.442117
 C   -3.719353   -0.888106   -1.106362
 C   -4.187561    0.340355   -0.634516
 C   -5.537994    0.524341   -0.347830
 C   -4.628260   -1.936399   -1.259857
 C   -5.977110   -1.757972   -0.973431
 C   -6.436218   -0.524244   -0.519594
 N    1.534518   -1.013526   -0.312955
 C    2.589767   -1.493675    0.593021
 C    2.983541   -2.895460    0.222551
 C    4.259203   -3.200841   -0.248345
 C    4.587134   -4.505091   -0.607778
 C    3.638999   -5.516543   -0.496375
 C    2.362314   -5.217329   -0.027712
 C    2.032371   -3.912590    0.324442
 H    3.495045    3.399544   -1.947453
 H    2.431945    4.607538   -2.465838
 H   -2.046788   -2.872113   -0.173719
 H   -0.512214   -2.252844   -0.833120
 H   -2.183557   -1.592403   -2.418345
 H   -1.751038   -0.132666   -1.546915
 H   -3.482911    1.153493   -0.462244
 H   -5.888740    1.488060    0.012904
 H   -4.272299   -2.902755   -1.614914
 H   -6.672060   -2.583907   -1.104817
 H   -7.490755   -0.382841   -0.296144
 H    1.912978   -0.931078   -1.251532
 H    2.151487   -1.488001    1.593729
 H    3.461729   -0.823456    0.597624
 H    5.004030   -2.411616   -0.333591
 H    5.586333   -4.730641   -0.973152
 H    3.892662   -6.537111   -0.773211
 H    1.619615   -6.006083    0.063281
 H    1.036259   -3.673422    0.697820
