42 
4qjw_ligand_dft.xyz
 F    0.779149   -2.311357    0.538488
 C    1.077257   -1.068193    0.156676
 C    2.397887   -0.728987   -0.075879
 S    3.744435   -1.927115    0.096719
 O    3.196568   -3.247053   -0.112904
 N    4.745249   -1.645687   -1.183451
 O    4.455720   -1.546873    1.297047
 C    2.705294    0.608236   -0.331050
 F    3.977726    1.008862   -0.483268
 C    1.700114    1.543987   -0.406685
 F    2.044995    2.817725   -0.599064
 C    0.002628   -0.144206    0.074708
 C    0.355998    1.187715   -0.257086
 S   -0.846470    2.494663   -0.556188
 O   -2.181464    1.898776   -0.534083
 O   -0.429265    3.234455   -1.736974
 C   -0.679802    3.586977    0.879609
 C   -0.382918    2.858035    2.179899
 O   -1.372141    1.874272    2.369752
 N   -1.267120   -0.541627    0.370573
 C   -1.822090   -1.856041    0.025202
 C   -3.321619   -1.765617   -0.137027
 C   -4.163122   -2.566423    0.633763
 C   -5.544826   -2.504463    0.472242
 C   -6.097562   -1.631382   -0.458919
 C   -5.263867   -0.823103   -1.228599
 C   -3.884423   -0.892661   -1.072290
 H    4.370117   -1.962275   -2.069978
 H    5.154397   -0.719111   -1.201799
 H   -1.644248    4.101491    0.924697
 H    0.109953    4.301032    0.637510
 H   -0.382226    3.602991    2.989294
 H    0.623249    2.418775    2.133758
 H   -1.069936    1.249234    3.037755
 H   -1.943880    0.213402    0.364432
 H   -1.578329   -2.588053    0.799151
 H   -1.371552   -2.212613   -0.909921
 H   -3.734789   -3.244942    1.367340
 H   -6.188100   -3.134890    1.078881
 H   -7.174998   -1.577669   -0.583411
 H   -5.688279   -0.135867   -1.954112
 H   -3.241589   -0.250009   -1.667418
