42 
4qjx_ligand_xtb.xyz
 F   -2.106336   -1.248123   -1.406221
 C   -1.418013   -0.215400   -0.905942
 C   -2.081670    0.687215   -0.112618
 S   -3.800396    0.483090    0.413279
 O   -3.760120    0.356865    1.835473
 N   -4.420113    1.958472   -0.033594
 O   -4.454684   -0.515606   -0.362606
 C   -1.401488    1.782159    0.401704
 F   -2.043501    2.664291    1.179105
 C   -0.057674    1.945501    0.107263
 F    0.616245    2.977361    0.631508
 C   -0.040028   -0.088638   -1.232251
 C    0.616645    1.030056   -0.684708
 S    2.402804    1.314203   -0.826724
 O    2.651894    2.640090   -1.294524
 O    2.975642    0.240756   -1.608087
 C    3.006295    1.110974    0.871661
 C    4.524432    1.090556    0.812186
 O    5.016566    0.836997    2.107699
 N    0.603923   -0.948884   -2.054745
 C    0.357029   -2.386558   -2.037475
 C    0.512393   -2.916996   -0.631390
 C   -0.534527   -3.551926    0.020144
 C   -0.389092   -3.967558    1.333346
 C    0.798804   -3.743281    2.006717
 C    1.846881   -3.105298    1.362510
 C    1.705272   -2.694504    0.049650
 H   -4.506929    2.609826    0.728992
 H   -5.263123    1.872277   -0.575101
 H    2.619270    0.164855    1.241470
 H    2.652133    1.937808    1.478202
 H    4.875878    2.059310    0.433428
 H    4.840384    0.306656    0.110264
 H    5.978710    0.867726    2.091389
 H    1.585404   -0.705027   -2.173603
 H    1.096668   -2.836032   -2.703049
 H   -0.636635   -2.612288   -2.425677
 H   -1.467770   -3.715036   -0.497409
 H   -1.209735   -4.460225    1.832390
 H    0.909264   -4.062696    3.032041
 H    2.775755   -2.928768    1.885105
 H    2.521941   -2.194574   -0.452894
