42 
4qjx_ligand_ani.xyz
 F    1.683676   -1.627117   -0.214060
 C    0.396146   -1.258693   -0.263814
 C   -0.582914   -2.195643    0.026035
 S   -0.224360   -3.901913    0.360049
 O   -0.689114   -4.175932    1.702409
 N   -1.211472   -4.749029   -0.661487
 O    1.131391   -4.169332   -0.064014
 C   -1.897004   -1.754145    0.084502
 F   -2.888388   -2.596926    0.387195
 C   -2.198511   -0.425210   -0.162466
 F   -3.484972   -0.067113   -0.070504
 C    0.129728    0.086340   -0.580865
 C   -1.218215    0.509891   -0.472988
 S   -1.756699    2.187123   -0.704081
 O   -2.823894    2.197286   -1.693220
 O   -0.581981    3.045038   -0.897083
 C   -2.465196    2.616693    0.882035
 C   -2.989090    4.044191    0.843082
 O   -3.539708    4.297155    2.119742
 N    1.123127    0.937823   -0.953606
 C    2.421948    0.628597   -1.502811
 C    3.540299    1.012960   -0.548755
 C    4.218120    0.054494    0.205556
 C    5.242263    0.429327    1.068883
 C    5.594529    1.769354    1.198788
 C    4.910488    2.733069    0.464376
 C    3.886763    2.356359   -0.398595
 H   -2.198893   -4.614731   -0.478912
 H   -0.952218   -4.667342   -1.637907
 H   -1.676079    2.508427    1.631074
 H   -3.267512    1.906423    1.090298
 H   -3.743725    4.134769    0.047832
 H   -2.163441    4.733446    0.614860
 H   -3.891492    5.194481    2.118382
 H    0.865523    1.917680   -0.929172
 H    2.540577    1.207740   -2.429649
 H    2.478366   -0.425826   -1.777002
 H    3.933006   -0.991538    0.124051
 H    5.765617   -0.330670    1.643411
 H    6.395792    2.062146    1.872624
 H    5.174707    3.783224    0.563150
 H    3.352613    3.118035   -0.967005
