16 
4qkd_ligand_ani.xyz
 C   -2.458996    0.396499   -0.125106
 O   -2.483450    1.566018   -0.400551
 O   -3.534887   -0.379766   -0.039205
 C   -1.152246   -0.386290    0.173794
 O   -1.260046   -1.574799    0.402762
 C    0.143567    0.369599    0.190997
 C    1.312375   -0.487438   -0.277199
 C    2.650805    0.165527    0.017576
 O    2.784902    1.206202    0.602623
 O    3.733111   -0.514818   -0.426274
 H   -3.219389   -1.275801    0.191514
 H    0.328944    0.712457    1.216738
 H    0.031448    1.277430   -0.410710
 H    1.246964   -0.689145   -1.355296
 H    1.270417   -1.463411    0.223842
 H    3.451551   -1.331608   -0.861294
