66 
4ql1_ligand_dft.xyz
 F    0.912974    4.929769    0.360511
 C    1.194761    4.028168   -0.583471
 F    1.742956    4.653023   -1.622547
 F    0.040600    3.474773   -0.987680
 C    2.110056    2.954116   -0.036283
 C    3.156683    2.506575   -0.734012
 C    3.866988    1.325785   -0.221855
 O    4.422692    0.535710   -0.972918
 N    3.862230    1.067571    1.166050
 C    2.910720    1.578842    1.856826
 C    1.756155    2.345643    1.291813
 C    0.515260    1.387486    1.133651
 O   -0.595970    1.763601    1.428026
 N    0.846332    0.172497    0.623824
 C    0.011300   -0.890356    0.254249
 C   -1.379132   -0.842112    0.292714
 C    0.673705   -2.054593   -0.173678
 N    2.114361   -2.052678   -0.145131
 C    2.748675   -2.339443   -1.441607
 C    4.208244   -2.767758   -1.252617
 N    4.812897   -2.045116   -0.095301
 C    6.288431   -2.221160   -0.009459
 C    4.124533   -2.408287    1.193507
 C    2.681479   -2.852991    0.940074
 C   -0.080838   -3.153344   -0.568226
 C   -1.469701   -3.105233   -0.543208
 C   -2.127914   -1.951331   -0.108550
 C   -3.613043   -1.896796   -0.069934
 C   -4.297434   -0.741194   -0.459234
 C   -4.360299   -3.003735    0.348037
 C   -5.750418   -2.967520    0.363079
 C   -6.421432   -1.817847   -0.035896
 C   -5.692287   -0.697793   -0.442990
 C   -6.412513    0.560300   -0.833561
 N   -6.734484    1.376840    0.407954
 C   -7.458669    2.659989    0.148954
 H    3.434790    2.892063   -1.707821
 H    2.911135    1.391566    2.930862
 H    1.426276    3.110235    1.998917
 H    1.818681   -0.073656    0.467426
 H   -1.860987    0.052564    0.664275
 H    2.698359   -1.435406   -2.055104
 H    2.240613   -3.144119   -1.989642
 H    4.308217   -3.837579   -1.051398
 H    4.792087   -2.530781   -2.143771
 H    4.656140   -1.028045   -0.275761
 H    6.650022   -1.689121    0.871529
 H    6.520726   -3.284514    0.071385
 H    6.745074   -1.800007   -0.905746
 H    4.698458   -3.206744    1.669816
 H    4.168050   -1.512373    1.816592
 H    2.102097   -2.678531    1.849337
 H    2.631347   -3.933007    0.732458
 H    0.415608   -4.060082   -0.902243
 H   -2.039111   -3.964740   -0.881560
 H   -3.733253    0.116986   -0.818574
 H   -3.848605   -3.902867    0.677024
 H   -6.310716   -3.840083    0.681292
 H   -7.509201   -1.804404   -0.050632
 H   -5.813725    1.209441   -1.476512
 H   -7.370666    0.366135   -1.321621
 H   -5.856326    1.562333    0.903449
 H   -7.283018    0.787310    1.042680
 H   -7.643770    3.161394    1.099028
 H   -8.402079    2.432435   -0.347453
 H   -6.837981    3.284761   -0.493343
