87 
4qlk_ligand_ani.xyz
 O  -10.406703    1.007223    0.198639
 C   -9.276212    0.413326   -0.350204
 C   -8.177945    1.431305   -0.663559
 O   -8.687977    2.284359   -1.662626
 C   -6.907069    0.736106   -1.116548
 O   -5.918213    1.730778   -1.302845
 O   -8.830831   -0.505934    0.608689
 C   -7.683535   -1.249883    0.218431
 C   -7.370714   -2.181784    1.383514
 O   -7.110181   -1.438863    2.553069
 C   -6.511907   -0.305984   -0.062186
 O   -5.430062   -1.099802   -0.519516
 C   -4.221327   -0.838950    0.122943
 C   -3.194458   -1.904503   -0.203639
 O   -3.626553   -3.120128    0.360976
 C   -1.825210   -1.521830    0.350323
 O   -0.918320   -2.482376   -0.142145
 O   -3.756425    0.407232   -0.350693
 C   -2.578524    0.871296    0.293957
 C   -2.363991    2.299599   -0.189383
 O   -3.411370    3.139580    0.242802
 C   -1.436690   -0.085747   -0.034828
 O   -0.315841    0.323140    0.727209
 C    0.894943    0.414213    0.047985
 C    1.840521    1.276414    0.867659
 O    1.339218    2.595374    0.854949
 C    3.251471    1.240075    0.305276
 O    4.076074    1.931254    1.218624
 O    1.404534   -0.901228   -0.105133
 C    2.673234   -0.965957   -0.742620
 C    3.005156   -2.452562   -0.907658
 O    4.204585   -2.678130   -1.637371
 C    3.697774   -0.210104    0.107033
 O    4.932293   -0.254508   -0.595307
 C    6.106633   -0.244008    0.169428
 C    7.084267   -1.247516   -0.451373
 O    6.681461   -2.582702   -0.227519
 C    8.453943   -1.104689    0.179427
 O    9.399227   -1.921653   -0.478265
 C    8.936076    0.329138    0.085636
 O   10.141633    0.494904    0.800694
 O    6.610754    1.073206    0.132966
 C    7.911520    1.276591    0.703634
 C    8.250269    2.732607    0.406315
 O    8.214779    2.973523   -0.982083
 H  -10.680934    1.705028   -0.415154
 H   -9.532338   -0.124642   -1.288462
 H   -7.966317    1.988932    0.264094
 H   -7.973448    2.894049   -1.891461
 H   -7.105495    0.212891   -2.068911
 H   -5.077736    1.256209   -1.425138
 H   -7.901610   -1.835520   -0.690703
 H   -6.471502   -2.768720    1.173676
 H   -8.214301   -2.874310    1.526121
 H   -7.891467   -0.886343    2.695430
 H   -6.253999    0.220874    0.869656
 H   -4.373042   -0.793372    1.216665
 H   -3.116194   -1.969157   -1.300046
 H   -2.927851   -3.760667    0.169002
 H   -1.872843   -1.562364    1.455314
 H   -0.016432   -2.154650    0.021280
 H   -2.733744    0.884940    1.384005
 H   -2.271865    2.302194   -1.289136
 H   -1.433585    2.700191    0.224793
 H   -4.245171    2.817185   -0.136455
 H   -1.223827   -0.050834   -1.114649
 H    0.748422    0.867673   -0.948787
 H    1.867299    0.866273    1.888721
 H    1.978305    3.123284    1.352837
 H    3.257259    1.739710   -0.680063
 H    4.977351    1.941288    0.852981
 H    2.606777   -0.485797   -1.732581
 H    3.111945   -2.915597    0.082711
 H    2.173858   -2.950323   -1.425235
 H    4.505810   -1.813331   -1.957368
 H    3.788514   -0.702403    1.087053
 H    5.895546   -0.521875    1.215961
 H    7.169977   -1.023333   -1.528648
 H    5.842530   -2.754285   -0.695865
 H    8.381161   -1.380273    1.246132
 H    9.035516   -2.818718   -0.466668
 H    9.058108    0.594162   -0.976898
 H   10.770924   -0.131192    0.416964
 H    7.872239    1.102904    1.791730
 H    7.548342    3.387576    0.946522
 H    9.262617    2.957740    0.750016
 H    7.345197    2.669663   -1.277735
