87 
4qll_ligand_xtb.xyz
 O  -10.586158    0.699956   -0.030138
 C   -9.355049    0.218496   -0.439551
 C   -8.352723    1.362728   -0.668350
 O   -8.879000    2.205633   -1.661896
 C   -6.997204    0.778441   -1.068192
 O   -6.078309    1.839154   -1.184732
 O   -8.892564   -0.629561    0.572196
 C   -7.678761   -1.275163    0.248450
 C   -7.312683   -2.149789    1.456405
 O   -7.193839   -1.376064    2.618606
 C   -6.558903   -0.252966   -0.019900
 O   -5.415303   -0.960155   -0.487363
 C   -4.234773   -0.705691    0.177711
 C   -3.228864   -1.803186   -0.179151
 O   -3.679642   -3.002279    0.382827
 C   -1.832923   -1.449010    0.357564
 O   -0.949891   -2.419105   -0.149708
 O   -3.763070    0.560957   -0.251874
 C   -2.543890    0.962236    0.341059
 C   -2.252899    2.387972   -0.148667
 O   -3.175310    3.312323    0.349749
 C   -1.425084   -0.019553   -0.039467
 O   -0.251343    0.381038    0.653425
 C    0.941292    0.345100   -0.030349
 C    1.895796    1.339477    0.636619
 O    1.402698    2.622414    0.375044
 C    3.327687    1.194303    0.097440
 O    4.130505    2.020588    0.896379
 O    1.453363   -0.980847    0.032704
 C    2.710539   -1.145357   -0.577918
 C    3.038333   -2.647016   -0.523644
 O    4.145341   -3.005031   -1.306368
 C    3.773681   -0.279134    0.118894
 O    4.984365   -0.481183   -0.591867
 C    6.174390   -0.380444    0.111365
 C    7.209251   -1.253336   -0.612886
 O    6.884193   -2.611835   -0.521975
 C    8.579704   -1.062265    0.043895
 O    9.587810   -1.725792   -0.674638
 C    8.949032    0.423939    0.115607
 O   10.104621    0.608308    0.887542
 O    6.572142    0.975100    0.132538
 C    7.817200    1.217907    0.776560
 C    8.068956    2.728217    0.669852
 O    8.062775    3.164171   -0.659403
 H  -10.746810    1.520114   -0.515354
 H   -9.454655   -0.354026   -1.387389
 H   -8.234096    1.915403    0.278010
 H   -8.166376    2.793012   -1.943143
 H   -7.098582    0.263899   -2.038286
 H   -5.188557    1.452139   -1.138134
 H   -7.798398   -1.901169   -0.648205
 H   -6.345057   -2.623940    1.279745
 H   -8.084299   -2.920406    1.578492
 H   -8.027265   -0.897763    2.722620
 H   -6.329448    0.268321    0.918267
 H   -4.378947   -0.692730    1.274394
 H   -3.180847   -1.879814   -1.276001
 H   -2.981497   -3.657095    0.250031
 H   -1.856890   -1.497673    1.458638
 H   -0.044287   -2.126436    0.043388
 H   -2.643534    0.969421    1.436339
 H   -2.253127    2.384429   -1.248022
 H   -1.268721    2.693115    0.212609
 H   -4.062143    3.055309    0.064749
 H   -1.261627    0.019260   -1.125249
 H    0.812540    0.632475   -1.092537
 H    1.900804    1.131709    1.716259
 H    2.027127    3.252763    0.758448
 H    3.347660    1.539365   -0.950675
 H    5.062178    1.870959    0.653495
 H    2.661222   -0.824109   -1.633649
 H    3.281895   -2.936456    0.500148
 H    2.140763   -3.196453   -0.836352
 H    3.987257   -2.747198   -2.222362
 H    3.885230   -0.603528    1.163290
 H    6.058180   -0.745095    1.151630
 H    7.253213   -0.923287   -1.662945
 H    5.958684   -2.746126   -0.794573
 H    8.523874   -1.464651    1.069774
 H    9.275408   -2.623276   -0.843534
 H    9.101343    0.798769   -0.908164
 H   10.780755    0.019691    0.528463
 H    7.757559    0.924999    1.834663
 H    7.305846    3.257034    1.258606
 H    9.058554    2.946221    1.072947
 H    7.245380    2.855044   -1.068904
