93 
4qls_ligand_ani.xyz
 C   -0.348339    3.386528    0.671855
 O   -1.155557    3.421442   -0.252594
 C    1.155169    3.586152    0.446394
 N    1.609175    2.754251   -0.706771
 O    3.917551    3.825544   -2.096078
 C    2.984877    2.191243   -0.557136
 C    1.510984    3.490637   -2.017357
 C    4.062628    3.237764   -0.817099
 C    2.663865    4.468523   -2.220210
 N   -0.733214    3.172793    1.957536
 C   -2.095765    2.743300    2.273423
 C   -2.434926    3.059636    3.719255
 C   -2.220091    1.230629    1.999443
 O   -2.130883    0.403791    2.892696
 N   -2.404735    0.892625    0.685251
 C   -2.009515   -0.432221    0.260398
 C   -2.748736   -0.850925   -1.022150
 C   -4.247420   -0.915103   -0.842915
 C   -5.081989    0.087199   -1.344923
 C   -6.454740    0.044406   -1.160364
 C   -7.030674   -1.018975   -0.460365
 O   -8.384120   -0.981940   -0.327449
 C   -8.996225   -2.038017    0.379820
 C   -6.216493   -2.029688    0.049024
 C   -4.837923   -1.964477   -0.144677
 C   -0.486527   -0.445118    0.036007
 O    0.116548    0.583611   -0.252259
 N    0.153910   -1.632569    0.146354
 C    1.600671   -1.751713    0.027262
 C    2.204767   -2.196384    1.368865
 C    3.724031   -2.413681    1.387965
 C    4.514264   -1.213808    0.848084
 C    6.024879   -1.444227    0.931310
 C    6.465264   -1.783011    2.357187
 C    5.690569   -2.987188    2.896809
 C    4.181700   -2.749741    2.813820
 C    1.957020   -2.700115   -1.122351
 O    1.343319   -3.942104   -0.792265
 C    1.502815   -2.217000   -2.513876
 C    1.962537   -3.190171   -3.605943
 C    1.983118   -0.795846   -2.822473
 O    3.376667   -0.612608   -2.608753
 H    1.347000    4.646410    0.251738
 H    1.723605    3.300418    1.336049
 H    0.946084    1.959532   -0.744149
 H    3.096111    1.368392   -1.274010
 H    3.087849    1.774881    0.453248
 H    0.546453    4.000200   -2.045098
 H    1.533689    2.743273   -2.816048
 H    5.053499    2.774281   -0.797631
 H    4.032876    4.013987   -0.034478
 H    2.592537    5.307568   -1.509230
 H    2.623513    4.881288   -3.232276
 H   -0.024166    2.997305    2.655595
 H   -2.748568    3.288217    1.584144
 H   -1.792413    2.488038    4.395229
 H   -2.306957    4.129285    3.909666
 H   -3.471821    2.787019    3.935968
 H   -2.209154    1.637309    0.019521
 H   -2.260528   -1.121509    1.073432
 H   -2.491243   -0.149104   -1.825277
 H   -2.368620   -1.833887   -1.330446
 H   -4.646411    0.919512   -1.895167
 H   -7.106908    0.820648   -1.550043
 H  -10.065520   -1.822191    0.378421
 H   -8.636488   -2.089496    1.416025
 H   -8.819236   -3.005158   -0.109180
 H   -6.637986   -2.866268    0.596187
 H   -4.212723   -2.758365    0.263385
 H   -0.355615   -2.493520    0.286932
 H    1.966004   -0.745847   -0.196557
 H    1.710046   -3.122916    1.687564
 H    1.945136   -1.424146    2.106899
 H    3.959764   -3.288410    0.756984
 H    4.233134   -0.994255   -0.189308
 H    4.246364   -0.319300    1.437156
 H    6.294509   -2.276475    0.264516
 H    6.564046   -0.563405    0.561413
 H    7.545127   -1.972682    2.392145
 H    6.279247   -0.915399    3.007245
 H    5.986882   -3.204077    3.930333
 H    5.949215   -3.877278    2.304527
 H    3.908842   -1.911393    3.473520
 H    3.632898   -3.626841    3.181302
 H    3.051707   -2.813576   -1.159066
 H    1.683707   -4.609258   -1.401354
 H    0.406614   -2.187836   -2.522944
 H    1.710658   -2.795336   -4.595724
 H    1.478707   -4.170202   -3.513798
 H    3.047751   -3.350381   -3.574963
 H    1.727898   -0.546017   -3.864564
 H    1.471608   -0.062963   -2.188788
 H    3.848360   -1.143323   -3.262512
