93 
4qls_ligand_xtb.xyz
 C   -0.396861    3.282272    0.518695
 O   -1.092489    3.122561   -0.467058
 C    1.117928    3.546932    0.382155
 N    1.687725    2.592434   -0.595725
 O    3.642453    3.837695   -2.287554
 C    3.142510    2.359989   -0.444152
 C    1.405093    2.946219   -2.010465
 C    3.936826    3.569809   -0.940441
 C    2.274997    4.117466   -2.468038
 N   -0.856544    3.274129    1.771920
 C   -2.208793    2.820037    2.094798
 C   -2.607777    3.294924    3.478147
 C   -2.113317    1.279638    2.018620
 O   -1.791249    0.600784    2.966692
 N   -2.331066    0.797292    0.778795
 C   -1.883524   -0.530503    0.428687
 C   -2.558555   -0.984124   -0.876329
 C   -4.054002   -1.003283   -0.709255
 C   -4.829432    0.089556   -1.081089
 C   -6.194106    0.080467   -0.897718
 C   -6.827632   -1.029353   -0.332558
 O   -8.171728   -0.939189   -0.201274
 C   -8.879569   -2.032867    0.336469
 C   -6.055590   -2.124650    0.044204
 C   -4.685061   -2.099933   -0.143047
 C   -0.362067   -0.504283    0.271719
 O    0.251166    0.568492    0.279887
 N    0.235721   -1.672349    0.085199
 C    1.667956   -1.826174   -0.088559
 C    2.275333   -2.343907    1.222973
 C    3.806827   -2.388773    1.279009
 C    4.442833   -1.017506    1.039546
 C    5.963573   -1.087711    1.163653
 C    6.372848   -1.618083    2.533059
 C    5.755803   -2.992466    2.766467
 C    4.236649   -2.919873    2.650144
 C    1.921189   -2.778550   -1.268986
 O    1.318094   -4.006745   -0.920887
 C    1.360923   -2.279795   -2.626657
 C    2.091603   -2.979691   -3.775915
 C    1.403242   -0.755325   -2.812548
 O    2.646104   -0.153064   -2.506080
 H    1.270058    4.574647    0.046283
 H    1.614433    3.405328    1.342251
 H    1.195570    1.681902   -0.386946
 H    3.392636    1.494718   -1.063690
 H    3.376326    2.138111    0.596895
 H    0.343741    3.178485   -2.105765
 H    1.650901    2.069416   -2.612052
 H    5.005023    3.352999   -0.897806
 H    3.732209    4.453316   -0.317286
 H    2.003761    5.044942   -1.942731
 H    2.134907    4.277653   -3.537746
 H   -0.225498    3.311919    2.558279
 H   -2.883658    3.201395    1.324131
 H   -2.002113    2.792432    4.229226
 H   -2.486435    4.371355    3.566432
 H   -3.648033    3.043337    3.661796
 H   -2.419649    1.454701    0.015177
 H   -2.148928   -1.199552    1.254490
 H   -2.279634   -0.291527   -1.674373
 H   -2.197808   -1.979546   -1.139999
 H   -4.362714    0.953432   -1.532277
 H   -6.802100    0.921878   -1.188525
 H   -9.926519   -1.735450    0.331191
 H   -8.569557   -2.245682    1.364115
 H   -8.755972   -2.930542   -0.276993
 H   -6.508653   -2.999686    0.481435
 H   -4.101998   -2.960386    0.153476
 H   -0.277334   -2.539080    0.152606
 H    2.076200   -0.841868   -0.319369
 H    1.886548   -3.347618    1.401438
 H    1.914303   -1.694890    2.024885
 H    4.176642   -3.082175    0.517265
 H    4.186272   -0.651466    0.042917
 H    4.050667   -0.312021    1.776538
 H    6.357498   -1.750097    0.389809
 H    6.392584   -0.096139    1.002346
 H    7.459975   -1.679856    2.597227
 H    6.030076   -0.929318    3.308408
 H    6.030094   -3.361163    3.755730
 H    6.146089   -3.696112    2.028121
 H    3.847713   -2.258847    3.427984
 H    3.806670   -3.910162    2.809525
 H    3.009800   -2.897862   -1.361284
 H    1.579272   -4.685816   -1.550459
 H    0.303515   -2.563054   -2.663962
 H    1.665873   -2.685226   -4.732259
 H    2.001481   -4.060252   -3.694082
 H    3.152254   -2.731699   -3.776969
 H    1.122209   -0.526746   -3.849271
 H    0.675658   -0.275123   -2.156003
 H    3.316876   -0.530578   -3.086769
