87 
4qlv_ligand_xtb.xyz
 C    0.243288   -2.820264    0.826492
 O   -0.799229   -2.943645    0.209563
 C    0.276671   -2.174877    2.223386
 N   -0.560713   -0.956564    2.256032
 O   -2.494279    0.797141    3.405074
 C   -0.255147   -0.123873    3.441143
 C   -2.014228   -1.249721    2.219135
 C   -1.131583    1.133528    3.446886
 C   -2.790065    0.066522    2.242046
 N    1.427337   -3.249237    0.383421
 C    1.600290   -3.754224   -0.977329
 C    2.786938   -4.695504   -1.051449
 C    1.802830   -2.488718   -1.837805
 O    2.890271   -2.097187   -2.194227
 N    0.646921   -1.834458   -2.068184
 C    0.646787   -0.446016   -2.464489
 C   -0.601022   -0.124323   -3.311787
 C   -1.859438   -0.331555   -2.516900
 C   -2.473174    0.736679   -1.872650
 C   -3.570867    0.540995   -1.063070
 C   -4.086432   -0.742743   -0.869886
 O   -5.127907   -0.838458   -0.000945
 C   -5.769652   -2.085551    0.150538
 C   -3.511445   -1.809132   -1.551429
 C   -2.413489   -1.595245   -2.366786
 C    0.709444    0.410747   -1.194122
 O    0.285153   -0.009831   -0.115094
 N    1.254908    1.611774   -1.337138
 C    1.538588    2.524176   -0.250057
 C    1.186669    3.952880   -0.699407
 O    1.932037    4.181246   -1.876569
 C   -0.324122    4.168156   -0.952965
 C   -0.630350    5.663774   -1.060361
 C   -1.198392    3.510246    0.128742
 O   -0.745194    3.736312    1.444701
 C    3.026190    2.425542    0.138659
 C    3.336683    1.078887    0.724483
 C    3.864479    0.059143   -0.055496
 C    4.156924   -1.175044    0.498838
 C    3.913953   -1.410932    1.841992
 C    3.379295   -0.400571    2.628683
 C    3.090122    0.832934    2.071212
 H    1.301801   -1.897677    2.477497
 H   -0.101306   -2.890850    2.959347
 H   -0.325293   -0.420879    1.385281
 H   -0.462311   -0.717871    4.335438
 H    0.797890    0.157122    3.421221
 H   -2.233451   -1.813493    1.311712
 H   -2.267320   -1.843670    3.101121
 H   -0.868867    1.785572    2.602466
 H   -0.978141    1.684549    4.375900
 H   -3.863031   -0.126893    2.252345
 H   -2.543603    0.651141    1.344117
 H    2.283300   -3.009517    0.866180
 H    0.671339   -4.257192   -1.260388
 H    2.843819   -5.129268   -2.045313
 H    3.709437   -4.149768   -0.871273
 H    2.687584   -5.495934   -0.323321
 H   -0.206427   -2.162328   -1.629632
 H    1.554145   -0.278809   -3.054333
 H   -0.535921    0.908710   -3.656146
 H   -0.589084   -0.781507   -4.182411
 H   -2.095506    1.737447   -2.022816
 H   -4.059069    1.368417   -0.572793
 H   -5.092060   -2.837174    0.568127
 H   -6.589005   -1.911539    0.845440
 H   -6.173531   -2.445648   -0.799271
 H   -3.905300   -2.807667   -1.458336
 H   -1.998196   -2.432785   -2.907742
 H    1.627609    1.910327   -2.227857
 H    0.931220    2.241298    0.610939
 H    1.510141    4.637798    0.098167
 H    1.854046    5.105536   -2.132480
 H   -0.572251    3.691797   -1.907357
 H   -0.087943    6.117442   -1.886732
 H   -0.353974    6.186099   -0.145715
 H   -1.691449    5.818867   -1.240229
 H   -1.196083    2.424922    0.002013
 H   -2.232404    3.858064    0.012185
 H   -0.857458    4.669278    1.656653
 H    3.240167    3.203715    0.872266
 H    3.631588    2.609463   -0.749038
 H    4.070068    0.224820   -1.101506
 H    4.589006   -1.940634   -0.126119
 H    4.172400   -2.361754    2.288428
 H    3.221918   -0.567620    3.686194
 H    2.697044    1.627353    2.691359
