51 
4qmm_ligand_dft.xyz
 O  124.769793    0.089077   77.327098
 C  125.206953    1.148616   76.899224
 N  124.985988    2.347266   77.545840
 C  125.206077    3.631868   76.959835
 C  126.622017    4.151834   76.883271
 C  125.654956    4.741148   77.868002
 N  125.969420    1.246874   75.762001
 C  126.347226    0.150636   75.003911
 C  126.060936   -1.192531   75.136830
 N  126.701445   -1.803855   74.102788
 N  127.377648   -0.973616   73.312966
 C  127.168917    0.228074   73.854320
 C  127.746779    1.430487   73.290183
 N  128.539831    1.407867   72.177992
 C  128.915561    2.710558   71.923049
 C  129.716032    3.295405   70.943105
 C  129.878167    4.669367   71.003910
 C  129.268622    5.451336   72.008126
 C  129.471536    6.950765   71.995831
 N  130.870401    7.320634   71.847205
 C  131.670144    6.924695   73.000284
 C  133.127518    7.293363   72.763914
 O  133.276588    8.675808   72.515733
 C  132.509316    9.065573   71.397807
 C  131.033519    8.745872   71.598754
 C  128.483256    4.851647   72.981285
 C  128.299729    3.466744   72.937944
 N  127.575520    2.639578   73.779243
 H  124.280767    2.268948   78.264344
 H  124.543190    3.905402   76.138266
 H  127.401785    3.503635   77.269295
 H  126.898042    4.723009   76.003725
 H  125.795021    4.491983   78.915142
 H  125.259699    5.734523   77.682510
 H  126.338104    2.138687   75.441151
 H  125.473338   -1.719937   75.868274
 H  126.708622   -2.788523   73.892915
 H  128.781812    0.571872   71.669321
 H  130.193665    2.705854   70.166806
 H  130.506505    5.173300   70.275976
 H  128.928308    7.383872   71.145503
 H  129.027446    7.390343   72.910671
 H  131.313877    7.421905   73.923949
 H  131.581162    5.843259   73.144475
 H  133.514589    6.711573   71.911536
 H  133.730280    7.067857   73.647362
 H  132.869718    8.551375   70.491810
 H  132.657625   10.141699   71.275295
 H  130.643532    9.353702   72.438702
 H  130.472741    9.019254   70.697004
 H  128.018277    5.441320   73.766518
