39 
4qmu_ligand_xtb.xyz
 S   -5.168818    0.629011   -0.042056
 C    3.184360   -2.472877    0.062816
 F    4.048165    1.937391    1.933011
 N    4.432020   -2.933748    0.058262
 O   -4.889108    1.966345   -0.481919
 C    1.094383   -2.181443    0.108584
 F    2.145383    0.694653   -2.186308
 N    2.067657   -3.149516    0.096431
 O   -6.211049   -0.119051   -0.682987
 C   -1.338279   -1.797443    0.087810
 N   -0.200374   -2.574710    0.138778
 O    4.994370   -0.246040   -0.043806
 C   -2.581639   -2.439791    0.068273
 N   -5.533782    0.686597    1.606691
 C   -3.744302   -1.698630    0.015845
 N    1.544650   -0.951417    0.091187
 C   -3.668941   -0.319390   -0.016755
 N    2.907091   -1.107339    0.050240
 C   -2.450496    0.330672    0.001146
 C   -1.280689   -0.401585    0.053026
 C    3.795282   -0.070647   -0.034853
 C    3.118032    1.258162   -0.118521
 C    3.275937    2.219055    0.873573
 C    2.635399    3.444012    0.816931
 C    1.815279    3.725800   -0.261380
 C    1.640261    2.797989   -1.274279
 C    2.290943    1.581732   -1.190217
 H    4.588481   -3.922742    0.000552
 H    5.183570   -2.261940   -0.012339
 H   -0.316279   -3.578495    0.145218
 H   -2.624904   -3.518905    0.090178
 H   -5.444903    1.620547    1.972658
 H   -6.447099    0.306379    1.795294
 H   -4.713819   -2.168642   -0.014605
 H   -2.437737    1.408008   -0.038265
 H   -0.316905    0.079163    0.063477
 H    2.784464    4.153816    1.614338
 H    1.308729    4.676363   -0.314246
 H    1.007848    3.001076   -2.123104
