59 
4qmv_ligand_ani.xyz
 C    0.266572    0.866342   -2.580230
 C    1.377307    1.576047   -1.836677
 O    1.148354    2.393596   -0.949452
 N    2.642555    1.252855   -2.212585
 C    3.820096    1.841966   -1.601068
 C    4.660429    0.725261   -0.987433
 O    5.427494    0.075986   -1.675486
 N    4.498861    0.484440    0.365902
 C    4.784660   -0.903353    0.830287
 C    4.753501   -0.681797    2.357296
 C    3.625982    0.381723    2.517312
 C    3.179697    0.610555    1.056423
 C    2.484413   -0.646903    0.582570
 C    3.500035   -1.604609    0.440191
 C    3.179276   -2.898927    0.065477
 C    1.840107   -3.214848   -0.136352
 C    0.821213   -2.258534    0.023751
 C    1.149905   -0.945056    0.381571
 N   -0.494411   -2.698509   -0.179114
 C   -1.695042   -2.044247   -0.134360
 N   -2.763336   -2.858384   -0.229912
 C   -3.946832   -2.260677   -0.206438
 C   -4.109863   -0.890875   -0.103687
 C   -2.924667   -0.125509   -0.018994
 N   -1.725198   -0.716045   -0.027029
 N   -2.976881    1.224012    0.054131
 C   -1.824443    2.008092    0.408704
 C   -2.041771    3.518526    0.533868
 C   -1.091596    3.515515    1.753991
 C   -1.319613    1.991669    1.874656
 C   -5.462143   -0.265280   -0.069017
 F   -6.441272   -1.178877   -0.142928
 F   -5.664234    0.447567    1.064726
 F   -5.648351    0.607006   -1.084841
 H   -0.409024    1.619957   -2.996735
 H   -0.307168    0.259563   -1.870461
 H    0.627713    0.229077   -3.393065
 H    2.790469    0.468652   -2.830499
 H    3.482296    2.569400   -0.861419
 H    4.426765    2.349385   -2.358691
 H    5.704385   -1.308065    0.408132
 H    4.542376   -1.608122    2.897046
 H    5.716547   -0.293105    2.698284
 H    2.799211    0.032486    3.140088
 H    4.013125    1.312360    2.939409
 H    2.655664    1.543774    0.855099
 H    3.949603   -3.657597   -0.056161
 H    1.571917   -4.228077   -0.427783
 H    0.372740   -0.199621    0.497115
 H   -0.613511   -3.693630   -0.298377
 H   -4.818824   -2.907246   -0.274786
 H   -3.876408    1.670941    0.125818
 H   -0.995266    1.772463   -0.266590
 H   -3.076307    3.725623    0.836248
 H   -1.788029    4.142557   -0.327240
 H   -1.372041    4.134284    2.609180
 H   -0.063128    3.747445    1.461219
 H   -2.131873    1.742765    2.563561
 H   -0.457770    1.347751    2.086711
