65 
4qmy_ligand_xtb.xyz
 O   -0.928969   -1.746043   -1.745357
 C    0.044350   -2.466859   -1.052459
 C   -0.532562   -3.425200    0.004371
 C   -1.591552   -2.752887    0.859385
 C   -2.650636   -2.032091   -0.009626
 C   -2.011603   -1.110407   -1.100806
 C   -3.014548   -0.887420   -2.242023
 N   -1.591289    0.166072   -0.511688
 C   -0.268978    0.544387   -0.374507
 C    0.892767   -0.219259   -0.361488
 C    2.157858    0.387498   -0.175344
 C    2.222650    1.772734   -0.021370
 C    1.070950    2.538145   -0.011761
 C   -0.179588    1.942450   -0.165926
 C   -1.524132    2.434199   -0.167910
 C   -2.370143    1.322264   -0.384675
 C   -3.747766    1.488661   -0.375004
 C   -4.256058    2.760739   -0.194753
 C   -3.424731    3.862457   -0.010448
 C   -2.056271    3.707644    0.015849
 C    1.398361    3.992542    0.161862
 N    2.893056    4.037923    0.066436
 C    3.440351    2.631830    0.164389
 O    4.009546    2.590148    1.436464
 C    3.127966   -0.669483   -0.223423
 C    2.410190   -1.865801   -0.444331
 C    3.053646   -3.086852   -0.566938
 C    4.432645   -3.097596   -0.470930
 C    5.153947   -1.926186   -0.248165
 C    4.516538   -0.709545   -0.122266
 N    1.048537   -1.587222   -0.477782
 O   -3.440606   -1.242131    0.851160
 C   -4.686753   -1.807504    1.243672
 N   -1.045333   -1.717328    1.787652
 C   -0.518022   -2.224415    3.064873
 H    0.538967   -3.060223   -1.835054
 H    0.280030   -3.820015    0.614991
 H   -0.999097   -4.265119   -0.511943
 H   -2.099152   -3.497810    1.482270
 H   -3.249214   -2.787748   -0.530439
 H   -4.026386   -0.762629   -1.877929
 H   -2.976206   -1.754157   -2.896372
 H   -2.729977   -0.013492   -2.819949
 H   -4.425658    0.662024   -0.483036
 H   -5.325201    2.901110   -0.192766
 H   -3.859576    4.839522    0.124331
 H   -1.410814    4.554650    0.183590
 H    1.073751    4.357430    1.139275
 H    0.947421    4.611924   -0.614717
 H    3.310957    4.554415    0.852176
 H    3.187415    4.488201   -0.803345
 H    4.197939    2.475368   -0.619774
 H    4.356224    1.714383    1.642216
 H    2.508621   -3.999905   -0.747337
 H    4.961890   -4.031087   -0.573387
 H    6.228619   -1.974957   -0.179398
 H    5.091650    0.190336    0.035033
 H   -4.548722   -2.731903    1.809821
 H   -5.163455   -1.060784    1.874184
 H   -5.318800   -2.007423    0.376793
 H   -1.866852   -1.090902    1.943805
 H   -0.318865   -1.171122    1.299134
 H   -0.177291   -1.396091    3.682316
 H    0.318851   -2.897501    2.888861
 H   -1.294894   -2.762683    3.604699
