68 
4qo4_ligand_dft.xyz
Cl    5.637852    0.162666   -3.588489
 C    4.146534    0.138021   -2.672488
 C    4.167569    0.443558   -1.317929
 C    2.978498    0.420922   -0.593953
 C    2.958216   -0.195801   -3.313737
 C    1.781467   -0.219335   -2.576101
 C    1.775640    0.095825   -1.215462
 C    0.444013    0.086861   -0.477518
 N    0.584876   -0.340309    0.920513
 C    0.936033   -1.772709    1.063660
 C    0.251067    0.380758    2.030287
 O    0.201482   -0.124633    3.146865
 C   -0.091221    1.872151    1.888073
 C    0.722769    2.659853    2.933008
 C    2.223093    2.580715    2.845217
 O    2.877497    1.738107    2.274588
 O    2.803347    3.572355    3.544305
 C    0.173165    2.399862    0.472522
 C   -0.286844    1.435417   -0.631801
 C   -1.798963    1.312028   -0.763248
 C   -2.512442    0.169605   -0.397832
 C   -3.896875    0.121376   -0.534351
 C   -4.600573    1.208320   -1.040246
 C   -3.885182    2.343364   -1.405594
Cl   -4.741755    3.725729   -2.052314
 C   -2.504272    2.403732   -1.275363
 C    2.034100   -2.057102    2.091361
 C    2.601896   -3.464702    1.914659
 C   -1.565547    2.047508    2.317494
 C   -2.103359   -3.497446    0.004389
 C   -2.743649   -3.888160    1.181447
 C   -2.140794   -3.594724    2.398101
 C   -0.925445   -2.920329    2.413925
 C   -0.346718   -2.580388    1.192458
 N   -0.921807   -2.872118    0.019193
 C   -1.892182   -3.705444   -2.585729
 C   -2.676666   -2.696240   -2.418626
 C   -2.726646   -3.747554   -1.334021
 H    5.103065    0.695055   -0.830132
 H    2.988378    0.658718    0.464009
 H    2.958411   -0.442450   -4.369886
 H    0.851088   -0.494998   -3.067683
 H   -0.164135   -0.682600   -0.967622
 H    1.347986   -2.047205    0.088189
 H    0.430711    3.715264    2.912204
 H    0.466512    2.280009    3.928810
 H    3.761211    3.424613    3.487136
 H   -0.309735    3.376411    0.347773
 H    1.249820    2.555766    0.336303
 H    0.063332    1.858700   -1.580105
 H   -1.998897   -0.690892    0.014161
 H   -4.429120   -0.778244   -0.239708
 H   -5.678663    1.180206   -1.152173
 H   -1.976964    3.304457   -1.576750
 H    1.663794   -1.912945    3.106161
 H    2.823023   -1.311615    1.943649
 H    3.387164   -3.658715    2.651744
 H    1.825755   -4.227303    2.045682
 H    3.036879   -3.598116    0.917316
 H   -1.853533    3.101912    2.238731
 H   -1.686564    1.723624    3.354347
 H   -2.252181    1.465770    1.704646
 H   -3.697354   -4.406025    1.138229
 H   -2.620903   -3.877597    3.330469
 H   -0.448255   -2.636300    3.343184
 H   -1.114768   -4.213463   -3.132778
 H   -3.048549   -1.727748   -2.712873
 H   -3.591371   -4.416301   -1.289015
