68 
4qo4_ligand_xtb.xyz
Cl    5.173076    3.531715   -2.104392
 C    3.800650    2.641389   -1.539936
 C    3.893715    1.899859   -0.374648
 C    2.793050    1.189417    0.072248
 C    2.619618    2.675400   -2.264232
 C    1.528965    1.957818   -1.810498
 C    1.601411    1.211414   -0.638898
 C    0.363000    0.471173   -0.172609
 N    0.694578   -0.805727    0.438500
 C    1.256860   -1.756743   -0.536610
 C    0.290729   -1.255085    1.642434
 O    0.362359   -2.431179    1.961148
 C   -0.218252   -0.241683    2.676166
 C    0.613841   -0.467165    3.962848
 C    2.068558   -0.765367    3.721399
 O    2.759723   -0.308252    2.848041
 O    2.549182   -1.608078    4.635739
 C   -0.072985    1.198830    2.191651
 C   -0.482588    1.389591    0.725576
 C   -1.969200    1.258070    0.490018
 C   -2.562029    0.113987   -0.035183
 C   -3.929132    0.063199   -0.250174
 C   -4.735427    1.144194    0.059644
 C   -4.146687    2.279801    0.591194
Cl   -5.131212    3.645973    0.991229
 C   -2.780269    2.344398    0.800693
 C    2.411767   -2.581666    0.027407
 C    3.149276   -3.306687   -1.090934
 C   -1.663998   -0.597830    3.046563
 C   -1.650403   -2.389982   -2.608416
 C   -2.107153   -3.659383   -2.256834
 C   -1.416832   -4.364392   -1.287863
 C   -0.295197   -3.799079   -0.699650
 C    0.102032   -2.538713   -1.124428
 N   -0.565216   -1.861167   -2.052640
 C   -1.578952   -0.517727   -4.380732
 C   -2.348920   -0.053360   -3.450879
 C   -2.352301   -1.556660   -3.605171
 H    4.818071    1.877089    0.180559
 H    2.868052    0.610221    0.977218
 H    2.559109    3.251920   -3.173910
 H    0.608835    1.973087   -2.377195
 H   -0.219460    0.240217   -1.077726
 H    1.661084   -1.136995   -1.344877
 H    0.551212    0.421036    4.596642
 H    0.211927   -1.312662    4.520941
 H    3.484378   -1.805163    4.466472
 H   -0.668811    1.858056    2.827443
 H    0.974953    1.492305    2.277978
 H   -0.221203    2.421242    0.458749
 H   -1.965952   -0.752288   -0.271434
 H   -4.368994   -0.831698   -0.663756
 H   -5.800306    1.109530   -0.105929
 H   -2.345552    3.245891    1.205171
 H    2.049025   -3.293485    0.765648
 H    3.091812   -1.895585    0.536166
 H    3.965187   -3.898321   -0.683416
 H    2.475247   -3.971879   -1.626302
 H    3.562615   -2.594324   -1.802229
 H   -1.978251   -0.018772    3.912894
 H   -1.720556   -1.656463    3.289991
 H   -2.351247   -0.399337    2.232545
 H   -2.984878   -4.072537   -2.730722
 H   -1.751482   -5.346453   -0.985284
 H    0.240129   -4.314832    0.078067
 H   -0.865617   -0.394481   -5.156108
 H   -2.756703    0.739239   -2.874832
 H   -3.208822   -2.039054   -4.070307
