71 
4qoc_ligand_ani.xyz
 C    2.389528   -0.379131    2.617296
 C    3.152299    0.079261    3.685394
Cl    2.466686    0.072519    5.288858
 C    4.446371    0.551036    3.503971
 C    4.980650    0.550171    2.220349
 C    4.228468    0.088272    1.144210
 C    2.925554   -0.380596    1.328023
 C    2.112804   -0.878344    0.139595
 C    1.750148   -2.351576    0.253303
 C    1.045762   -2.864962   -1.002165
 C    1.913957   -2.792754   -2.294424
 C    3.238501   -3.499283   -2.155633
 O    3.214523   -4.756019   -2.647637
 O    4.228334   -3.029114   -1.644712
 C    0.567292   -4.302165   -0.771070
 C   -0.174868   -1.994060   -1.305666
 O   -1.107449   -2.480358   -1.936668
 N   -0.175811   -0.674936   -0.911458
 C   -1.433126    0.074620   -1.084249
 C   -2.552523   -0.538962   -0.224949
 C    0.828016   -0.045412   -0.032818
 C    1.182257    1.351906   -0.515383
 C    1.338875    2.395084    0.395576
 C    1.683888    3.674444   -0.028632
 C    1.882961    3.902919   -1.384286
Cl    2.316857    5.500530   -1.926396
 C    1.745820    2.877588   -2.312648
 C    1.403147    1.605568   -1.867496
 S   -3.904764    0.606174    0.010434
 O   -4.591441    0.773453   -1.259300
 O   -3.399066    1.753059    0.752980
 N   -4.907389   -0.258506    0.987059
 C   -6.254872   -0.614380    0.524352
 C   -6.894404   -1.219254    1.776340
 C   -6.261310   -0.414733    2.921993
 C   -4.825482   -0.141565    2.443704
 C   -1.290382    1.227122   -3.456739
 C   -1.875345    0.199196   -2.544713
 C   -2.485989    1.461019   -3.042317
 H    1.379906   -0.735295    2.812380
 H    5.018720    0.908534    4.354253
 H    5.991883    0.913329    2.056395
 H    4.658298    0.092805    0.143199
 H    2.742908   -0.745146   -0.747270
 H    2.650028   -2.944788    0.438886
 H    1.085262   -2.504346    1.113667
 H    2.112318   -1.746395   -2.544642
 H    1.340875   -3.230678   -3.114660
 H    4.099926   -5.125274   -2.490656
 H    1.410700   -4.966295   -0.559818
 H    0.038356   -4.668005   -1.653530
 H   -0.125394   -4.337962    0.075351
 H   -1.240755    1.085685   -0.711634
 H   -2.172012   -0.784288    0.773553
 H   -2.958193   -1.441062   -0.689189
 H    0.379981    0.070498    0.965419
 H    1.207113    2.201883    1.459393
 H    1.798709    4.488595    0.680792
 H    1.908414    3.080705   -3.367128
 H    1.297974    0.794063   -2.584136
 H   -6.187617   -1.313485   -0.314080
 H   -6.789039    0.281625    0.179813
 H   -6.627640   -2.279772    1.850559
 H   -7.985525   -1.147681    1.757320
 H   -6.792902    0.533905    3.060589
 H   -6.280822   -0.946939    3.876972
 H   -4.460277    0.852402    2.722943
 H   -4.118305   -0.885832    2.831871
 H   -0.420154    1.490979   -4.030500
 H   -2.208422   -0.764410   -2.953795
 H   -3.383102    2.051794   -2.953132
