16 
4qp2_ligand_ani.xyz
 C   -0.498084   -0.561855    0.004072
 C    0.821593   -1.005692    0.000102
 C    1.811880   -0.030294   -0.002770
 C    1.520731    1.337434   -0.002527
 C    0.200040    1.781953    0.001131
 C   -0.771518    0.805220    0.004015
Cl    3.480621   -0.531799   -0.004993
 N   -1.702866   -1.268420    0.009789
 C   -2.594171   -0.333227    0.011842
 O   -2.144058    0.950673    0.009630
 N   -3.949867   -0.479027    0.054717
 H    1.070788   -2.061315    0.000381
 H    2.336783    2.053053   -0.004822
 H   -0.041427    2.839063    0.002650
 H   -4.270446   -1.402294   -0.196777
 H   -4.487487    0.277576   -0.340318
