16 
4qp2_ligand_dft.xyz
 C   -0.501147   -0.567707   -0.000005
 C    0.817277   -1.009425   -0.000094
 C    1.804600   -0.027930    0.000123
 C    1.520129    1.340192    0.000080
 C    0.196533    1.783202   -0.000215
 C   -0.770807    0.802508   -0.000007
Cl    3.483994   -0.529499    0.000055
 N   -1.700711   -1.275510   -0.000699
 C   -2.593427   -0.334952    0.000948
 O   -2.140044    0.948633   -0.000078
 N   -3.932982   -0.475708    0.000789
 H    1.062296   -2.064496   -0.000452
 H    2.334145    2.055621    0.000029
 H   -0.049132    2.838760   -0.000470
 H   -4.322309   -1.402373   -0.001439
 H   -4.535635    0.328109   -0.003596
