16 
4qp2_ligand_xtb.xyz
 C   -0.493874   -0.559221   -0.001142
 C    0.816868   -1.009133   -0.001267
 C    1.803016   -0.038535   -0.000546
 C    1.523092    1.325878   -0.000019
 C    0.214419    1.780925    0.000902
 C   -0.774745    0.822924    0.000356
Cl    3.459639   -0.535462    0.000407
 N   -1.688586   -1.244024   -0.005434
 C   -2.592900   -0.318813   -0.002095
 O   -2.135579    0.963678   -0.003544
 N   -3.926220   -0.508415    0.057745
 H    1.048956   -2.060261   -0.001565
 H    2.337789    2.031831   -0.000735
 H   -0.016429    2.833429    0.002655
 H   -4.253640   -1.437168   -0.140467
 H   -4.517510    0.268517   -0.181748
