19 
4qp7_ligand_dft.xyz
 N    3.464101    0.696484    0.000222
 C    2.178433    0.703914    0.000026
 C    1.606019   -0.682862    0.000040
 C   -0.464552    0.191877   -0.000106
 C    2.774406   -1.545896   -0.000191
 C    3.819925   -0.691611    0.000155
 N    0.348454   -0.948532   -0.000133
 C    0.111454    1.551861   -0.000115
 N    1.370068    1.824034   -0.000196
 C   -1.807201    0.005846    0.000161
 C   -2.536102   -1.265955    0.000276
 N   -3.805966   -1.070637   -0.000128
 N   -4.048622    0.354674   -0.000259
 C   -2.917142    0.964252    0.000298
 H    2.780804   -2.625424   -0.000605
 H    4.873993   -0.938752    0.000015
 H   -0.580717    2.391772   -0.000313
 H   -2.096366   -2.254317    0.000549
 H   -2.865394    2.046008    0.000541
