19 
4qp7_ligand_ani.xyz
 N    3.574782    0.662914   -0.019992
 C    2.193163    0.662290   -0.022579
 C    1.652839   -0.689607    0.026924
 C   -0.440681    0.166886   -0.006153
 C    2.740516   -1.524977    0.060978
 C    3.886243   -0.598037    0.028041
 N    0.322733   -0.919982    0.029850
 C    0.120845    1.481590   -0.058570
 N    1.423798    1.731648   -0.067016
 C   -1.876617   -0.002299    0.003199
 C   -2.602611   -1.217268   -0.104353
 N   -3.886978   -1.003168   -0.065711
 N   -4.091267    0.378516    0.076649
 C   -2.925033    0.957264    0.114990
 H    2.780072   -2.609300    0.102928
 H    4.932419   -0.907833    0.040825
 H   -0.545129    2.337868   -0.100167
 H   -2.199094   -2.219446   -0.208182
 H   -2.861721    2.034174    0.233276
