28 
4qp8_ligand_ani.xyz
 C   -2.162306   -1.478481   -0.345167
 C   -4.243286   -2.346010   -0.027520
 C   -1.662330    0.949676   -0.017158
 C   -2.010720    2.375052   -0.041441
 C    2.270977    1.838152   -0.025356
 C    3.015336   -0.533871    0.036147
 C    2.887176   -1.946587    0.086767
 C   -4.766412   -1.104478    0.321675
 C   -3.920812   -0.010161    0.327340
 C   -2.569596   -0.172670   -0.008709
 N   -2.966116   -2.537325   -0.357548
 N   -1.004114    3.191336   -0.068496
 C    0.114347    2.369419   -0.052868
 C   -0.243913    0.978715   -0.024985
 N    0.695419    0.018108   -0.003402
 C    1.955402    0.448856    0.002401
 N    1.363679    2.799817   -0.054015
 C    4.431853   -0.368760    0.031455
 N    5.035302   -1.522064    0.072046
 N    4.054761   -2.525073    0.107623
 H   -1.122188   -1.645872   -0.615646
 H   -4.878661   -3.229611   -0.043421
 H   -3.027755    2.778167   -0.060379
 H    3.314376    2.143221   -0.021803
 H    1.974348   -2.532289    0.110868
 H   -5.815632   -1.000228    0.582271
 H   -4.289131    0.975482    0.599546
 H    5.017846    0.544409   -0.000388
