37 
4qr3_ligand_xtb.xyz
 C    2.659916    1.265116    1.100863
 C    3.416495    2.575524    1.335153
 C    4.116924    2.831223    0.004247
 C    4.611440    1.441080   -0.385639
 C    3.485081    0.484002    0.050254
 N    2.706898    0.056137   -1.087545
 S    1.960603   -1.417991   -1.058991
 O    2.920376   -2.381558   -0.618453
 O    1.320205   -1.564361   -2.331802
 C    0.679412   -1.276529    0.192808
 C   -0.542560   -0.767976   -0.189043
 C    0.938996   -1.652648    1.494528
 C   -0.061466   -1.493904    2.442102
 C   -1.288221   -0.971113    2.079638
 C   -1.559870   -0.607710    0.755412
 C   -2.866023   -0.084012    0.383662
 C   -3.994479   -0.083229    1.128945
 S   -5.339834    0.635605    0.308198
 C   -4.322496    0.962360   -1.134160
 O   -4.691657    1.498795   -2.139990
 N   -3.078297    0.497288   -0.856744
 H    1.667375    1.473523    0.694468
 H    2.526481    0.700111    2.021805
 H    4.161934    2.440504    2.119666
 H    2.753150    3.387696    1.628390
 H    4.926835    3.553276    0.088597
 H    3.401036    3.200217   -0.731706
 H    5.523394    1.206672    0.162535
 H    4.812617    1.339601   -1.449634
 H    3.892016   -0.443750    0.456268
 H    2.175507    0.772153   -1.554328
 H   -0.675323   -0.546116   -1.236662
 H    1.900751   -2.073677    1.737669
 H    0.116151   -1.779190    3.467637
 H   -2.050607   -0.842690    2.830776
 H   -4.138455   -0.477365    2.112628
 H   -2.355657    0.577133   -1.556051
