37 
4qr4_ligand_ani.xyz
 C    4.456356   -1.928566   -0.075106
 C    4.860580   -2.090137   -1.545546
 C    3.555492   -1.797719   -2.292304
 C    2.936281   -0.625011   -1.509459
 C    3.416941   -0.784743   -0.041776
 N    2.361137   -1.107713    0.911068
 S    1.530763    0.055108    1.741655
 O    2.504884    1.031412    2.185177
 O    0.696911   -0.669453    2.683727
 C    0.422456    0.817774    0.563969
 C   -0.871391    0.310708    0.560506
 C    0.746345    1.865179   -0.305354
Cl    2.327889    2.567821   -0.400051
 C   -0.228286    2.391984   -1.150866
 C   -1.515742    1.879236   -1.143820
 C   -1.847374    0.826191   -0.292497
 C   -3.203758    0.260670   -0.282073
 C   -4.374379    0.886374   -0.496821
 S   -5.740728   -0.182982   -0.362043
 C   -4.660093   -1.568972   -0.017901
 O   -5.002947   -2.711212    0.152838
 N   -3.372543   -1.088872    0.014471
 H    5.301728   -1.736912    0.593528
 H    3.959294   -2.841772    0.276120
 H    5.269363   -3.082579   -1.763678
 H    5.626222   -1.350007   -1.814230
 H    2.894846   -2.674094   -2.244686
 H    3.705985   -1.561923   -3.351078
 H    1.843357   -0.603320   -1.584473
 H    3.310311    0.325663   -1.901433
 H    3.869505    0.143915    0.313391
 H    1.810594   -1.934286    0.709358
 H   -1.125104   -0.464487    1.274987
 H    0.036657    3.209582   -1.812631
 H   -2.260136    2.288557   -1.820833
 H   -4.516878    1.938291   -0.700757
 H   -2.611937   -1.751287    0.075079
