53 
4qsm_ligand_dft.xyz
 O   -4.540388   -2.295228   -1.381184
 S   -3.854847   -3.053131   -0.334814
 O   -3.905682   -4.504441   -0.319867
 N   -4.447896   -2.417158    1.097294
 C   -2.155371   -2.568047   -0.274153
 C   -1.784797   -1.230792   -0.354676
 N   -2.712429   -0.234603   -0.604275
 C   -2.879192    0.926538    0.176501
 C   -3.625780    1.977532   -0.359395
 C   -2.361750    1.044480    1.468835
 C   -2.585381    2.203039    2.203724
 C   -3.341776    3.243468    1.679086
 C   -3.859210    3.131594    0.388830
 C   -4.675534    4.275684   -0.138910
 O   -5.260194    5.048952    0.572995
 O   -4.729395    4.412019   -1.481926
 C   -1.179853   -3.571842   -0.065693
 N    0.093598   -3.327943    0.098057
 C    0.495885   -2.024662    0.018277
 C   -0.387310   -0.943295   -0.238344
 C    1.879257   -1.766042    0.165026
 C    2.392433   -0.494179    0.038785
 C    1.504501    0.571521   -0.273814
 C    0.161039    0.353645   -0.410993
 C    3.834921   -0.253275    0.253841
 C    4.638091    0.568125   -0.560808
 O    4.070322    1.179851   -1.602209
 C    4.907989    1.976023   -2.435243
 N    5.933446    0.746278   -0.345019
 C    6.460976    0.102406    0.698157
 O    7.760378    0.254934    0.946887
 C    8.503996    1.095405    0.075506
 N    5.825527   -0.697361    1.548155
 C    4.526116   -0.853624    1.302615
 H   -5.415486   -2.133978    0.966541
 H   -4.357456   -3.081043    1.861502
 H   -3.560850   -0.569661   -1.051687
 H   -4.049465    1.851434   -1.353567
 H   -1.797933    0.224449    1.900415
 H   -2.178961    2.282100    3.207065
 H   -3.543614    4.142041    2.251113
 H   -4.085409    3.828551   -1.904071
 H   -1.501816   -4.609061   -0.019036
 H    2.521915   -2.620485    0.351103
 H    1.903530    1.569653   -0.410737
 H   -0.491059    1.182203   -0.660163
 H    5.357897    2.794533   -1.867535
 H    5.702685    1.370399   -2.877999
 H    4.249397    2.365750   -3.211057
 H    8.476387    0.719821   -0.951345
 H    8.116333    2.118058    0.089802
 H    9.524248    1.073086    0.458372
 H    3.985658   -1.493156    1.998334
