52 
4qt0_ligand_dft.xyz
 O    5.889911   -4.415460    0.578628
 C    5.293150   -3.646634   -0.128427
 O    5.427974   -3.713140   -1.471121
 C    4.372638   -2.587106    0.403929
 C    3.809353   -2.790593    1.663502
 C    2.953291   -1.832212    2.191076
 C    2.672423   -0.665294    1.489676
 C    4.084697   -1.423247   -0.309090
 C    3.234572   -0.453751    0.227264
 N    3.027429    0.723795   -0.518477
 C    2.013998    1.638892   -0.324538
 C    2.289274    3.010121   -0.292871
 C    3.683835    3.517715   -0.407929
 N    3.922768    4.770889    0.074845
 O    4.591997    2.868695   -0.927315
 C    0.640596    1.234141   -0.219682
 C   -0.335965    2.238098    0.001201
 N   -0.046946    3.573340    0.035333
 C    1.203380    3.908982   -0.135637
 C    0.200747   -0.104598   -0.383313
 C   -1.121712   -0.434301   -0.257305
 C   -2.098447    0.555099    0.034806
 C   -1.693840    1.867381    0.143124
 C   -3.518050    0.198181    0.243300
 C   -4.264658    0.753758    1.278321
 N   -5.549172    0.494668    1.517883
 C   -6.109463   -0.366996    0.676187
 O   -7.394369   -0.623496    0.918744
 C   -8.057251   -1.536504    0.055758
 N   -5.522788   -0.979941   -0.353743
 C   -4.244791   -0.698167   -0.564016
 O   -3.621128   -1.276315   -1.592773
 C   -4.383749   -2.152769   -2.416533
 H    4.773813   -3.147291   -1.901441
 H    4.053890   -3.694698    2.209572
 H    2.510276   -1.982862    3.170500
 H    2.021527    0.086907    1.922672
 H    4.541296   -1.220761   -1.275527
 H    3.879775    1.177529   -0.850395
 H    4.888346    5.065363    0.067141
 H    3.317095    5.195447    0.758373
 H    1.399916    4.980173   -0.168126
 H    0.918371   -0.880586   -0.619780
 H   -1.432707   -1.464058   -0.388270
 H   -2.407924    2.668474    0.305507
 H   -3.783905    1.445631    1.967685
 H   -8.054159   -1.175137   -0.976623
 H   -7.584225   -2.522228    0.087477
 H   -9.078631   -1.595711    0.431833
 H   -4.768111   -2.996530   -1.837624
 H   -5.223203   -1.623100   -2.874020
 H   -3.689740   -2.499263   -3.181971
