148 
4qt2_ligand_xtb.xyz
 C   -0.653110   -1.476132   -0.263507
 O   -1.597160   -2.180674    0.340049
 O    0.009978   -1.857938   -1.194904
 C   -0.468268   -0.104921    0.390195
 C    0.966169    0.013523    0.937137
 C    0.977961    1.108247    1.997513
 C    0.180319    0.644898    3.222410
 C   -0.964118   -0.279704    2.783927
 N   -1.415868    0.097562    1.460576
 C   -2.652018    0.554632    1.257096
 O   -3.512258    0.655130    2.117719
 C   -2.964156    0.995171   -0.162171
 O   -3.253135    0.248571   -1.067702
 C   -2.926514    2.509648   -0.399104
 O   -1.618628    2.876747    0.000488
 O   -3.131482    2.768517   -1.751653
 C   -3.992783    3.232866    0.458872
 C   -3.758993    4.737549    0.317287
 C   -2.323777    5.079825    0.707764
 C   -1.360061    4.275723   -0.161992
 C    0.110528    4.477981    0.192759
 C    0.695973    5.807731   -0.309851
 O    0.418747    5.985435   -1.691435
 C    2.223672    5.822764   -0.077096
 C    2.935912    4.921472   -1.110291
 C    3.988095    4.076081   -0.474649
 C    3.925634    2.749381   -0.380918
 C    4.927422    1.883554    0.215640
 C    6.212429    2.199133    0.365692
 C    7.276809    1.344467    0.991763
 C    7.083191   -0.163588    0.789108
 C    6.902051   -0.585344   -0.681443
 C    6.851193   -2.098925   -0.722786
 O    7.775751   -2.783040   -1.082937
 C    5.525116   -2.729800   -0.286557
 O    5.684858   -4.065389    0.128911
 C    4.563795   -2.687068   -1.499355
 O    4.034859   -1.381910   -1.544808
 C    3.465621   -3.766749   -1.411931
 C    2.591244   -3.506330   -0.184538
 C    1.416387   -4.471672   -0.012061
 C    0.452970   -3.916867    1.013408
 O    0.769069   -3.095404    1.841538
 C   -0.971034   -4.430765    0.931586
 C   -1.786353   -3.550427   -0.037299
 C   -3.295443   -3.834493    0.029124
 C   -4.019977   -3.091284   -1.102614
 C   -5.502265   -2.830348   -0.797309
 C   -5.662874   -1.544425    0.013008
 C   -7.129894   -1.268583    0.340353
 O   -7.340551   -0.029553    0.997057
 C   -7.952801   -1.187412   -0.954081
 O   -9.318133   -1.002489   -0.662894
 C   -7.787698   -2.461122   -1.775667
 C   -6.317986   -2.718612   -2.086509
 C   -5.399033    2.833862    0.028262
 C    2.773872    7.245994   -0.127180
 C    7.340015    1.651353    2.494818
 C    8.032615   -0.078199   -1.571672
 C    2.637924   -3.766587   -2.700903
 C    1.888790   -5.851792    0.459269
 C   -3.589278   -5.331184   -0.051549
 C   -0.350253    7.111720   -2.019656
 C    6.416403   -4.200892    1.322816
 C   -6.850226    0.045062    2.317175
 H   -0.618823    0.667388   -0.373528
 H    1.279677   -0.932293    1.381427
 H    1.643556    0.244250    0.115734
 H    0.518885    2.003071    1.575147
 H    2.002109    1.352425    2.279483
 H    0.824470    0.096294    3.909955
 H   -0.216138    1.512777    3.750041
 H   -1.818863   -0.206823    3.457037
 H   -0.623411   -1.317527    2.748781
 H   -3.142355    1.917715   -2.220239
 H   -3.828115    2.938917    1.499223
 H   -3.935796    5.024491   -0.721473
 H   -4.465440    5.275620    0.951851
 H   -2.155270    4.820211    1.756090
 H   -2.136811    6.146603    0.580501
 H   -1.515475    4.524833   -1.219953
 H    0.235604    4.425480    1.275499
 H    0.666517    3.655646   -0.257067
 H    0.245158    6.629713    0.262464
 H    2.399395    5.418442    0.925656
 H    2.203453    4.290984   -1.612205
 H    3.391135    5.555800   -1.873816
 H    4.825913    4.611688   -0.048966
 H    3.056034    2.239327   -0.777758
 H    4.568933    0.905143    0.504938
 H    6.552249    3.175001    0.044744
 H    8.240270    1.629343    0.557869
 H    6.218225   -0.489266    1.369017
 H    7.962392   -0.673128    1.193210
 H    5.943862   -0.206708   -1.045014
 H    5.071006   -2.128458    0.515892
 H    5.157115   -2.882413   -2.408884
 H    3.309334   -1.379180   -2.180721
 H    3.986297   -4.720509   -1.309840
 H    3.205508   -3.555452    0.714000
 H    2.190763   -2.494276   -0.266217
 H    0.874233   -4.580446   -0.953979
 H   -1.426367   -4.364229    1.921557
 H   -0.987157   -5.457425    0.574449
 H   -1.413156   -3.680930   -1.061180
 H   -3.646029   -3.446039    0.990050
 H   -3.536300   -2.131251   -1.282853
 H   -3.932588   -3.684606   -2.015789
 H   -5.906271   -3.664274   -0.212308
 H   -5.281451   -0.705777   -0.570906
 H   -5.081795   -1.602707    0.934724
 H   -7.530780   -2.082807    0.969652
 H   -7.577864   -0.324072   -1.528531
 H   -9.364535   -0.301529   -0.000484
 H   -8.206996   -3.293591   -1.207243
 H   -8.366473   -2.360655   -2.694210
 H   -6.226225   -3.640221   -2.665086
 H   -5.921778   -1.899716   -2.690111
 H   -5.587581    1.783378    0.233163
 H   -5.532333    3.017473   -1.035491
 H   -6.130530    3.421454    0.577030
 H    2.586947    7.688160   -1.103125
 H    3.847309    7.239702    0.047029
 H    2.308392    7.869492    0.634380
 H    6.397304    1.393210    2.972214
 H    7.526832    2.710331    2.657367
 H    8.138263    1.083041    2.967219
 H    8.998391   -0.355329   -1.155917
 H    7.980429    1.001490   -1.676934
 H    7.951483   -0.525200   -2.559589
 H    1.877337   -2.987690   -2.673890
 H    3.276734   -3.612042   -3.568902
 H    2.136193   -4.721657   -2.832473
 H    2.389199   -5.766919    1.421116
 H    1.056589   -6.545041    0.560452
 H    2.593893   -6.262171   -0.257650
 H   -4.657902   -5.487942   -0.168689
 H   -3.272623   -5.854161    0.846519
 H   -3.088541   -5.770661   -0.911926
 H   -1.354920    7.064374   -1.582669
 H   -0.435506    7.112963   -3.105318
 H    0.130048    8.042945   -1.696378
 H    5.950871   -3.629667    2.137220
 H    7.453370   -3.873404    1.205252
 H    6.400425   -5.261102    1.567473
 H   -7.278337    0.950524    2.744454
 H   -7.175129   -0.822263    2.904073
 H   -5.759856    0.118424    2.348104
