42 
4qtl_ligand_ani.xyz
 F   -1.405795   -2.403344    0.443534
 C   -1.465583   -1.062762    0.283669
 C   -2.698057   -0.472081    0.067815
 S   -4.146831   -1.499314   -0.060934
 O   -5.226916   -0.676397   -0.553958
 N   -3.794739   -2.583272   -1.264151
 O   -4.248488   -2.263786    1.163178
 C   -2.720582    0.915885   -0.051758
 F   -3.839091    1.594519   -0.266710
 C   -1.542769    1.636812    0.082299
 F   -1.635700    2.966514   -0.022735
 C   -0.244027   -0.373743    0.302677
 C   -0.311209    1.027091    0.311406
 S    1.032151    2.099142    0.753674
 O    2.233246    1.311977    1.027418
 O    0.541987    3.026068    1.765028
 C    1.312801    3.022380   -0.756043
 C    2.449094    4.008597   -0.544539
 O    2.616901    4.694656   -1.768366
 N    0.925946   -1.120239    0.344158
 C    1.874553   -1.065913   -0.764519
 C    3.105793   -1.866927   -0.422978
 C    3.799155   -1.599910    0.758289
 C    4.938039   -2.332482    1.080750
 C    5.388966   -3.341111    0.234057
 C    4.699863   -3.611760   -0.943499
 C    3.564660   -2.874460   -1.268131
 H   -3.736480   -2.159895   -2.183478
 H   -3.020693   -3.198832   -1.042798
 H    0.378616    3.524552   -1.013313
 H    1.566503    2.300194   -1.537628
 H    3.357282    3.458318   -0.257798
 H    2.187806    4.692493    0.276135
 H    3.322115    5.341114   -1.651272
 H    0.715805   -2.071487    0.613898
 H    2.139790   -0.017883   -0.923480
 H    1.426708   -1.439622   -1.700452
 H    3.446372   -0.806737    1.413621
 H    5.473543   -2.116603    2.001998
 H    6.276729   -3.913750    0.492038
 H    5.045431   -4.397211   -1.611727
 H    3.024161   -3.084371   -2.189798
