42 
4qtl_ligand_dft.xyz
 F   -1.381236   -2.424597    0.111435
 C   -1.450557   -1.077029    0.142363
 C   -2.698900   -0.479898    0.036641
 S   -4.181867   -1.514179   -0.053366
 O   -5.271646   -0.671574   -0.485025
 N   -3.905931   -2.574102   -1.286018
 O   -4.203431   -2.276227    1.173549
 C   -2.745807    0.910288    0.032313
 F   -3.875580    1.589836   -0.078691
 C   -1.565571    1.632967    0.158033
 F   -1.671393    2.960198    0.136903
 C   -0.235130   -0.389690    0.256919
 C   -0.321933    1.019894    0.304356
 S    1.056465    2.122495    0.733383
 O    2.256240    1.334270    0.980954
 O    0.565609    3.026637    1.761645
 C    1.310787    3.039181   -0.790054
 C    2.455591    4.033632   -0.633654
 O    2.571697    4.672632   -1.886851
 N    0.938723   -1.128184    0.355031
 C    1.915545   -1.067150   -0.739620
 C    3.142855   -1.867642   -0.379224
 C    3.829891   -1.587865    0.805540
 C    4.964278   -2.316317    1.142315
 C    5.424724   -3.329136    0.301792
 C    4.743914   -3.611943   -0.877216
 C    3.603853   -2.884361   -1.213045
 H   -3.950545   -2.158283   -2.208559
 H   -3.132540   -3.209744   -1.133736
 H    0.379440    3.557621   -1.025746
 H    1.539565    2.312819   -1.575375
 H    3.373717    3.497017   -0.359207
 H    2.214889    4.742292    0.170172
 H    3.270933    5.332863   -1.821376
 H    0.735378   -2.093981    0.581480
 H    2.194035   -0.022774   -0.889934
 H    1.483312   -1.441757   -1.680934
 H    3.463799   -0.795139    1.450620
 H    5.493846   -2.092595    2.063680
 H    6.311398   -3.896911    0.568006
 H    5.094555   -4.401806   -1.534897
 H    3.070008   -3.111097   -2.133310
