114 
4qw4_ligand_xtb.xyz
 C    1.735444   -2.118647    2.350557
 O    0.928630   -2.265276    3.244189
 C    2.278814   -3.322179    1.557359
 N    1.386693   -3.666943    0.426703
 O    0.094729   -6.199841    0.861543
 C    1.815731   -4.910927   -0.259675
 C   -0.053003   -3.788670    0.775283
 C    1.465164   -6.154288    0.564877
 C   -0.314806   -5.058328    1.580171
 N    2.239251   -0.936819    1.970426
 C    1.556781    0.268168    2.397265
 C    0.100615    0.130616    1.923090
 O   -0.189835   -0.671411    1.046375
 C    2.193666    1.507031    1.770669
 C    3.654051    1.689818    2.196527
 C    4.295209    2.845543    1.473847
 C    4.432230    2.830394    0.090369
 C    4.761647    3.949354    2.173941
 C    5.020814    3.888900   -0.576702
 C    5.355291    5.009618    1.510692
 C    5.486505    4.982396    0.133567
 N   -0.790768    0.931414    2.505389
 C   -2.184322    0.912073    2.085300
 C   -2.166077    0.802537    0.554762
 O   -1.598707    1.649438   -0.116753
 C   -2.919404    2.189695    2.496862
 C   -3.489709    2.190405    3.923325
 C   -2.422951    1.959011    4.991562
 C   -4.624326    1.178798    4.074873
 N   -2.824764   -0.252811    0.056827
 C   -2.870093   -0.643451   -1.345747
 C   -1.474181   -1.005206   -1.867902
 O   -1.196285   -2.173511   -2.146423
 C   -3.549200    0.435955   -2.210573
 C   -4.921650    0.726393   -1.666698
 C   -5.131313    1.831290   -0.852343
 C   -5.984473   -0.127547   -1.932250
 C   -6.381051    2.078694   -0.311310
 C   -7.235140    0.120734   -1.395451
 C   -7.435057    1.222603   -0.580650
 N   -0.629265    0.007289   -2.016056
 C    0.648754   -0.057477   -2.710444
 C    1.041501    1.373735   -3.083086
 C   -0.003516    2.120837   -3.926122
 C   -0.290537    1.405589   -5.243823
 C    0.503300    3.536584   -4.196355
 C    1.706793   -0.777598   -1.847547
 C    3.142799   -0.693135   -2.407591
 C    3.236711   -1.273812   -3.816265
 C    4.102420   -1.462985   -1.487886
 O    4.167358   -0.937705   -0.175469
 O    1.372692   -2.156147   -1.722313
 H    2.345187   -4.164009    2.248326
 H    3.269662   -3.094629    1.160946
 H    1.435781   -2.892970   -0.317569
 H    1.287059   -4.955315   -1.214085
 H    2.889185   -4.871741   -0.447565
 H   -0.364835   -2.903248    1.327560
 H   -0.608971   -3.829478   -0.164791
 H    1.682868   -7.050693   -0.018108
 H    2.059676   -6.190403    1.489851
 H    0.186811   -5.007996    2.556005
 H   -1.385910   -5.174616    1.747259
 H    2.856188   -0.879879    1.164806
 H    1.580907    0.320590    3.491681
 H    1.621656    2.390533    2.058505
 H    2.128544    1.420414    0.683829
 H    4.212698    0.773351    1.990888
 H    3.695072    1.863945    3.272722
 H    4.067430    1.984669   -0.478798
 H    4.664970    3.977896    3.249547
 H    5.118739    3.861054   -1.651946
 H    5.715603    5.858193    2.071718
 H    5.948984    5.807701   -0.385027
 H   -0.521970    1.578727    3.228753
 H   -2.674015    0.030086    2.514180
 H   -2.239540    3.033599    2.362463
 H   -3.751321    2.332768    1.803753
 H   -3.912049    3.188974    4.079211
 H   -1.621317    2.691006    4.907065
 H   -2.864700    2.067293    5.978918
 H   -2.007683    0.955781    4.923628
 H   -5.109445    1.307255    5.038665
 H   -5.371266    1.316588    3.296408
 H   -4.255261    0.156857    4.025165
 H   -3.216325   -0.911071    0.709844
 H   -3.465547   -1.560044   -1.394622
 H   -3.611667    0.065285   -3.235057
 H   -2.953715    1.347669   -2.200158
 H   -4.312161    2.508178   -0.653833
 H   -5.833868   -0.985226   -2.572407
 H   -6.534679    2.945128    0.315181
 H   -8.056327   -0.544425   -1.615713
 H   -8.411095    1.417253   -0.163292
 H   -0.869303    0.885202   -1.551536
 H    0.502452   -0.661939   -3.613677
 H    1.971781    1.358164   -3.650026
 H    1.213295    1.935157   -2.160721
 H   -0.937057    2.197466   -3.361353
 H   -0.776371    0.446757   -5.080717
 H    0.629999    1.242126   -5.800283
 H   -0.951706    2.011804   -5.857271
 H   -0.237382    4.104254   -4.752736
 H    1.420247    3.509158   -4.781011
 H    0.703797    4.059781   -3.264294
 H    1.682353   -0.326298   -0.843336
 H    3.451129    0.356576   -2.415044
 H    2.844757   -2.287383   -3.826893
 H    4.272971   -1.301221   -4.142950
 H    2.674943   -0.676099   -4.526995
 H    5.101802   -1.476702   -1.934909
 H    3.758543   -2.494201   -1.388360
 H    4.643838   -0.097990   -0.203454
 H    0.419299   -2.264070   -1.999423
