114 
4qw6_ligand_xtb.xyz
 C    1.689238   -2.110165    2.382826
 O    0.868803   -2.237425    3.267162
 C    2.222308   -3.328447    1.605493
 N    1.335846   -3.672663    0.469805
 O   -0.030892   -6.159907    0.940495
 C    1.740203   -4.941903   -0.184460
 C   -0.111820   -3.749189    0.797768
 C    1.343731   -6.157907    0.660382
 C   -0.418731   -4.991741    1.627827
 N    2.216163   -0.938525    2.001796
 C    1.542262    0.278067    2.409432
 C    0.090296    0.151304    1.921497
 O   -0.197281   -0.649596    1.042770
 C    2.192015    1.504593    1.772234
 C    3.643911    1.697640    2.220859
 C    4.298353    2.831972    1.476583
 C    4.460061    2.774964    0.096915
 C    4.751206    3.957258    2.150832
 C    5.061510    3.812128   -0.591651
 C    5.357495    4.996630    1.466088
 C    5.515064    4.926700    0.093233
 N   -0.799277    0.962723    2.490851
 C   -2.187826    0.960206    2.054475
 C   -2.154652    0.826556    0.525853
 O   -1.576682    1.659876   -0.153415
 C   -2.903474    2.257436    2.437860
 C   -3.486537    2.292977    3.858604
 C   -2.431911    2.081233    4.942983
 C   -4.627418    1.290267    4.022486
 N   -2.814490   -0.232989    0.038162
 C   -2.851718   -0.643814   -1.358846
 C   -1.454821   -1.019226   -1.868157
 O   -1.182916   -2.192812   -2.131396
 C   -3.523546    0.425639   -2.241730
 C   -4.892497    0.731424   -1.697442
 C   -5.093802    1.850908   -0.901136
 C   -5.958419   -0.125860   -1.938580
 C   -6.338145    2.108631   -0.352512
 C   -7.203740    0.132794   -1.394332
 C   -7.394992    1.248441   -0.596349
 N   -0.602649   -0.014355   -2.023748
 C    0.680038   -0.096533   -2.708166
 C    1.079792    1.327350   -3.100532
 C    0.045907    2.054209   -3.974730
 C   -0.195112    1.328626   -5.296104
 C    0.534887    3.477136   -4.239404
 C    1.725826   -0.812817   -1.826934
 C    3.169589   -0.739716   -2.367880
 C    3.279403   -1.329245   -3.771776
 C    4.111708   -1.511915   -1.431641
 O    4.164433   -0.981898   -0.120513
 O    1.383564   -2.189245   -1.697212
 H    2.270670   -4.164199    2.305315
 H    3.219724   -3.119142    1.215532
 H    1.415708   -2.914269   -0.288096
 H    1.224117   -4.991952   -1.145430
 H    2.816916   -4.936238   -0.357113
 H   -0.409690   -2.842809    1.322928
 H   -0.653614   -3.798543   -0.150214
 H    1.543254   -7.071675    0.098183
 H    1.925693   -6.192063    1.593405
 H    0.071079   -4.931652    2.609053
 H   -1.494754   -5.075353    1.782494
 H    2.843943   -0.896193    1.203570
 H    1.557393    0.343371    3.503224
 H    1.614087    2.393069    2.031765
 H    2.147093    1.396840    0.686280
 H    4.204828    0.775048    2.051701
 H    3.664916    1.902750    3.292150
 H    4.104195    1.912652   -0.452540
 H    4.633898    4.019541    3.222969
 H    5.178898    3.750993   -1.663582
 H    5.707305    5.862465    2.007061
 H    5.988266    5.735172   -0.441873
 H   -0.532134    1.607011    3.217606
 H   -2.698694    0.094368    2.491433
 H   -2.207494    3.086730    2.295375
 H   -3.726478    2.403088    1.734779
 H   -3.904866    3.297085    3.987214
 H   -1.623937    2.804987    4.848179
 H   -2.882720    2.217975    5.922747
 H   -2.024026    1.073302    4.905334
 H   -5.134682    1.456948    4.968828
 H   -5.355323    1.398893    3.221681
 H   -4.259770    0.266568    4.021602
 H   -3.216382   -0.878518    0.697503
 H   -3.450434   -1.558724   -1.398135
 H   -3.590141    0.038822   -3.259949
 H   -2.922502    1.333765   -2.246781
 H   -4.272161    2.530122   -0.722025
 H   -5.814248   -0.994887   -2.564739
 H   -6.485093    2.985611    0.260772
 H   -8.027228   -0.535731   -1.594767
 H   -8.366560    1.450337   -0.172099
 H   -0.839873    0.870893   -1.571491
 H    0.536857   -0.713355   -3.603632
 H    2.019692    1.303395   -3.650920
 H    1.234696    1.906105   -2.186024
 H   -0.903428    2.117108   -3.435101
 H   -0.660316    0.358315   -5.141135
 H    0.740736    1.186910   -5.832534
 H   -0.858071    1.916700   -5.925094
 H   -0.199621    4.027568   -4.820795
 H    1.468678    3.462945   -4.797158
 H    0.698523    4.009622   -3.305454
 H    1.690080   -0.354348   -0.826414
 H    3.484053    0.308210   -2.376876
 H    2.882057   -2.340694   -3.781393
 H    4.319895   -1.364417   -4.083980
 H    2.730662   -0.732931   -4.493708
 H    5.116460   -1.535504   -1.865844
 H    3.758580   -2.540052   -1.332061
 H    4.654646   -0.150001   -0.143532
 H    0.431408   -2.292969   -1.980614
