114 
4qw6_ligand_dft.xyz
 C    2.183779   -2.826575    1.573287
 O    1.445244   -3.622503    2.128511
 C    3.108713   -3.272113    0.442132
 N    2.425122   -3.114510   -0.884741
 O    2.142055   -5.607314   -2.293369
 C    3.322896   -3.516354   -2.021897
 C    1.105867   -3.834509   -1.017457
 C    3.414825   -5.032865   -2.144896
 C    1.320636   -5.327836   -1.180936
 N    2.215946   -1.500033    1.844026
 C    1.090032   -0.894327    2.522761
 C   -0.188337   -1.248402    1.746598
 O   -0.144842   -1.554695    0.558419
 C    1.213247    0.636306    2.509584
 C    2.485563    1.199628    3.159542
 C    2.716557    2.625139    2.715389
 C    3.714686    2.926127    1.788482
 C    1.893365    3.660598    3.164656
 C    3.890096    4.221851    1.311253
 C    2.064127    4.958917    2.694355
 C    3.060746    5.243007    1.763025
 N   -1.355016   -1.105699    2.405374
 C   -2.604917   -1.107679    1.660315
 C   -2.428734   -0.142848    0.479992
 O   -2.075233    1.018782    0.679865
 C   -3.794129   -0.649160    2.511600
 C   -4.322656   -1.643086    3.562193
 C   -3.333728   -1.933190    4.696553
 C   -4.818192   -2.945143    2.926815
 N   -2.693519   -0.661773   -0.734014
 C   -2.439109    0.008193   -2.004492
 C   -0.930081    0.173572   -2.250921
 O   -0.368528   -0.469420   -3.147507
 C   -3.225426    1.325985   -2.162576
 C   -4.698306    1.117259   -1.908787
 C   -5.246119    1.403660   -0.656384
 C   -5.524266    0.585115   -2.899885
 C   -6.591935    1.159161   -0.399220
 C   -6.870501    0.339988   -2.646171
 C   -7.407261    0.624261   -1.393411
 N   -0.286613    1.058753   -1.473693
 C    1.047653    1.573896   -1.764493
 C    1.188812    2.958427   -1.117234
 C    0.055022    3.946877   -1.436472
 C   -0.163866    4.103099   -2.942653
 C    0.354510    5.295449   -0.779286
 C    2.148984    0.599688   -1.312427
 C    3.575008    1.133088   -1.522992
 C    3.847798    1.534470   -2.975488
 C    4.601678    0.083144   -1.102465
 O    4.420001   -0.388789    0.238478
 O    2.031959   -0.656636   -1.985493
 H    3.354641   -4.321875    0.594045
 H    4.018377   -2.669192    0.397727
 H    2.213587   -2.097930   -1.052484
 H    2.881861   -3.084733   -2.922729
 H    4.302310   -3.062891   -1.855037
 H    0.498428   -3.589239   -0.148982
 H    0.634681   -3.409102   -1.907374
 H    3.986749   -5.278314   -3.042102
 H    3.940993   -5.469015   -1.281296
 H    1.739818   -5.765377   -0.262269
 H    0.357462   -5.805815   -1.367634
 H    2.813834   -0.914657    1.265050
 H    1.028988   -1.279236    3.546987
 H    0.329500    1.066559    2.991638
 H    1.159014    0.967718    1.466816
 H    3.352560    0.588562    2.884431
 H    2.399935    1.136659    4.250519
 H    4.363077    2.130136    1.431351
 H    1.115147    3.450691    3.894578
 H    4.676353    4.434537    0.592808
 H    1.418499    5.752698    3.057481
 H    3.191226    6.255828    1.395572
 H   -1.359174   -0.762523    3.354209
 H   -2.782054   -2.121882    1.285210
 H   -3.526827    0.305435    2.982645
 H   -4.610140   -0.424407    1.812901
 H   -5.192294   -1.144494    4.009504
 H   -2.950239   -1.007408    5.144832
 H   -3.824027   -2.499083    5.494704
 H   -2.485454   -2.533898    4.348523
 H   -5.330336   -3.564697    3.669403
 H   -5.522367   -2.749732    2.110378
 H   -3.988084   -3.541609    2.528734
 H   -2.805788   -1.662482   -0.779705
 H   -2.775367   -0.685589   -2.777567
 H   -3.052299    1.685816   -3.183289
 H   -2.831424    2.080790   -1.479382
 H   -4.609799    1.823661    0.118993
 H   -5.112204    0.368976   -3.883474
 H   -7.007798    1.395108    0.576085
 H   -7.503105   -0.066016   -3.429669
 H   -8.458627    0.438930   -1.196617
 H   -0.794403    1.414483   -0.665986
 H    1.113221    1.670064   -2.854909
 H    2.131129    3.405229   -1.454400
 H    1.280297    2.847765   -0.027001
 H   -0.876905    3.569471   -0.994869
 H   -0.500447    3.170554   -3.408930
 H    0.761701    4.418066   -3.441355
 H   -0.924256    4.863875   -3.145100
 H   -0.462383    6.003787   -0.950327
 H    1.271446    5.735336   -1.191059
 H    0.493346    5.185575    0.300991
 H    1.998460    0.414741   -0.244061
 H    3.701342    2.004098   -0.869285
 H    3.589923    0.715996   -3.655244
 H    4.904050    1.781012   -3.125350
 H    3.267526    2.413840   -3.269421
 H    5.615962    0.479809   -1.221552
 H    4.511391   -0.789896   -1.755040
 H    5.002853    0.103262    0.827215
 H    1.217224   -0.647455   -2.547670
