114 
4qw7_ligand_xtb.xyz
 C    1.718195   -2.118593    2.360022
 O    0.905721   -2.262663    3.248968
 C    2.261247   -3.324322    1.569727
 N    1.372827   -3.668080    0.435726
 O    0.049724   -6.183722    0.878593
 C    1.792926   -4.920873   -0.240076
 C   -0.070623   -3.772714    0.773921
 C    1.421999   -6.155871    0.588316
 C   -0.350463   -5.032736    1.587296
 N    2.228017   -0.937799    1.983944
 C    1.544508    0.268157    2.407012
 C    0.090969    0.131965    1.925019
 O   -0.194562   -0.667670    1.044445
 C    2.181793    1.507645    1.781924
 C    3.636551    1.702693    2.221151
 C    4.280590    2.850183    1.487645
 C    4.430766    2.813833    0.106023
 C    4.736912    3.966382    2.174495
 C    5.023234    3.862927   -0.572301
 C    5.334735    5.017387    1.500096
 C    5.479972    4.968490    0.124993
 N   -0.803289    0.932114    2.503408
 C   -2.193871    0.916474    2.073432
 C   -2.164684    0.804407    0.543104
 O   -1.591958    1.649877   -0.125679
 C   -2.927073    2.197877    2.476620
 C   -3.502677    2.207983    3.900882
 C   -2.441597    1.979080    4.975348
 C   -4.641252    1.200961    4.053441
 N   -2.820616   -0.251098    0.041789
 C   -2.856941   -0.642249   -1.360911
 C   -1.458518   -1.006797   -1.873971
 O   -1.181891   -2.175893   -2.151252
 C   -3.529437    0.437758   -2.230191
 C   -4.902083    0.731972   -1.689020
 C   -5.111048    1.839814   -0.878526
 C   -5.964865   -0.123418   -1.950070
 C   -6.359778    2.087806   -0.335431
 C   -7.214510    0.125461   -1.411161
 C   -7.413410    1.229515   -0.599059
 N   -0.609827    0.003151   -2.016894
 C    0.671027   -0.065912   -2.705962
 C    1.067269    1.363460   -3.081389
 C    0.025165    2.106476   -3.931574
 C   -0.246993    1.391290   -5.252491
 C    0.524917    3.525830   -4.195092
 C    1.722783   -0.787998   -1.837170
 C    3.162786   -0.706462   -2.386916
 C    3.264735   -1.288051   -3.794705
 C    4.113940   -1.479452   -1.460800
 O    4.169985   -0.956765   -0.146783
 O    1.384878   -2.166039   -1.716968
 H    2.322587   -4.165654    2.261803
 H    3.254295   -3.100173    1.176872
 H    1.434751   -2.899136   -0.313093
 H    1.271286   -4.964325   -1.198427
 H    2.868176   -4.895218   -0.419828
 H   -0.378556   -2.879350    1.315384
 H   -0.619485   -3.816805   -0.170214
 H    1.631059   -7.057326    0.009969
 H    2.011595   -6.195574    1.516273
 H    0.147283   -4.980278    2.565021
 H   -1.423550   -5.135912    1.750153
 H    2.850411   -0.882565    1.182395
 H    1.563589    0.321244    3.501423
 H    1.601163    2.388905    2.059457
 H    2.128221    1.415613    0.694861
 H    4.200983    0.785574    2.034666
 H    3.665329    1.892912    3.295007
 H    4.073235    1.958256   -0.452973
 H    4.629362    4.012511    3.248504
 H    5.131283    3.818210   -1.646016
 H    5.687591    5.875816    2.050866
 H    5.946381    5.786183   -0.402134
 H   -0.538390    1.577406    3.230020
 H   -2.689952    0.037150    2.500450
 H   -2.244491    3.039254    2.340053
 H   -3.756266    2.339235    1.779850
 H   -3.922381    3.208805    4.049499
 H   -1.636925    2.707713    4.890435
 H   -2.887603    2.094861    5.959990
 H   -2.029904    0.973832    4.915542
 H   -5.131497    1.338114    5.013454
 H   -5.383314    1.335153    3.269707
 H   -4.274881    0.177660    4.013485
 H   -3.216624   -0.908903    0.692503
 H   -3.453554   -1.557836   -1.413476
 H   -3.590145    0.065504   -3.254208
 H   -2.931487    1.347869   -2.219493
 H   -4.291934    2.517879   -0.684057
 H   -5.814880   -0.983057   -2.587735
 H   -6.512731    2.956095    0.288689
 H   -8.035429   -0.541364   -1.627196
 H   -8.388368    1.423966   -0.179204
 H   -0.850109    0.882012   -1.554180
 H    0.526832   -0.671954   -3.608579
 H    2.000021    1.345339   -3.644233
 H    1.235484    1.928052   -2.160388
 H   -0.913427    2.176365   -3.374405
 H   -0.731117    0.430700   -5.094732
 H    0.679298    1.231264   -5.800300
 H   -0.904374    1.995617   -5.871779
 H   -0.214015    4.088746   -4.758550
 H    1.448059    3.505577   -4.770094
 H    0.711693    4.049324   -3.260385
 H    1.692197   -0.338145   -0.832595
 H    3.473577    0.342507   -2.392311
 H    2.868003   -2.299775   -3.807668
 H    4.303269   -1.320671   -4.113628
 H    2.711046   -0.688031   -4.509792
 H    5.116648   -1.494565   -1.900100
 H    3.767223   -2.510197   -1.365862
 H    4.652969   -0.120634   -0.168226
 H    0.432357   -2.271058   -1.998778
