114 
4qwg_ligand_ani.xyz
 C    3.130550   -2.622751    1.219882
 O    3.045555   -3.432342    2.130086
 C    3.507127   -3.012343   -0.210003
 N    2.217100   -3.316076   -0.926238
 O    2.281874   -5.591849   -2.726434
 C    2.277154   -3.182904   -2.415580
 C    1.686576   -4.682358   -0.551108
 C    2.926344   -4.386264   -3.087041
 C    2.364095   -5.802605   -1.332086
 N    2.777038   -1.307447    1.354934
 C    1.694463   -0.941051    2.238433
 C    0.350441   -1.378289    1.609824
 O    0.296049   -1.992681    0.546027
 C    1.747748    0.565030    2.530560
 C    3.086351    1.026084    3.123517
 C    3.170315    2.531067    3.214299
 C    3.396219    3.292180    2.064402
 C    2.979789    3.192375    4.427031
 C    3.438690    4.681735    2.128470
 C    3.018058    4.582706    4.495267
 C    3.248784    5.330578    3.345197
 N   -0.776330   -1.091322    2.322983
 C   -2.067659   -1.285847    1.688237
 C   -2.239483   -0.235754    0.579232
 O   -1.965042    0.947033    0.767595
 C   -3.230263   -1.185683    2.681452
 C   -3.434454   -2.382689    3.629943
 C   -2.296337   -2.591704    4.630368
 C   -3.731691   -3.676022    2.866330
 N   -2.729332   -0.708166   -0.590819
 C   -2.980823    0.094033   -1.787777
 C   -1.651001    0.463994   -2.461177
 O   -1.311337   -0.075495   -3.518280
 C   -3.899301    1.307259   -1.520380
 C   -5.213823    0.907892   -0.891229
 C   -5.372133    0.970299    0.495275
 C   -6.275420    0.443940   -1.667140
 C   -6.567439    0.582904    1.092465
 C   -7.474035    0.057741   -1.074145
 C   -7.623351    0.128809    0.307592
 N   -0.883771    1.377337   -1.831961
 C    0.343126    1.908025   -2.424899
 C    0.583561    3.335955   -1.937919
 C   -0.584119    4.319484   -2.108636
 C   -1.041925    4.424174   -3.565847
 C   -0.171713    5.693491   -1.578264
 C    1.533806    0.959956   -2.131032
 C    2.901886    1.522838   -2.543405
 C    2.989551    1.795055   -4.045405
 C    4.018232    0.569035   -2.119109
 O    4.043751    0.373320   -0.712662
 O    1.353935   -0.287059   -2.787498
 H    4.148205   -3.895576   -0.184094
 H    4.021065   -2.196274   -0.727738
 H    1.504369   -2.642741   -0.574816
 H    1.254938   -3.066150   -2.782899
 H    2.826598   -2.271391   -2.661271
 H    1.840669   -4.817975    0.521690
 H    0.613268   -4.683645   -0.755022
 H    2.840617   -4.294078   -4.173669
 H    3.997941   -4.433505   -2.830289
 H    3.417836   -5.903321   -1.024395
 H    1.860575   -6.751571   -1.126204
 H    2.920613   -0.705108    0.549586
 H    1.827817   -1.513057    3.166393
 H    0.948051    0.855071    3.221495
 H    1.556741    1.113019    1.594928
 H    3.907686    0.650807    2.501081
 H    3.214115    0.580317    4.117981
 H    3.537511    2.788374    1.108141
 H    2.801020    2.613828    5.331787
 H    3.615532    5.261159    1.225679
 H    2.869330    5.081557    5.450268
 H    3.279831    6.416081    3.395982
 H   -0.716927   -0.305857    2.955939
 H   -2.037934   -2.277396    1.226468
 H   -3.098555   -0.264723    3.268269
 H   -4.156076   -1.053758    2.104718
 H   -4.335153   -2.136654    4.211425
 H   -2.075965   -1.673176    5.186400
 H   -2.570351   -3.363065    5.359334
 H   -1.378595   -2.914936    4.128870
 H   -3.993388   -4.484189    3.558883
 H   -4.566929   -3.548052    2.167294
 H   -2.860754   -4.013204    2.290768
 H   -2.865223   -1.705249   -0.662294
 H   -3.473413   -0.574977   -2.494542
 H   -4.075050    1.812844   -2.477762
 H   -3.389787    2.010959   -0.859730
 H   -4.537714    1.316334    1.103536
 H   -6.167095    0.391084   -2.749553
 H   -6.674298    0.631991    2.174204
 H   -8.294516   -0.297615   -1.692691
 H   -8.557850   -0.173214    0.773086
 H   -1.113435    1.617049   -0.869975
 H    0.190971    1.895869   -3.511070
 H    1.443808    3.749186   -2.480502
 H    0.875582    3.306441   -0.874346
 H   -1.433298    3.968049   -1.504904
 H   -1.418403    3.470729   -3.952985
 H   -0.210872    4.744970   -4.208136
 H   -1.845645    5.161755   -3.666614
 H   -0.998349    6.409231   -1.646594
 H    0.666753    6.093692   -2.162257
 H    0.145310    5.639351   -0.530402
 H    1.540669    0.778214   -1.042264
 H    3.058860    2.465087   -1.995617
 H    2.767319    0.879730   -4.605409
 H    3.994454    2.133551   -4.320188
 H    2.280915    2.567064   -4.366178
 H    4.991367    0.943819   -2.473633
 H    3.858522   -0.410230   -2.583127
 H    4.338786    1.201130   -0.305275
 H    0.469332   -0.307620   -3.204277
