114 
4qwk_ligand_dft.xyz
 C    2.183773   -2.826572    1.573292
 O    1.445236   -3.622497    2.128517
 C    3.108708   -3.272115    0.442140
 N    2.425119   -3.114515   -0.884734
 O    2.142047   -5.607324   -2.293353
 C    3.322893   -3.516366   -2.021888
 C    1.105863   -3.834512   -1.017448
 C    3.414818   -5.032877   -2.144881
 C    1.320628   -5.327840   -1.180922
 N    2.215943   -1.500029    1.844029
 C    1.090030   -0.894320    2.522762
 C   -0.188341   -1.248394    1.746599
 O   -0.144846   -1.554688    0.558421
 C    1.213247    0.636313    2.509582
 C    2.485563    1.199632    3.159543
 C    2.716561    2.625142    2.715387
 C    3.714686    2.926124    1.788473
 C    1.893375    3.660605    3.164657
 C    3.890099    4.221846    1.311241
 C    2.064141    4.958923    2.694353
 C    3.060756    5.243007    1.763017
 N   -1.355019   -1.105690    2.405375
 C   -2.604920   -1.107671    1.660317
 C   -2.428735   -0.142844    0.479990
 O   -2.075234    1.018787    0.679859
 C   -3.794131   -0.649145    2.511601
 C   -4.322662   -1.643067    3.562196
 C   -3.333735   -1.933172    4.696557
 C   -4.818202   -2.945124    2.926821
 N   -2.693518   -0.661774   -0.734014
 C   -2.439107    0.008188   -2.004494
 C   -0.930080    0.173565   -2.250923
 O   -0.368527   -0.469430   -3.147506
 C   -3.225423    1.325981   -2.162580
 C   -4.698303    1.117258   -1.908791
 C   -5.246118    1.403669   -0.656391
 C   -5.524262    0.585104   -2.899885
 C   -6.591934    1.159173   -0.399226
 C   -6.870497    0.339980   -2.646170
 C   -7.407259    0.624264   -1.393413
 N   -0.286611    1.058748   -1.473697
 C    1.047655    1.573889   -1.764498
 C    1.188816    2.958421   -1.117241
 C    0.055028    3.946873   -1.436479
 C   -0.163861    4.103093   -2.942660
 C    0.354520    5.295445   -0.779295
 C    2.148985    0.599680   -1.312431
 C    3.575009    1.133080   -1.522997
 C    3.847800    1.534457   -2.975494
 C    4.601680    0.083137   -1.102465
 O    4.420000   -0.388790    0.238479
 O    2.031959   -0.656644   -1.985494
 H    3.354635   -4.321876    0.594057
 H    4.018373   -2.669195    0.397734
 H    2.213586   -2.097936   -1.052482
 H    2.881861   -3.084746   -2.922722
 H    4.302308   -3.062905   -1.855028
 H    0.498424   -3.589236   -0.148975
 H    0.634678   -3.409106   -1.907368
 H    3.986742   -5.278332   -3.042085
 H    3.940984   -5.469026   -1.281279
 H    1.739808   -5.765379   -0.262253
 H    0.357453   -5.805817   -1.367619
 H    2.813832   -0.914655    1.265053
 H    1.028984   -1.279227    3.546989
 H    0.329501    1.066568    2.991633
 H    1.159019    0.967723    1.466814
 H    3.352559    0.588564    2.884433
 H    2.399933    1.136666    4.250520
 H    4.363071    2.130130    1.431340
 H    1.115162    3.450703    3.894584
 H    4.676352    4.434528    0.592792
 H    1.418518    5.752707    3.057481
 H    3.191238    6.255826    1.395561
 H   -1.359176   -0.762513    3.354210
 H   -2.782058   -2.121875    1.285216
 H   -3.526826    0.305449    2.982643
 H   -4.610141   -0.424392    1.812900
 H   -5.192298   -1.144472    4.009505
 H   -2.950242   -1.007390    5.144833
 H   -3.824036   -2.499060    5.494709
 H   -2.485463   -2.533884    4.348529
 H   -5.330349   -3.564675    3.669411
 H   -5.522375   -2.749713    2.110383
 H   -3.988096   -3.541595    2.528743
 H   -2.805788   -1.662483   -0.779702
 H   -2.775367   -0.685595   -2.777568
 H   -3.052294    1.685812   -3.183293
 H   -2.831419    2.080786   -1.479385
 H   -4.609798    1.823677    0.118984
 H   -5.112199    0.368957   -3.883472
 H   -7.007798    1.395129    0.576076
 H   -7.503100   -0.066032   -3.429665
 H   -8.458624    0.438934   -1.196619
 H   -0.794401    1.414482   -0.665991
 H    1.113223    1.670056   -2.854915
 H    2.131134    3.405222   -1.454409
 H    1.280302    2.847761   -0.027008
 H   -0.876899    3.569470   -0.994874
 H   -0.500445    3.170548   -3.408935
 H    0.761705    4.418057   -3.441363
 H   -0.924251    4.863870   -3.145107
 H   -0.462371    6.003785   -0.950336
 H    1.271457    5.735330   -1.191070
 H    0.493358    5.185573    0.300982
 H    1.998460    0.414736   -0.244065
 H    3.701343    2.004092   -0.869293
 H    3.589925    0.715980   -3.655247
 H    4.904052    1.780998   -3.125357
 H    3.267528    2.413825   -3.269431
 H    5.615963    0.479803   -1.221552
 H    4.511393   -0.789905   -1.755036
 H    5.002857    0.103258    0.827215
 H    1.217224   -0.647463   -2.547671
