114 
4qwr_ligand_xtb.xyz
 C    1.690134   -2.109261    2.383003
 O    0.870108   -2.236829    3.267721
 C    2.223074   -3.327412    1.605305
 N    1.335482   -3.672388    0.470682
 O   -0.033050   -6.158547    0.942875
 C    1.738790   -4.942248   -0.183053
 C   -0.112143   -3.748077    0.799667
 C    1.341432   -6.157757    0.662110
 C   -0.418951   -4.990105    1.630574
 N    2.216406   -0.937399    2.001833
 C    1.542237    0.279103    2.409314
 C    0.090277    0.151965    1.921568
 O   -0.197117   -0.649104    1.042823
 C    2.191917    1.505447    1.771702
 C    3.643529    1.698820    2.221173
 C    4.299234    2.832212    1.476657
 C    4.461082    2.774649    0.097036
 C    4.753633    3.956998    2.150678
 C    5.063425    3.811088   -0.591813
 C    5.360831    4.995676    1.465705
 C    5.517870    4.925507    0.092774
 N   -0.799504    0.963204    2.490875
 C   -2.188112    0.961199    2.054427
 C   -2.154736    0.828006    0.525788
 O   -1.576449    1.661256   -0.153354
 C   -2.903456    2.258284    2.439005
 C   -3.487006    2.292252    3.859609
 C   -2.432821    2.077530    4.943877
 C   -4.629111    1.290690    4.022032
 N   -2.814316   -0.231593    0.037927
 C   -2.851773   -0.642608   -1.359072
 C   -1.455271   -1.018546   -1.868952
 O   -1.184352   -2.191892   -2.133936
 C   -3.523523    0.426808   -2.242044
 C   -4.892562    0.732600   -1.697978
 C   -5.093862    1.851717   -0.901236
 C   -5.958571   -0.124508   -1.939562
 C   -6.338173    2.109256   -0.352452
 C   -7.203865    0.133939   -1.395136
 C   -7.395036    1.249120   -0.596554
 N   -0.602091   -0.014278   -2.023300
 C    0.680137   -0.097484   -2.708445
 C    1.080955    1.325867   -3.101750
 C    0.046462    2.053166   -3.974673
 C   -0.197030    1.326906   -5.295208
 C    0.536012    3.475539   -4.240870
 C    1.725668   -0.814482   -1.827530
 C    3.169294   -0.742246   -2.369115
 C    3.278367   -1.332843   -3.772676
 C    4.111401   -1.513867   -1.432323
 O    4.164721   -0.981946   -0.121933
 O    1.382457   -2.190710   -1.697585
 H    2.272951   -4.163028    2.305132
 H    3.219780   -3.117500    1.214054
 H    1.414931   -2.914686   -0.287870
 H    1.222809   -4.992143   -1.144107
 H    2.815500   -4.937517   -0.355637
 H   -0.409354   -2.841183    1.324364
 H   -0.654491   -3.797784   -0.147993
 H    1.539941   -7.071871    0.100014
 H    1.923579   -6.192209    1.595064
 H    0.072557   -4.930171    2.610943
 H   -1.494753   -5.072757    1.786993
 H    2.844497   -0.894854    1.203902
 H    1.557496    0.344896    3.503080
 H    1.613695    2.394006    2.030257
 H    2.147558    1.396932    0.685808
 H    4.204344    0.775919    2.053257
 H    3.663649    1.904762    3.292326
 H    4.104580    1.912461   -0.452214
 H    4.636770    4.019478    3.222822
 H    5.180983    3.749595   -1.663723
 H    5.711803    5.861148    2.006553
 H    5.991536    5.733584   -0.442490
 H   -0.532580    1.607138    3.218107
 H   -2.699133    0.095248    2.490930
 H   -2.207155    3.087586    2.297871
 H   -3.726146    2.405196    1.735868
 H   -3.904240    3.296575    3.989692
 H   -1.623578    2.800017    4.849909
 H   -2.883494    2.213884    5.923775
 H   -2.026533    1.068913    4.905040
 H   -5.136692    1.457171    4.968300
 H   -5.356646    1.400779    3.221068
 H   -4.262713    0.266518    4.020514
 H   -3.216374   -0.877043    0.697260
 H   -3.450787   -1.557356   -1.398124
 H   -3.589915    0.039983   -3.260261
 H   -2.922462    1.334889   -2.246887
 H   -4.272200    2.530885   -0.721844
 H   -5.814511   -0.993239   -2.566191
 H   -6.485136    2.986048    0.261109
 H   -8.027447   -0.534447   -1.595931
 H   -8.366567    1.450853   -0.172096
 H   -0.838378    0.870873   -1.570470
 H    0.535916   -0.714538   -3.603587
 H    2.020014    1.300561   -3.653457
 H    1.237801    1.904718   -2.187682
 H   -0.902011    2.117000   -3.433722
 H   -0.662655    0.356931   -5.138961
 H    0.738001    1.184164   -5.832916
 H   -0.860552    1.914924   -5.923719
 H   -0.198908    4.026065   -4.821597
 H    1.469068    3.460365   -4.799795
 H    0.701152    4.008458   -3.307469
 H    1.690746   -0.355977   -0.827003
 H    3.484203    0.305585   -2.379050
 H    2.879262   -2.343613   -3.781823
 H    4.318842   -1.370051   -4.084682
 H    2.730718   -0.735949   -4.494923
 H    5.116026   -1.538482   -1.866724
 H    3.757810   -2.541710   -1.331243
 H    4.655477   -0.150370   -0.146444
 H    0.430480   -2.293701   -1.981771
