87 
4qwx_ligand_xtb.xyz
 C   -3.628490   -0.884720   -0.300036
 O   -3.390989   -1.811095   -1.052272
 C   -3.700452    0.556049   -0.835785
 N   -2.500330    0.831722   -1.657327
 O   -3.146538    2.304116   -4.034578
 C   -2.210751    2.275226   -1.811299
 C   -2.534563    0.194993   -2.998966
 C   -3.199237    2.929359   -2.777511
 C   -3.479054    0.939871   -3.943078
 N   -3.838777   -1.010060    1.017087
 C   -3.628580   -2.250887    1.777434
 C   -2.103202   -2.440442    1.812671
 O   -1.451716   -2.088383    2.787096
 C   -4.417308   -3.435814    1.236676
 N   -1.538517   -2.895805    0.689839
 C   -0.124012   -2.648012    0.462467
 C    0.402369   -3.417675   -0.749707
 C    1.864324   -3.101942   -0.929703
 C    2.833002   -3.807122   -0.232316
 C    4.175811   -3.489546   -0.343886
 C    4.574794   -2.435618   -1.160851
 O    5.853035   -2.025040   -1.339488
 C    6.893210   -2.743945   -0.716481
 C    3.601487   -1.720763   -1.864198
 C    2.269759   -2.054839   -1.750838
 C    0.001618   -1.136768    0.209982
 O   -0.497572   -0.644393   -0.799826
 N    0.611948   -0.448444    1.171266
 C    0.952614    0.969119    1.138131
 C   -0.271102    1.893471    1.412777
 O   -1.480990    1.312063    0.963307
 C   -0.420552    2.322436    2.887734
 C    0.759037    3.151530    3.384357
 C   -0.677984    1.123191    3.810814
 O   -1.885883    0.470896    3.432275
 C    1.641904    1.326334   -0.192187
 C    2.294667    2.677495   -0.102145
 C    3.459162    2.837542    0.639682
 C    4.052548    4.080361    0.762758
 C    3.488503    5.183567    0.143644
 C    2.335291    5.033784   -0.606029
 C    1.743238    3.787996   -0.726710
 H   -3.724231    1.270647   -0.014002
 H   -4.603585    0.660130   -1.441342
 H   -1.676445    0.395345   -1.144204
 H   -1.206004    2.361135   -2.230769
 H   -2.230075    2.750636   -0.831528
 H   -1.519733    0.227720   -3.398611
 H   -2.836534   -0.846026   -2.883386
 H   -4.221115    2.898165   -2.371484
 H   -2.922400    3.971610   -2.942669
 H   -4.526159    0.825045   -3.625971
 H   -3.380626    0.533854   -4.950562
 H   -3.981620   -0.181477    1.573699
 H   -3.948977   -2.041772    2.801918
 H   -4.180536   -4.319376    1.822714
 H   -4.194733   -3.633168    0.193390
 H   -5.482000   -3.235617    1.327309
 H   -2.114083   -3.028825   -0.134410
 H    0.421466   -2.936403    1.365924
 H   -0.161773   -3.108613   -1.631520
 H    0.254349   -4.485550   -0.586424
 H    2.540772   -4.629708    0.404503
 H    4.898776   -4.070691    0.205508
 H    6.906151   -3.789024   -1.039033
 H    6.816130   -2.698272    0.374312
 H    7.814710   -2.258482   -1.032068
 H    3.923427   -0.913223   -2.502520
 H    1.532446   -1.499588   -2.311513
 H    0.921820   -0.968863    1.977863
 H    1.679845    1.126530    1.936607
 H   -0.120488    2.802540    0.817494
 H   -1.822710    0.839182    1.753256
 H   -1.320399    2.948217    2.921658
 H    0.510763    3.614382    4.335336
 H    1.646237    2.541583    3.533033
 H    0.999922    3.935762    2.671294
 H   -0.773160    1.478540    4.843941
 H    0.162071    0.423653    3.769106
 H   -1.777458   -0.489937    3.554143
 H    2.395762    0.562283   -0.397915
 H    0.911192    1.307305   -0.999870
 H    3.911281    1.977792    1.113282
 H    4.958543    4.188840    1.338999
 H    3.950777    6.153689    0.238431
 H    1.896361    5.887003   -1.100837
 H    0.848698    3.680440   -1.325681
