35 
4qxq_ligand_xtb.xyz
 O   -0.381097   -3.550316    0.377668
 C   -0.241816   -2.359054    0.162504
 C   -1.359922   -1.411863    0.093703
 C   -2.668742   -1.862924    0.280461
 C   -3.720318   -0.983120    0.215879
 C   -3.505359    0.374701   -0.026629
 C   -4.669048    1.312673   -0.090582
 C   -2.209931    0.855289   -0.206333
 C   -1.957399    2.309752   -0.457272
 C   -1.142792   -0.051649   -0.154411
 O    0.105768    0.453149   -0.359454
 C    1.173532   -0.368257   -0.307155
 C    1.077691   -1.737770   -0.050959
 C    2.240955   -2.509480    0.000315
 C    3.473360   -1.931435   -0.196184
 C    3.563255   -0.566664   -0.454197
 C    2.431556    0.224265   -0.521762
 C    2.491029    1.701931   -0.788569
 C    1.969837    2.502490    0.401603
 O    2.427411    2.095378    1.594675
 O    1.226994    3.433507    0.304401
 H   -2.816084   -2.914547    0.471751
 H   -4.729726   -1.340336    0.355879
 H   -4.668766    1.861034   -1.031230
 H   -5.606233    0.770116   -0.001454
 H   -4.614230    2.042959    0.716300
 H   -2.308495    2.587811   -1.451106
 H   -2.495177    2.917820    0.267107
 H   -0.901089    2.547154   -0.384210
 H    2.132053   -3.564474    0.199388
 H    4.370923   -2.528224   -0.153918
 H    4.532720   -0.116810   -0.616629
 H    1.881507    1.963993   -1.655303
 H    3.520855    2.013429   -0.980280
 H    2.993817    1.313022    1.522922
