35 
4qxq_ligand_ani.xyz
 O   -0.478394   -3.552756    0.455135
 C   -0.308375   -2.371576    0.200774
 C   -1.418299   -1.399579    0.124579
 C   -2.741715   -1.797305    0.334611
 C   -3.765128   -0.873343    0.250223
 C   -3.506938    0.474842   -0.044301
 C   -4.657992    1.444952   -0.127801
 C   -2.195236    0.901362   -0.253442
 C   -1.829180    2.329685   -0.579015
 C   -1.170550   -0.056683   -0.164130
 O    0.087367    0.417069   -0.376164
 C    1.149539   -0.426512   -0.329885
 C    1.026593   -1.790706   -0.061459
 C    2.180276   -2.585300   -0.044671
 C    3.419767   -2.019207   -0.286329
 C    3.522351   -0.644723   -0.540064
 C    2.401408    0.170234   -0.556739
 C    2.482639    1.663392   -0.744825
 C    2.091706    2.489290    0.483442
 O    2.352175    1.942926    1.686668
 O    1.634856    3.598304    0.401431
 H   -2.935510   -2.841258    0.561393
 H   -4.793608   -1.188899    0.412580
 H   -5.609338    0.930114    0.031068
 H   -4.573263    2.233222    0.629390
 H   -4.700026    1.933397   -1.107894
 H   -1.367542    2.404650   -1.572531
 H   -2.697496    2.994442   -0.564467
 H   -1.087945    2.724122    0.125936
 H    2.068447   -3.645610    0.160956
 H    4.314567   -2.635215   -0.274086
 H    4.498551   -0.200169   -0.717359
 H    1.834223    2.007088   -1.557006
 H    3.510062    1.947161   -1.007822
 H    2.685653    1.039677    1.577462
