34 
4qye_ligand_ani.xyz
 O   -5.748043   -2.314133   -0.117700
 C   -5.604990   -1.119589   -0.097093
 O   -6.686640   -0.308409   -0.110473
 C   -4.262139   -0.454760   -0.056649
 C   -3.164770   -1.189255   -0.506748
 C   -1.895237   -0.637644   -0.483088
 C   -1.699597    0.658882    0.000172
 C   -2.793864    1.381641    0.484256
 C   -4.065592    0.829299    0.457071
 C   -0.329886    1.233769    0.005260
 N    0.686363    0.369584    0.034873
 C    1.926008    0.863993    0.052388
 C    2.141342    2.246481    0.042251
 N    1.136613    3.118008   -0.011060
 C   -0.093576    2.611995   -0.035108
 C    3.036682   -0.127554    0.108345
 C    4.326020    0.209871   -0.294373
 C    5.348727   -0.731899   -0.213909
 O    6.589444   -0.340470   -0.616389
 C    5.086802   -2.014969    0.265017
 C    3.794036   -2.348272    0.654286
 C    2.768303   -1.417314    0.574848
 H   -6.417826    0.610868   -0.242110
 H   -3.329959   -2.200399   -0.866309
 H   -1.036614   -1.202489   -0.832013
 H   -2.660243    2.377350    0.899387
 H   -4.892744    1.401636    0.875167
 H    3.142192    2.667548    0.095605
 H   -0.913119    3.323463   -0.106055
 H    4.565955    1.191031   -0.695203
 H    7.204136   -1.075444   -0.500639
 H    5.887322   -2.749758    0.329951
 H    3.587044   -3.350103    1.021126
 H    1.755337   -1.670800    0.869337
