48 
4qyh_ligand_ani.xyz
 N   -7.255312    4.031621    0.264994
 C   -6.880032    2.939076    0.201438
 C   -6.341995    1.600376    0.122201
 N   -7.238060    0.588529    0.078699
 C   -6.783340   -0.649624    0.005017
 C   -5.410687   -0.952025   -0.029956
 N   -4.838191   -2.179617   -0.104698
 C   -3.526630   -1.929013   -0.104918
 C   -4.961487    1.433227    0.095836
 C   -4.479068    0.136090    0.018618
 C   -3.198243   -0.518779   -0.030601
 C   -1.871051   -0.140134   -0.028970
 C   -0.895681   -1.135338   -0.077672
 C   -1.329305   -2.486123   -0.145753
 N   -2.579004   -2.892056   -0.169004
 C    0.539170   -0.807979   -0.064912
 C    1.034340    0.267437   -0.803250
 C    2.380101    0.600152   -0.780889
 C    3.283139   -0.138465   -0.002560
 C    2.790112   -1.232736    0.722302
 C    1.445824   -1.556574    0.691042
 N    4.643952    0.194255    0.115317
 C    5.071475    1.499160   -0.368538
 C    6.433655    1.857170    0.207241
 N    7.439703    0.802374   -0.164284
 C    8.796421    1.135812    0.285894
 C    6.971360   -0.532561    0.350135
 C    5.605134   -0.849035   -0.235302
 H   -7.515054   -1.451088   -0.028372
 H   -4.316006    2.302782    0.135960
 H   -1.585217    0.904783    0.042864
 H   -0.582417   -3.275572   -0.209619
 H    0.350976    0.848039   -1.419108
 H    2.728275    1.438430   -1.375457
 H    3.475843   -1.814262    1.332472
 H    1.084381   -2.398380    1.276763
 H    4.345510    2.256258   -0.061368
 H    5.148315    1.521210   -1.473604
 H    6.382293    1.903244    1.298554
 H    6.775963    2.824528   -0.168621
 H    7.446941    0.742583   -1.200663
 H    9.109038    2.093309   -0.137703
 H    8.814317    1.215285    1.378935
 H    9.496326    0.353295   -0.016996
 H    6.917219   -0.472087    1.440727
 H    7.705320   -1.295013    0.076567
 H    5.708369   -0.939166   -1.333192
 H    5.258730   -1.814604    0.136281
