48 
4qyh_ligand_xtb.xyz
 N   -7.099144    4.040052    0.112236
 C   -6.768544    2.938260    0.087376
 C   -6.280334    1.615737    0.055194
 N   -7.185348    0.617119    0.043007
 C   -6.767412   -0.625263    0.015236
 C   -5.409171   -0.962633   -0.000931
 N   -4.831056   -2.184281   -0.025375
 C   -3.516183   -1.956361   -0.038705
 C   -4.897013    1.419383    0.037460
 C   -4.452050    0.113218    0.010908
 C   -3.186689   -0.538837   -0.018397
 C   -1.872911   -0.148557   -0.006816
 C   -0.889712   -1.147705   -0.015751
 C   -1.323664   -2.491128   -0.046377
 N   -2.564760   -2.900849   -0.063139
 C    0.519247   -0.812058   -0.010222
 C    0.983806    0.348894   -0.640838
 C    2.320480    0.685591   -0.641198
 C    3.243010   -0.127057    0.004113
 C    2.804300   -1.288536    0.632304
 C    1.470047   -1.626301    0.621078
 N    4.638407    0.186176    0.070888
 C    5.024655    1.564865   -0.058033
 C    6.415624    1.721481    0.559007
 N    7.374837    0.845820   -0.162665
 C    8.751471    1.016117    0.321632
 C    6.920836   -0.567339   -0.089692
 C    5.516263   -0.672316   -0.684179
 H   -7.535957   -1.387401    0.005444
 H   -4.220123    2.264462    0.047155
 H   -1.598898    0.898647    0.058696
 H   -0.583630   -3.283855   -0.100705
 H    0.283751    0.985925   -1.159285
 H    2.638262    1.584311   -1.152143
 H    3.519577   -1.917665    1.144747
 H    1.145213   -2.519715    1.131483
 H    4.314877    2.183812    0.491594
 H    5.055044    1.918208   -1.107365
 H    6.387806    1.407946    1.603502
 H    6.757723    2.755669    0.496848
 H    7.332987    1.116499   -1.153800
 H    9.062617    2.054282    0.218408
 H    8.804014    0.736813    1.372613
 H    9.433661    0.384618   -0.244817
 H    6.896243   -0.862184    0.960387
 H    7.626113   -1.199834   -0.631004
 H    5.552163   -0.405592   -1.759081
 H    5.161665   -1.699927   -0.606362
