87 
4qz1_ligand_xtb.xyz
 C   -3.804591   -0.215857   -0.359842
 O   -3.698000   -0.858442   -1.386169
 C   -3.630786    1.315418   -0.361072
 N   -2.428179    1.691854   -1.137103
 O   -2.958907    3.913547   -2.877178
 C   -1.955366    3.066331   -0.852813
 C   -2.584312    1.529717   -2.605736
 C   -2.883255    4.103472   -1.486944
 C   -3.458751    2.637037   -3.195165
 N   -4.092454   -0.742855    0.838480
 C   -4.139133   -2.184868    1.122595
 C   -2.669143   -2.634221    1.122680
 O   -2.059291   -2.758310    2.174916
 C   -5.058987   -2.963711    0.192808
 N   -2.087429   -2.761892   -0.076860
 C   -0.641265   -2.677513   -0.163167
 C   -0.096231   -3.227757   -1.485097
 C    1.374236   -2.909056   -1.561871
 C    2.292061   -3.610125   -0.793251
 C    3.634390   -3.271466   -0.784892
 C    4.085838   -2.203124   -1.554960
 O    5.365164   -1.760976   -1.605516
 C    6.362534   -2.472139   -0.907841
 C    3.167543   -1.501879   -2.340849
 C    1.834385   -1.853447   -2.341675
 C   -0.280712   -1.186326   -0.061914
 O   -0.835751   -0.379996   -0.803485
 N    0.604035   -0.874138    0.882736
 C    1.181058    0.443969    1.127773
 C    0.229579    1.382943    1.919843
 O   -1.086783    1.339822    1.401247
 C    0.200762    1.158849    3.446565
 C    1.559307    1.392142    4.099485
 C   -0.353545   -0.217348    3.838466
 O   -1.671317   -0.374177    3.328355
 C    1.621128    1.103757   -0.193712
 C    2.727130    2.092632    0.046920
 C    4.031502    1.638392    0.203519
 C    5.062157    2.527142    0.447647
 C    4.800873    3.884224    0.540832
 C    3.506826    4.346807    0.379750
 C    2.476493    3.455158    0.133180
 H   -3.505299    1.686924    0.655859
 H   -4.522574    1.763455   -0.805612
 H   -1.672437    1.008918   -0.835602
 H   -0.965100    3.170227   -1.301932
 H   -1.871058    3.200899    0.224885
 H   -1.587183    1.582538   -3.045856
 H   -3.009495    0.546051   -2.804923
 H   -3.885116    4.062367   -1.034844
 H   -2.476302    5.104571   -1.337571
 H   -4.500358    2.540746   -2.855007
 H   -3.447582    2.568171   -4.283628
 H   -4.100278   -0.145124    1.650522
 H   -4.500067   -2.283961    2.150289
 H   -5.018546   -4.017138    0.455312
 H   -4.782380   -2.848028   -0.849606
 H   -6.081292   -2.615217    0.316829
 H   -2.605436   -2.492740   -0.905947
 H   -0.227961   -3.232289    0.683864
 H   -0.625900   -2.750169   -2.310879
 H   -0.269451   -4.303627   -1.527541
 H    1.960110   -4.445887   -0.193825
 H    4.316876   -3.847541   -0.180844
 H    6.423531   -3.510913   -1.244445
 H    6.193117   -2.447133    0.173521
 H    7.297729   -1.964605   -1.136347
 H    3.531831   -0.686524   -2.945611
 H    1.139229   -1.302208   -2.958067
 H    1.005052   -1.640054    1.401573
 H    2.074770    0.281959    1.733435
 H    0.601317    2.400974    1.746706
 H   -1.535005    0.660059    1.945428
 H   -0.502716    1.905726    3.833443
 H    1.445386    1.457825    5.177924
 H    2.249478    0.579396    3.887094
 H    1.998757    2.320060    3.743042
 H   -0.376975   -0.292119    4.933014
 H    0.297528   -1.012076    3.460694
 H   -1.856553   -1.325573    3.229387
 H    1.977791    0.318720   -0.863531
 H    0.764682    1.590489   -0.658692
 H    4.240047    0.581682    0.115059
 H    6.071633    2.161974    0.559584
 H    5.604396    4.578969    0.730062
 H    3.298344    5.404255    0.441359
 H    1.470377    3.828543   -0.004282
