87 
4qz4_ligand_xtb.xyz
 C   -3.802987   -0.211568   -0.360431
 O   -3.697305   -0.855499   -1.385941
 C   -3.626803    1.319383   -0.363521
 N   -2.423510    1.692791   -1.139955
 O   -2.950517    3.913887   -2.881767
 C   -1.948109    3.066639   -0.856897
 C   -2.580166    1.529547   -2.608372
 C   -2.874207    4.104930   -1.491707
 C   -3.452695    2.637979   -3.198593
 N   -4.091895   -0.736674    0.838509
 C   -4.141473   -2.178320    1.124069
 C   -2.672292   -2.630215    1.124842
 O   -2.062601   -2.753484    2.177293
 C   -5.062641   -2.956187    0.194730
 N   -2.090879   -2.760976   -0.074498
 C   -0.644600   -2.678746   -0.160870
 C   -0.100292   -3.230703   -1.482335
 C    1.369994   -2.911486   -1.560608
 C    2.288668   -3.610240   -0.790986
 C    3.630805   -3.270774   -0.784160
 C    4.081153   -2.203795   -1.556812
 O    5.360104   -1.760690   -1.608638
 C    6.358230   -2.469437   -0.909636
 C    3.162033   -1.505073   -2.343931
 C    1.829099   -1.857538   -2.343324
 C   -0.282170   -1.187947   -0.060790
 O   -0.834868   -0.381540   -0.804116
 N    0.601374   -0.875791    0.884938
 C    1.180131    0.441769    1.128923
 C    0.229276    1.383204    1.918735
 O   -1.086880    1.340491    1.399616
 C    0.199548    1.161985    3.445800
 C    1.558202    1.394358    4.098848
 C   -0.356821   -0.212650    3.840149
 O   -1.674529   -0.368863    3.329668
 C    1.622534    1.099286   -0.192932
 C    2.729962    2.086472    0.048112
 C    4.033112    1.629923    0.207912
 C    5.064912    2.516856    0.453558
 C    4.805981    3.874518    0.544996
 C    3.513232    4.339432    0.380438
 C    2.481725    3.449568    0.132477
 H   -3.500726    1.692003    0.652939
 H   -4.517801    1.768363   -0.808744
 H   -1.669070    1.008631   -0.837892
 H   -0.957712    3.168400   -1.306256
 H   -1.863598    3.201880    0.220718
 H   -1.583003    1.580202   -3.048704
 H   -3.007094    0.546420   -2.806634
 H   -3.876088    4.066018   -1.039465
 H   -2.465388    5.105406   -1.343321
 H   -4.494464    2.543796   -2.858233
 H   -3.441688    2.568217   -4.287001
 H   -4.098563   -0.138006    1.649885
 H   -4.502862   -2.275626    2.151778
 H   -5.025094   -4.009337    0.458852
 H   -4.784938   -2.842753   -0.847686
 H   -6.084125   -2.604760    0.317529
 H   -2.608422   -2.491997   -0.903942
 H   -0.232041   -3.233342    0.686620
 H   -0.630605   -2.754389   -2.308402
 H   -0.273220   -4.306682   -1.523220
 H    1.957644   -4.444846   -0.189430
 H    4.314045   -3.845175   -0.179435
 H    6.420753   -3.508591   -1.244737
 H    6.188505   -2.443157    0.171632
 H    7.292803   -1.960985   -1.138563
 H    3.525499   -0.690840   -2.950700
 H    1.133339   -1.308287   -2.960767
 H    0.999965   -1.641454    1.405993
 H    2.072968    0.279244    1.735748
 H    0.602094    2.400559    1.743864
 H   -1.536184    0.662315    1.944942
 H   -0.502994    1.910599    3.831015
 H    1.443649    1.463950    5.176975
 H    2.246560    0.579239    3.889705
 H    2.000091    2.320026    3.739598
 H   -0.380944   -0.285148    4.934823
 H    0.293348   -1.009051    3.464372
 H   -1.860296   -1.320156    3.231009
 H    1.978595    0.312971   -0.861593
 H    0.767382    1.586953   -0.659330
 H    4.239711    0.572680    0.120876
 H    6.073393    2.149805    0.568259
 H    5.610376    4.567821    0.735647
 H    3.306669    5.397379    0.440664
 H    1.476610    3.824810   -0.007406
