87 
4qz6_ligand_xtb.xyz
 C   -3.801779   -0.205242   -0.365377
 O   -3.695516   -0.852798   -1.388639
 C   -3.621651    1.325250   -0.373260
 N   -2.416263    1.692637   -1.149341
 O   -2.933172    3.911805   -2.896578
 C   -1.935416    3.065107   -0.869049
 C   -2.572053    1.526847   -2.617574
 C   -2.856633    4.105760   -1.506993
 C   -3.440120    2.637177   -3.210791
 N   -4.094126   -0.725776    0.834692
 C   -4.146898   -2.166368    1.125173
 C   -2.678678   -2.621390    1.129145
 O   -2.070285   -2.742196    2.182622
 C   -5.068338   -2.945731    0.197414
 N   -2.096364   -2.757635   -0.069169
 C   -0.649750   -2.678932   -0.154503
 C   -0.105879   -3.234366   -1.474728
 C    1.364060   -2.914212   -1.555716
 C    2.284754   -3.611630   -0.787293
 C    3.626830   -3.271746   -0.784017
 C    4.074962   -2.205598   -1.559147
 O    5.353764   -1.762646   -1.615605
 C    6.353978   -2.469897   -0.918085
 C    3.153652   -1.507662   -2.344343
 C    1.820925   -1.860617   -2.340277
 C   -0.284460   -1.188703   -0.056390
 O   -0.831925   -0.383185   -0.804314
 N    0.595076   -0.876232    0.893055
 C    1.176760    0.440203    1.135892
 C    0.225812    1.386142    1.920325
 O   -1.088890    1.344365    1.397408
 C    0.191143    1.169755    3.448042
 C    1.548808    1.400379    4.103823
 C   -0.370226   -0.202229    3.844651
 O   -1.687599   -0.355661    3.332173
 C    1.625278    1.093172   -0.186059
 C    2.736933    2.075463    0.055292
 C    4.037628    1.612810    0.217430
 C    5.073588    2.495206    0.462058
 C    4.821345    3.854373    0.550063
 C    3.530955    4.325280    0.383650
 C    2.495297    3.439900    0.136615
 H   -3.496022    1.700971    0.642067
 H   -4.510939    1.774883   -0.821153
 H   -1.664578    1.006395   -0.844949
 H   -0.944175    3.161498   -1.317747
 H   -1.851260    3.202566    0.208260
 H   -1.574322    1.573037   -3.057084
 H   -3.002325    0.544885   -2.814094
 H   -3.858808    4.072279   -1.054934
 H   -2.443495    5.104789   -1.360749
 H   -4.482402    2.547740   -2.870657
 H   -3.429176    2.564952   -4.299077
 H   -4.100947   -0.124446    1.644100
 H   -4.509890   -2.259530    2.152726
 H   -5.032239   -3.998202    0.464431
 H   -4.789832   -2.835608   -0.845083
 H   -6.089530   -2.592980    0.318447
 H   -2.612496   -2.489904   -0.899927
 H   -0.239057   -3.233022    0.694193
 H   -0.637348   -2.761200   -2.301925
 H   -0.277789   -4.310618   -1.512106
 H    1.955342   -4.445701   -0.184119
 H    4.311715   -3.845136   -0.180122
 H    6.416119   -3.509567   -1.251775
 H    6.186868   -2.442160    0.163592
 H    7.287751   -1.961298   -1.150157
 H    3.515326   -0.693651   -2.952543
 H    1.123374   -1.311824   -2.956112
 H    0.988219   -1.641449    1.418874
 H    2.067172    0.276463    1.745971
 H    0.601278    2.402239    1.743582
 H   -1.541143    0.669150    1.944021
 H   -0.510356    1.921421    3.829251
 H    1.431935    1.473659    5.181468
 H    2.235424    0.582700    3.898804
 H    1.994224    2.323690    3.742721
 H   -0.396650   -0.272252    4.939450
 H    0.278153   -1.001457    3.471736
 H   -1.875216   -1.306808    3.234828
 H    1.979161    0.304010   -0.852494
 H    0.773573    1.583954   -0.655349
 H    4.239123    0.554446    0.132843
 H    6.080167    2.123502    0.578347
 H    5.629059    4.544178    0.739363
 H    3.329615    5.384291    0.441334
 H    1.492161    3.819667   -0.005264
