87 
4qzx_ligand_xtb.xyz
 C   -3.628673   -0.876461   -0.301632
 O   -3.392719   -1.805987   -1.050558
 C   -3.695738    0.562642   -0.842337
 N   -2.492491    0.832604   -1.661148
 O   -3.127800    2.301826   -4.043197
 C   -2.198036    2.274872   -1.817451
 C   -2.525229    0.192979   -3.001415
 C   -3.182000    2.929922   -2.787625
 C   -3.464938    0.938868   -3.949630
 N   -3.841271   -0.996832    1.015564
 C   -3.635510   -2.235481    1.780512
 C   -2.110788   -2.429941    1.817419
 O   -1.458565   -2.076304    2.790748
 C   -4.427787   -3.419848    1.243638
 N   -1.547271   -2.891937    0.696676
 C   -0.131711   -2.650352    0.468979
 C    0.391876   -3.423966   -0.741873
 C    1.853872   -3.109757   -0.924083
 C    2.822438   -3.811027   -0.222702
 C    4.165264   -3.494318   -0.336168
 C    4.564389   -2.445035   -1.159171
 O    5.842778   -2.035830   -1.340079
 C    6.882946   -2.751820   -0.713427
 C    3.591201   -1.734208   -1.866596
 C    2.259438   -2.067453   -1.751261
 C    0.000377   -1.140025    0.213645
 O   -0.494669   -0.647629   -0.798073
 N    0.611231   -0.452405    1.175170
 C    0.956424    0.963930    1.140687
 C   -0.266014    1.892584    1.406726
 O   -1.476367    1.311126    0.958546
 C   -0.417567    2.330235    2.878883
 C    0.762750    3.159587    3.373264
 C   -0.679549    1.136692    3.808141
 O   -1.888686    0.485542    3.431460
 C    1.654610    1.315714   -0.186491
 C    2.303603    2.668845   -0.099028
 C    3.457852    2.837793    0.656631
 C    4.046585    4.083041    0.777511
 C    3.488268    5.179783    0.142041
 C    2.345629    5.021145   -0.621775
 C    1.757944    3.772983   -0.739858
 H   -3.720480    1.280047   -0.023079
 H   -4.596644    0.666780   -1.451136
 H   -1.671214    0.394933   -1.145006
 H   -1.191968    2.356654   -2.234527
 H   -2.218215    2.752518   -0.838809
 H   -1.509221    0.221385   -3.398468
 H   -2.830727   -0.846838   -2.884284
 H   -4.205054    2.902655   -2.384319
 H   -2.901432    3.970916   -2.954172
 H   -4.513223    0.828109   -3.634962
 H   -3.365230    0.530344   -4.955975
 H   -3.982718   -0.165979    1.569160
 H   -3.955904   -2.021627    2.804013
 H   -4.194336   -4.301977    1.833168
 H   -4.205218   -3.621810    0.201274
 H   -5.491885   -3.215830    1.332928
 H   -2.122906   -3.025745   -0.127345
 H    0.412741   -2.939316    1.372899
 H   -0.172918   -3.116612   -1.623809
 H    0.243012   -4.491283   -0.575752
 H    2.530291   -4.630067    0.418728
 H    4.888313   -4.072368    0.216221
 H    6.895009   -3.798920   -1.029579
 H    6.806803   -2.699406    0.377195
 H    7.804500   -2.268934   -1.032713
 H    3.912955   -0.930357   -2.509604
 H    1.522100   -1.515398   -2.314956
 H    0.916574   -0.972444    1.983779
 H    1.679712    1.120765    1.942756
 H   -0.112444    2.797738    0.806207
 H   -1.820247    0.843345    1.750628
 H   -1.316303    2.957969    2.907375
 H    0.513428    3.628775    4.320881
 H    1.648228    2.548580    3.527549
 H    1.007162    3.938784    2.655936
 H   -0.775183    1.497976    4.839138
 H    0.158601    0.434634    3.771686
 H   -1.782324   -0.475122    3.556260
 H    2.411527    0.552118   -0.382577
 H    0.929926    1.290515   -0.999411
 H    3.905768    1.983192    1.143363
 H    4.944484    4.198456    1.365066
 H    3.946905    6.151823    0.235255
 H    1.911526    5.869218   -1.129546
 H    0.871502    3.658301   -1.349389
