58 
4r06_ligand_ani.xyz
 C   -7.236873   -1.720988    1.791298
 C   -7.593536   -2.439161    0.654379
 C   -7.115460   -2.037013   -0.590200
 C   -6.281846   -0.927509   -0.696616
 C   -5.911142   -0.202473    0.439106
 C   -6.404662   -0.610056    1.679700
 C   -4.998759    1.006416    0.336290
 C   -5.570739    2.114794   -0.568697
 C   -6.959035    2.565459   -0.125674
 N   -3.674984    0.583120   -0.097743
 C   -2.568967    1.338628    0.134243
 C   -1.262299    0.728771   -0.276448
 O   -2.633586    2.457358    0.627985
 C   -0.207718    1.623200   -0.552784
 C    1.034078    1.172846   -0.957038
 C    1.214692   -0.204714   -1.055394
 C    0.190489   -1.121331   -0.759662
 C   -1.063820   -0.640802   -0.365420
 N    2.344879   -0.951786   -1.404162
 C    2.015588   -2.306133   -1.338162
 C    0.723915   -2.442483   -0.951596
 S    3.856928   -0.371284   -1.866684
 O    3.678093    0.609900   -2.923272
 O    4.676354   -1.554472   -2.074907
 C    4.419514    0.510925   -0.419551
 C    4.611176    1.863252   -0.555086
 C    4.968656    2.650580    0.558952
 C    5.125400    2.074773    1.788981
 C    4.960551    0.671612    1.954283
 C    4.638652   -0.142878    0.837021
 C    5.127855    0.071711    3.234961
 C    5.009318   -1.280922    3.393840
 C    4.730918   -2.099540    2.277473
 C    4.560487   -1.548902    1.031940
 H   -7.605413   -2.023984    2.768626
 H   -8.242315   -3.307593    0.735753
 H   -7.388699   -2.591677   -1.484644
 H   -5.925318   -0.627260   -1.682085
 H   -6.127342   -0.049926    2.571812
 H   -4.880897    1.437201    1.337785
 H   -5.600465    1.752706   -1.603770
 H   -4.860556    2.948051   -0.545799
 H   -6.935201    2.962423    0.896183
 H   -7.342804    3.351006   -0.783895
 H   -7.664393    1.726180   -0.144565
 H   -3.582288   -0.302605   -0.570149
 H   -0.399183    2.684804   -0.439973
 H    1.832636    1.866466   -1.194018
 H   -1.843182   -1.349576   -0.092328
 H    2.772722   -3.031705   -1.610703
 H    0.182998   -3.369309   -0.814742
 H    4.473911    2.326812   -1.527058
 H    5.106529    3.719926    0.425964
 H    5.386394    2.675601    2.656918
 H    5.356358    0.713817    4.082965
 H    5.137785   -1.733421    4.374563
 H    4.657595   -3.175090    2.406022
 H    4.385520   -2.192298    0.178145
