29 
4r0a_ligand_ani.xyz
 N    0.831339   -0.103395   -0.386882
 C    1.667742   -1.160878   -0.069179
 N    2.981514   -0.822558    0.109093
 C    3.552555    0.459520    0.061744
 C    2.583704    1.509017   -0.231626
 C    1.293870    1.200007   -0.440675
 O    1.261817   -2.312279    0.038349
 O    4.740696    0.609996    0.255284
 C   -0.564092   -0.443838   -0.653235
 C   -1.345265   -0.851027    0.606552
 C   -2.754067   -0.345430    0.291026
 C   -2.491076    0.892623   -0.563347
 O   -1.370597   -2.242320    0.791573
 O   -3.427660   -1.296312   -0.501019
 O   -1.222988    0.672070   -1.195836
 C   -2.445635    2.194673    0.211726
 O   -1.486157    2.077021    1.246475
 H    3.603875   -1.590628    0.327741
 H    2.946019    2.527171   -0.284144
 H    0.530107    1.933579   -0.670585
 H   -0.565990   -1.272735   -1.370914
 H   -0.935737   -0.330058    1.482153
 H   -3.321899   -0.119095    1.206538
 H   -3.248187    0.965109   -1.350472
 H   -0.469489   -2.570769    0.599129
 H   -3.057299   -2.154782   -0.236174
 H   -2.189651    3.007350   -0.483851
 H   -3.450097    2.393423    0.618179
 H   -1.478936    2.899677    1.750404
