14 
4r17_ligand_dft.xyz
 C   -1.142802    0.277155    0.299853
 C   -1.499180   -1.154061    0.009948
 O    1.672975   -0.692380   -0.547713
 C    1.410603   -0.184179    0.512606
 C    0.234979    0.769405    0.614192
 N   -0.350422    1.031365   -0.720782
 H   -1.941686    0.894060    0.702640
 H   -1.782331   -1.635564    0.949932
 H   -0.673468   -1.714520   -0.433118
 H   -2.359943   -1.192527   -0.662222
 H    1.972153   -0.381722    1.436844
 H    0.339272    1.640229    1.254462
 H    0.105855    0.479567   -1.458535
 H   -0.612303    1.980035   -0.982425
