16 
4r18_ligand_ani.xyz
 N    0.491919    1.406932   -0.310515
 C    0.123336    0.334175    0.676869
 C    1.024151   -0.841854    0.310101
 O    1.977875   -0.669414   -0.415339
 C   -1.365998   -0.033607    0.647378
 C   -1.889326   -0.501900   -0.710072
 H   -0.218301    1.440066   -1.059774
 H    1.396831    1.084185   -0.715649
 H    0.590296    2.333821    0.129355
 H    0.399230    0.662171    1.680921
 H    0.788089   -1.844447    0.713723
 H   -1.955413    0.818817    1.005410
 H   -1.511779   -0.834137    1.380868
 H   -2.888051   -0.936709   -0.600242
 H   -1.981530    0.312214   -1.438857
 H   -1.238786   -1.270074   -1.145096
