37 
4r3b_ligand_ani.xyz
 O   -2.366933   -1.507690    1.347640
 C   -3.203860   -1.828597    0.231056
 C   -3.136433   -0.755455   -0.863917
 C   -4.002950    0.482273   -0.609429
 O   -3.406680    1.350253    0.353718
 C   -1.699418   -0.385183   -1.253701
 N   -0.996016    0.277609   -0.123565
 C    0.446306    0.562160   -0.312807
 C    0.758879    1.970132    0.206368
 O    1.850042    2.390668    0.509889
 O   -0.344885    2.736210    0.266262
 C    1.373673   -0.534844    0.305604
 C    0.991062   -1.924317   -0.221469
 C    1.361443   -0.544885    1.841591
 S    3.074781   -0.267868   -0.306567
 O    3.001556   -0.175340   -1.759123
 O    3.943550   -1.232541    0.352861
 H   -2.403586   -2.238900    1.975935
 H   -4.247258   -1.936152    0.561719
 H   -2.877903   -2.785043   -0.202968
 H   -3.579905   -1.230471   -1.748650
 H   -4.999272    0.161387   -0.267775
 H   -4.122906    1.015702   -1.564785
 H   -3.906756    2.173925    0.382403
 H   -1.156723   -1.292613   -1.545862
 H   -1.708483    0.280371   -2.127061
 H   -1.159323   -0.321664    0.702052
 H   -1.517927    1.148383    0.077695
 H    0.651921    0.594748   -1.388931
 H   -0.067209    3.609645    0.589432
 H    0.973609   -1.946986   -1.316965
 H    1.723621   -2.663520    0.116644
 H    0.011143   -2.234107    0.159614
 H    0.360616   -0.815202    2.204130
 H    2.065087   -1.293474    2.217184
 H    1.622191    0.429405    2.267770
 H    3.369272    0.947019    0.168695
