59 
4r4o_ligand_ani.xyz
 C   -4.819221   -3.591123    0.231720
 C   -6.188753   -1.614474    0.058889
 C   -3.033193    1.448693    0.141318
 C   -0.670183    1.956382    0.139483
 C    2.861075    2.716597    2.479608
 C    3.945488    1.887061    1.826825
 C    5.653139    0.180814    1.959242
 C    7.106647   -0.346790    0.021781
 C    8.822373   -1.633397   -0.602932
 O   -8.464315    2.300888   -2.272635
 C   -7.324626    2.979665   -2.077191
 C   -6.227628    2.180690   -1.457652
 N   -6.418295    0.907925   -1.131336
 N   -5.248211    0.492709   -0.610444
 C   -5.071942   -0.881531   -0.330305
 C   -3.832615   -1.499370   -0.468390
 C   -3.710343   -2.853954   -0.186088
Cl   -2.156054   -3.594413   -0.359834
Cl   -4.700933   -5.277876    0.601776
 C   -6.055573   -2.961192    0.350314
 C   -4.327682    1.514753   -0.555604
 C   -1.902902    1.960660   -0.493695
 C   -0.545127    1.449891    1.437816
 C    0.765707    1.444015    2.152657
 N    1.543456    2.508547    1.894040
 C    4.632582    0.912044    2.549094
 C    6.007817    0.403140    0.626251
 C    7.943220   -1.330128    0.474097
 C    8.461217   -0.815006   -1.636776
 C    8.945708   -0.600039   -3.022939
 O    9.988409   -1.371315   -3.400101
 O    8.462459    0.198713   -3.777842
 O    7.421710   -0.038823   -1.258393
 C    5.295518    1.359355   -0.111453
 C    4.273866    2.082538    0.483155
 S    1.199045    0.222367    3.191455
 C   -1.674954    0.933899    2.073294
 C   -2.906357    0.946234    1.442299
 C   -4.931397    2.607516   -1.139312
 O   -7.199199    4.137919   -2.377006
 H   -7.148984   -1.114673    0.123932
 H    0.201380    2.325882   -0.395260
 H    3.086829    3.783747    2.391102
 H    2.809565    2.474069    3.545319
 H    6.182610   -0.566773    2.543638
 H    9.612791   -2.371544   -0.577867
 H   -8.341993    1.387516   -1.957993
 H   -2.958396   -0.936078   -0.777636
 H   -6.916937   -3.540852    0.666285
 H   -1.998632    2.368449   -1.497031
 H    1.141766    3.261023    1.352519
 H    4.358537    0.719680    3.584736
 H    7.940666   -1.790257    1.453076
 H   10.260161   -1.958351   -2.682141
 H    5.544250    1.539367   -1.153205
 H    3.725213    2.818398   -0.102592
 H   -1.575778    0.526284    3.075134
 H   -3.780567    0.545150    1.944833
 H   -4.520762    3.595032   -1.284197
