65 
4r4q_ligand_ani.xyz
 C   -4.362446   -2.517036   -2.190252
 C   -5.816315   -0.855632   -1.219826
 C   -2.851253    1.226693    1.270953
 C   -0.507454    1.487650    1.796917
 C    1.391617   -2.835718    2.980660
 C    1.221383   -2.767263    4.486929
 C    1.377626   -1.729842    0.816254
 C    3.870043   -2.067535    0.673587
 C    5.360888   -0.342939   -0.157415
 O   -6.907205    5.015149    0.854927
 C   -6.991550    3.974364    0.257693
 C   -5.915862    2.940882    0.277206
 N   -6.059399    1.799964   -0.386688
 N   -4.925870    1.109963   -0.161207
 C   -4.705509   -0.098615   -0.860588
 C   -3.424273   -0.519909   -1.203832
 C   -3.257413   -1.734472   -1.855402
Cl   -1.642997   -2.251275   -2.222165
Cl   -4.190526   -4.037802   -2.998729
 C   -5.640080   -2.063336   -1.873120
 C   -4.080641    1.788829    0.688429
 C   -1.695541    2.002685    1.293255
 C   -0.451067    0.190886    2.308188
 C    0.848025   -0.388408    2.829589
 N    1.145080   -1.694134    2.260430
 O    1.722440   -3.879776    2.435710
 C    2.761980   -1.252004    0.436229
 C    5.147670   -1.617711    0.377771
 C    6.723001    0.106683   -0.435347
 C    7.955707   -0.466744   -0.264728
 C    8.913303    0.484003   -0.717149
 C    8.208157    1.567947   -1.131738
 C    8.646865    2.858801   -1.694253
 O    9.812362    3.109576   -1.863827
 O    7.671312    3.731901   -2.003256
 O    6.871697    1.352067   -0.965878
 C    4.247170    0.473261   -0.404870
 C    2.971025    0.016734   -0.109191
 C   -1.623274   -0.566465    2.331290
 C   -2.811091   -0.051574    1.840129
 C   -4.688918    2.996698    0.952287
 O   -8.063033    3.648388   -0.479649
 H   -6.806558   -0.484174   -0.979910
 H    0.388142    2.104999    1.787281
 H    1.400419   -3.768103    4.879415
 H    1.934723   -2.073386    4.943034
 H    0.209574   -2.450351    4.758129
 H    0.612936   -1.101133    0.345302
 H    1.222829   -2.767833    0.499375
 H    3.723620   -3.059071    1.094491
 H   -2.551418    0.072951   -0.953584
 H   -6.499528   -2.666817   -2.147115
 H   -1.727349    3.009679    0.884146
 H    0.812696   -0.470212    3.918350
 H    1.666952    0.300580    2.585865
 H    5.995202   -2.270374    0.567283
 H    8.170377   -1.447604    0.137478
 H    9.991231    0.397610   -0.740331
 H    6.807346    3.341955   -1.792294
 H    4.370182    1.466731   -0.824866
 H    2.117939    0.664615   -0.304943
 H   -1.614477   -1.576794    2.727833
 H   -3.715333   -0.652864    1.853893
 H   -4.330914    3.801667    1.575630
 H   -7.918600    2.767769   -0.869140
