59 
4r4t_ligand_ani.xyz
 C    4.928032    0.830538    0.411075
 C    4.038772   -1.536854    1.575944
 C    1.891883   -0.476758    2.279097
 C   -2.097445    0.262146    2.852972
 C   -3.194936    0.465594    2.030399
 C   -3.148504    1.430352    1.017815
 C   -0.892380    1.979456    1.693387
 C   -4.886399    2.949454   -0.098072
 O   10.356568    1.531677   -2.787514
 C    9.233172    1.625895   -2.364228
 C    8.657686    0.606914   -1.466692
 O    8.430343    2.658281   -2.678891
 C    9.175119   -0.545598   -0.968392
 C    8.155312   -1.125097   -0.161868
 C    7.079512   -0.279467   -0.222916
 O    7.382304    0.784753   -1.015822
 C    5.754570   -0.303674    0.389667
 C    3.689313    0.780495    1.028847
 C    3.229394   -0.401447    1.622792
 C    5.287296   -1.483463    0.978730
 N    1.519939    0.644014    2.922134
 S    0.957079   -1.846138    2.217109
 C    0.252786    0.798661    3.621765
 C   -0.932121    1.013869    2.699533
 C   -1.991649    2.193549    0.877296
 C   -4.296379    1.728246    0.145217
 C   -6.067053    2.652210   -0.806066
 N   -6.191718    1.348724   -1.011341
 N   -5.092074    0.794220   -0.475311
 C   -4.839136   -0.578747   -0.713466
 C   -3.542744   -1.072582   -0.819660
 C   -3.346352   -2.424160   -1.073936
 C   -4.438563   -3.281321   -1.215297
 C   -5.730030   -2.768967   -1.119519
 C   -5.934656   -1.419965   -0.885253
Cl   -4.230791   -4.973048   -1.516749
Cl   -1.724409   -3.011244   -1.209346
 C   -7.145715    3.578338   -1.279881
 O   -6.748187    4.854241   -1.488845
 O   -8.282199    3.245308   -1.457032
 H    5.255510    1.764003   -0.036855
 H    3.681493   -2.462358    2.018845
 H   -2.145961   -0.498657    3.628607
 H   -4.092639   -0.132573    2.155019
 H    0.001072    2.582047    1.557250
 H   -4.534423    3.902263    0.273382
 H    7.570990    2.547747   -2.240194
 H   10.171280   -0.917126   -1.167173
 H    8.229968   -2.041975    0.407178
 H    3.065389    1.670938    1.017582
 H    5.902606   -2.378110    0.956593
 H    2.215723    1.367486    3.036605
 H    0.371159    1.647138    4.303769
 H    0.073415   -0.093596    4.229760
 H   -1.956535    2.957802    0.104482
 H   -2.684715   -0.420026   -0.693983
 H   -6.575175   -3.439057   -1.241293
 H   -6.933004   -0.998205   -0.838556
 H   -5.787385    4.924965   -1.400422
