44 
4r5t_ligand_dft.xyz
 C   -4.767400   -2.926234   -1.311288
 C   -4.608053   -1.818917   -0.273412
 C   -5.610086   -0.694483   -0.527582
 C   -4.717700   -2.381971    1.141976
 O   -3.243952   -1.350882   -0.516183
 C   -2.722665   -0.343686    0.188346
 O   -3.277925    0.285815    1.080753
 N   -1.450575   -0.092409   -0.217229
 C   -0.618104    0.889223    0.469653
 C   -0.982210    2.294888   -0.037360
 O   -0.430581    2.888392   -0.958653
 N   -2.013241    2.855414    0.636365
 O   -2.552804    4.003231    0.069392
 C    0.842843    0.543642    0.311054
 C    1.560685    0.061700    1.405969
 C    2.893938   -0.304806    1.287119
 C    1.485461    0.637223   -0.925267
 C    2.814427    0.257342   -1.060825
 C    3.522250   -0.202427    0.048347
 N    4.883772   -0.569133   -0.071181
 N    5.431001   -1.431197    0.811738
 C    6.695260   -1.541972    0.436775
 C    6.982621   -0.747638   -0.694099
 C    5.790574   -0.133803   -0.989022
 H   -4.655415   -2.524179   -2.322744
 H   -5.759752   -3.378563   -1.223166
 H   -4.014783   -3.706229   -1.161257
 H   -5.455114   -0.264398   -1.522354
 H   -6.625403   -1.101906   -0.485530
 H   -5.517128    0.094424    0.219748
 H   -5.702439   -2.841424    1.275443
 H   -4.593470   -1.595494    1.888282
 H   -3.956297   -3.151985    1.303495
 H   -1.044925   -0.668249   -0.938831
 H   -0.881931    0.843740    1.531362
 H   -2.727482    2.247283    1.033830
 H   -1.931223    4.165195   -0.669542
 H    1.073865   -0.024521    2.373600
 H    3.454928   -0.675118    2.136376
 H    0.950325    1.026162   -1.783916
 H    3.289540    0.308875   -2.034708
 H    7.358489   -2.191209    0.991732
 H    7.924283   -0.631542   -1.208642
 H    5.528295    0.589499   -1.745810
