43 
4r5v_ligand_xtb.xyz
 C   -2.950977   -3.104751   -0.089713
 C   -3.783284   -1.855967    0.222262
 C   -5.184991   -2.015587   -0.368202
 C   -3.887050   -1.641709    1.737101
 C   -3.130890   -0.624790   -0.410492
 O   -3.704400    0.104280   -1.202948
 N   -1.861642   -0.385943   -0.027138
 C   -1.068249    0.703048   -0.578293
 C   -1.475225    2.020611    0.115624
 O   -0.828032    2.598559    0.971612
 N   -2.638153    2.491718   -0.343254
 O   -3.181544    3.621941    0.274800
 C    0.396648    0.426489   -0.404190
 C    0.930458    0.268748    0.869320
 C    2.278994    0.025514    1.045882
 C    1.239538    0.332871   -1.504610
 C    2.586803    0.087026   -1.339232
 C    3.118577   -0.064470   -0.060281
 N    4.486273   -0.308039    0.071310
 N    5.228712   -0.577040   -1.007826
 C    6.456569   -0.753238   -0.577889
 C    6.529899   -0.592652    0.816653
 C    5.244381   -0.308245    1.197658
 H   -1.965851   -3.065458    0.370616
 H   -3.463095   -3.987518    0.286967
 H   -2.823295   -3.216212   -1.164174
 H   -5.126899   -2.145243   -1.445671
 H   -5.681659   -2.879776    0.065433
 H   -5.781033   -1.128920   -0.169575
 H   -4.419375   -2.475735    2.189142
 H   -2.907205   -1.573384    2.205401
 H   -4.436244   -0.728029    1.953958
 H   -1.414176   -0.965587    0.663732
 H   -1.324888    0.792244   -1.640848
 H   -3.304778    1.938202   -0.880083
 H   -2.482349    3.900592    0.899349
 H    0.293093    0.360318    1.735407
 H    2.666166   -0.093456    2.045104
 H    0.837823    0.456072   -2.499389
 H    3.250879    0.008889   -2.184511
 H    7.243817   -0.986657   -1.266713
 H    7.395808   -0.673289    1.440595
 H    4.841531   -0.097556    2.166306
