45 
4r6e_ligand_ani.xyz
 C    5.443301   -0.617411   -0.892541
 C    5.657332   -1.177165    0.519887
 C    5.959665   -0.052838    1.509152
 N    4.907290    1.008173    1.412517
 C    4.928566    1.609321    0.046856
 C    4.446728    0.553864   -0.959021
 C    2.985012    0.174135   -0.731698
 C    2.526263   -1.141404   -0.634961
 C    1.180218   -1.434662   -0.452373
 C    2.021428    1.188663   -0.658269
 C    0.675112    0.914419   -0.480728
 C    0.246609   -0.405394   -0.372025
 N   -1.135958   -0.673699   -0.189292
 C   -1.730852   -1.876536   -0.044394
 N   -2.009688    0.349818   -0.150661
 C   -3.218043   -0.217123    0.024261
 C   -3.091243   -1.642860    0.097329
 C   -4.225308   -2.474781    0.276836
 C   -5.456704   -1.879452    0.380628
 C   -5.592565   -0.474041    0.311854
 C   -4.516828    0.370384    0.138674
 C   -4.811469    1.842102    0.088603
 O   -5.955203    2.260225    0.207739
 N   -3.747998    2.662786   -0.095458
 H    6.409482   -0.245413   -1.261633
 H    5.143830   -1.410264   -1.587466
 H    4.770086   -1.728528    0.856597
 H    6.484820   -1.894626    0.517908
 H    6.927729    0.389976    1.253599
 H    6.014897   -0.419715    2.533852
 H    3.971960    0.538281    1.495587
 H    5.032829    1.719114    2.148069
 H    4.316099    2.506900    0.038076
 H    5.952783    1.896668   -0.197908
 H    4.514022    1.001021   -1.960548
 H    3.216144   -1.977811   -0.705442
 H    0.880129   -2.474087   -0.380430
 H    2.330635    2.227788   -0.739189
 H   -0.044509    1.721819   -0.421326
 H   -1.172515   -2.803025   -0.045914
 H   -4.113984   -3.554359    0.329380
 H   -6.346263   -2.487707    0.518332
 H   -6.570317   -0.010302    0.396171
 H   -2.813659    2.282865   -0.178378
 H   -3.921428    3.654731   -0.119398
