44 
4r6t_ligand_xtb.xyz
 C   -4.897947   -2.900475   -1.142490
 C   -4.692336   -1.712615   -0.202492
 C   -5.604995   -0.552282   -0.595998
 C   -4.922993   -2.128416    1.249288
 O   -3.300043   -1.349741   -0.402309
 C   -2.760356   -0.324396    0.259781
 O   -3.315137    0.398041    1.064049
 N   -1.463660   -0.175541   -0.093988
 C   -0.595637    0.817551    0.518048
 C   -0.879807    2.194772   -0.121446
 O   -0.170736    2.755705   -0.938197
 N   -2.007020    2.744677    0.342247
 O   -2.443678    3.938466   -0.240360
 C    0.847595    0.436734    0.354705
 C    1.667334    0.261616    1.462670
 C    2.996683   -0.072884    1.307695
 C    1.387434    0.274084   -0.915497
 C    2.718220   -0.058338   -1.081213
 C    3.534228   -0.233464    0.032311
 N    4.883424   -0.570321   -0.086187
 N    5.598963   -0.870666    1.002937
 C    6.815054   -1.136411    0.585771
 C    6.908163   -1.005990   -0.810600
 C    5.647379   -0.642005   -1.206343
 H   -4.705584   -2.601387   -2.169349
 H   -5.918179   -3.263126   -1.063489
 H   -4.213892   -3.703927   -0.882734
 H   -5.379051   -0.224670   -1.608557
 H   -6.641448   -0.874395   -0.553666
 H   -5.469013    0.284439    0.083351
 H   -5.945282   -2.474218    1.371731
 H   -4.754371   -1.285515    1.913808
 H   -4.242802   -2.932953    1.520828
 H   -1.077966   -0.788912   -0.793694
 H   -0.862091    0.881804    1.580084
 H   -2.732894    2.226916    0.832296
 H   -1.711609    4.180119   -0.842545
 H    1.262178    0.389729    2.455339
 H    3.642398   -0.214685    2.158925
 H    0.769211    0.428498   -1.786071
 H    3.110010   -0.178429   -2.078516
 H    7.580015   -1.409211    1.285127
 H    7.770705   -1.156496   -1.426237
 H    5.266360   -0.425280   -2.182300
