72 
4r91_ligand_xtb.xyz
 C   -2.638573   -0.804587    1.179879
 C   -0.136176   -0.734895    1.905710
 C    0.954671    2.292508   -0.226445
 C   -1.070761    1.668825   -1.062951
 C    0.812550    0.774658   -0.066594
 C    0.468081    0.601647    1.434566
 N   -0.253882    2.729141   -0.750204
 C    2.000323   -0.048946   -0.560951
 C   -0.586797    4.123364   -0.913139
 N   -2.310373    1.634858   -1.373470
 N   -0.397530    0.498533   -0.830263
 O    1.845211    3.013750    0.118791
 N   -3.234092   -0.592823   -0.178497
 C   -1.230360   -1.424047    1.068378
 C    3.296337    0.204145    0.210692
 C   -4.724723   -0.568704   -0.230122
 C    4.532226   -0.359165   -0.500489
 C   -1.969908    0.335457    3.333388
 C   -2.645456    0.500350    1.964636
 C   -0.710885   -0.550157    3.313795
 C   -5.311874   -1.970960    0.021559
 C   -5.176193   -0.183532   -1.644414
 C    4.520559   -1.888134   -0.556714
 C    5.799490    0.113588    0.216007
 C    7.051863   -0.413157   -0.477411
 C   -6.052170   -2.362225   -1.265905
 C   -5.391595   -1.518939   -2.352073
 C    5.773631   -2.418132   -1.249239
 C    7.029947   -1.936749   -0.532249
 H   -3.288962   -1.512768    1.702551
 H    0.689469   -1.451041    1.961256
 H    1.388770    0.760156    1.995782
 H   -0.197866    1.417667    1.712035
 H    2.166428    0.196607   -1.614171
 H    1.729532   -1.105544   -0.498086
 H   -0.810377    4.346772   -1.957134
 H   -1.441714    4.390700   -0.288953
 H    0.282025    4.699586   -0.598167
 H   -2.755083    2.531166   -1.521485
 H   -0.348880   -0.170836   -1.581671
 H   -2.930629   -1.354968   -0.789822
 H   -2.876108    0.329802   -0.644918
 H   -1.283519   -2.449078    1.442183
 H   -0.919101   -1.486642    0.030206
 H    3.428495    1.279760    0.332303
 H    3.230540   -0.245403    1.203063
 H   -5.059091    0.160038    0.508455
 H    4.552868    0.028102   -1.525564
 H   -2.687994   -0.097353    4.030201
 H   -1.724594    1.327945    3.710664
 H   -2.148203    1.269987    1.377782
 H   -3.671557    0.832908    2.128611
 H   -0.957344   -1.537165    3.707371
 H    0.045846   -0.122908    3.970206
 H   -5.980484   -1.979813    0.879529
 H   -4.513288   -2.687068    0.219684
 H   -4.458170    0.461841   -2.145898
 H   -6.125845    0.346493   -1.583865
 H    4.476884   -2.283451    0.461171
 H    3.638109   -2.242448   -1.094568
 H    5.781545   -0.242689    1.248639
 H    5.821429    1.204924    0.239673
 H    7.099677   -0.014071   -1.493076
 H    7.939282   -0.071266    0.057435
 H   -5.989942   -3.429452   -1.463997
 H   -7.104820   -2.094135   -1.187930
 H   -4.439449   -1.957204   -2.657761
 H   -6.014832   -1.422432   -3.236806
 H    5.748887   -3.509459   -1.268255
 H    5.790593   -2.066392   -2.283446
 H    7.044612   -2.337350    0.483802
 H    7.917071   -2.304750   -1.049822
