72 
4r93_ligand_xtb.xyz
 C    0.692812   -0.892265   -0.331717
 C    1.846201    0.052882    0.015587
 N    1.819851    0.011842    1.457361
 C    0.692123   -0.585662    1.936236
 N    0.079105   -1.212409    0.834766
 O    0.391937   -1.293627   -1.432529
 C    3.147739   -0.553648   -0.542479
 C    0.347504    2.157898    0.053787
 C    4.416412    0.143718   -0.058034
 C    5.697566   -0.492978   -0.610986
 C   -0.952935    1.734603   -0.627456
 C   -2.144945    2.376182    0.087064
 C   -2.043939    3.895363   -0.001197
 C   -0.728814    4.361977    0.617736
 C    0.468029    3.681933   -0.043966
 C    5.972708   -1.864014    0.008922
 C    7.263996   -2.465798   -0.538447
 C    8.444640   -1.538173   -0.273561
 C    8.184974   -0.170664   -0.895601
 C    6.892828    0.427801   -0.348505
 N    0.344926   -0.563194    3.146499
 N   -3.406719    1.911280   -0.455853
 C   -3.955496    0.739691   -0.012547
 C    1.578893    1.465422   -0.545913
 C   -1.110886   -2.021978    0.921943
 O   -3.521393    0.139171    0.949298
 N   -5.056469    0.358044   -0.743205
 C   -5.896440   -0.740668   -0.548310
 C   -5.655353   -1.720776    0.409357
 C   -6.527775   -2.785739    0.537888
 C   -7.642296   -2.892846   -0.275990
 C   -7.883559   -1.919220   -1.230623
 C   -7.018583   -0.851333   -1.368192
 H    2.284635    0.702870    2.019623
 H    3.092645   -0.526628   -1.631750
 H    3.175308   -1.600939   -0.237084
 H    0.277429    1.898541    1.116251
 H    4.397698    1.190270   -0.368939
 H    4.449762    0.116182    1.032831
 H    5.586156   -0.615084   -1.694378
 H   -1.075000    0.653466   -0.608782
 H   -0.937689    2.049577   -1.674825
 H   -2.140433    2.060797    1.135999
 H   -2.082563    4.198420   -1.051098
 H   -2.887216    4.355697    0.516274
 H   -0.639552    5.445410    0.517367
 H   -0.732103    4.123579    1.683362
 H    0.523550    3.974371   -1.095200
 H    1.386049    4.015831    0.444449
 H    6.055184   -1.756228    1.093197
 H    5.145069   -2.543764   -0.198318
 H    7.162004   -2.622923   -1.614822
 H    7.442268   -3.438248   -0.074646
 H    9.359472   -1.969135   -0.685635
 H    8.582921   -1.425832    0.804327
 H    8.104250   -0.276082   -1.980054
 H    9.020674    0.500697   -0.686338
 H    6.994189    0.583108    0.728470
 H    6.716334    1.402138   -0.810672
 H   -0.505103   -1.071081    3.356083
 H   -3.647863    2.253653   -1.372923
 H    2.457145    2.080504   -0.340650
 H    1.468465    1.380699   -1.628142
 H   -1.264139   -2.481915   -0.053316
 H   -0.981378   -2.798632    1.676948
 H   -1.976199   -1.401794    1.170058
 H   -5.348854    0.976681   -1.486410
 H   -4.793339   -1.637706    1.048360
 H   -6.331175   -3.540248    1.285100
 H   -8.318818   -3.727033   -0.168368
 H   -8.749955   -1.989650   -1.871806
 H   -7.211467   -0.093112   -2.115655
