73 
4r95_ligand_dft.xyz
 C   -1.721039   -0.444286    1.090459
 C   -2.078677   -0.823878   -0.350341
 N   -2.642612   -2.152038   -0.155753
 C   -2.875588   -2.437558    1.171925
 N   -2.221749   -1.430476    1.905858
 O   -1.119138    0.544685    1.450019
 C   -3.098056    0.195293   -0.899659
 C    0.293301   -1.799242   -0.757369
 C   -4.399448    0.296558   -0.102867
 C   -5.415655    1.282874   -0.691671
 C    1.682680   -1.201798   -1.010953
 C    2.806321   -2.130942   -0.529591
 C    2.687707   -3.505666   -1.189569
 C    1.303321   -4.114231   -0.954894
 C    0.186721   -3.177717   -1.422641
 C   -6.775324    1.136169    0.006935
 C   -7.816860    2.116166   -0.539003
 C   -7.321873    3.561315   -0.443307
 C   -5.975262    3.724246   -1.151897
 C   -4.934894    2.739688   -0.609884
 N   -3.547599   -3.433847    1.587644
 N    4.135105   -1.594945   -0.768734
 C   -0.806663   -0.825325   -1.212209
 C   -2.130839   -1.405741    3.344977
 C    4.615551   -0.430532   -0.217877
 C    4.058018    0.094962    0.992819
 C    4.589782    1.234945    1.514349
 N    5.624968    0.138934   -0.848328
 C    6.165444    1.271048   -0.321481
 C    5.679532    1.875436    0.867933
 C    6.279375    3.061616    1.351188
 C    7.331777    3.633330    0.680838
 C    7.820425    3.032898   -0.502125
 C    7.254663    1.882460   -0.993503
 H   -3.293198   -2.542286   -0.820917
 H   -3.322620   -0.075799   -1.940868
 H   -2.592475    1.165994   -0.927541
 H    0.197388   -1.951228    0.329340
 H   -4.866021   -0.695377   -0.040354
 H   -4.179021    0.598689    0.931070
 H   -5.560229    1.034261   -1.755904
 H    1.766305   -0.228522   -0.513174
 H    1.816952   -1.020630   -2.087873
 H    2.691244   -2.281024    0.553315
 H    3.475737   -4.163918   -0.807887
 H    2.854859   -3.392857   -2.271496
 H    1.175075   -4.319600    0.116941
 H    1.228303   -5.078930   -1.468345
 H   -0.791762   -3.619017   -1.211559
 H    0.257245   -3.046759   -2.513194
 H   -6.639111    1.315210    1.084222
 H   -7.135402    0.104850   -0.096339
 H   -8.763896    1.998758    0.000200
 H   -8.021408    1.875422   -1.592032
 H   -7.206898    3.833270    0.615613
 H   -8.062738    4.248566   -0.868010
 H   -6.111663    3.548796   -2.228532
 H   -5.608178    4.751386   -1.044265
 H   -4.723144    2.977881    0.443462
 H   -3.991917    2.866553   -1.153735
 H   -3.587008   -3.462800    2.603651
 H    4.523790   -1.763423   -1.687909
 H   -1.085762   -1.035357   -2.253345
 H   -0.420281    0.200170   -1.191005
 H   -3.124399   -1.320616    3.797650
 H   -1.640460   -2.311075    3.715610
 H   -1.536722   -0.531860    3.616526
 H    3.227209   -0.401123    1.481126
 H    4.183417    1.662753    2.427569
 H    5.892284    3.512268    2.262089
 H    7.790978    4.543284    1.054584
 H    8.654845    3.490038   -1.026526
 H    7.618351    1.410642   -1.900615
