58 
4ra5_ligand_dft.xyz
 C    4.750501    1.104008   -1.129272
 N    3.656509    2.093987   -1.310197
 C    3.183802    2.813461   -0.060855
 C    1.756762    2.213564   -0.221342
 C    0.671116    3.261189   -0.471220
 C    2.261063    1.531176   -1.516555
 N    1.503861    1.236912    0.831415
 C    1.283910    1.821867    2.148259
 C    0.586538    0.177741    0.498242
 C   -0.790513    0.421365    0.471632
 C   -1.704699   -0.570116    0.124083
 N   -3.077427   -0.338904    0.003421
 C   -3.664329    0.971811    0.276404
 C   -3.865025    1.230652    1.774309
 C   -4.997175    1.120460   -0.451891
 O   -5.474147    2.214573   -0.675289
 N   -5.618305   -0.049449   -0.768872
 N   -5.152272   -1.323734   -0.539339
 C   -3.926499   -1.416007   -0.189648
 C   -3.330250   -2.769066    0.061629
 O   -2.038813   -2.859867   -0.531915
 C   -1.203817   -1.852091   -0.177591
 C    0.156016   -2.100740   -0.135045
 C    1.077490   -1.103466    0.203992
 C    2.523872   -1.450816    0.243087
 C    3.311270   -1.182480    1.370425
 C    4.653795   -1.545742    1.401127
 C    5.237164   -2.179029    0.303194
 C    4.464469   -2.455943   -0.820603
 C    3.118263   -2.095413   -0.848238
 H    5.670704    1.641193   -0.893866
 H    4.476521    0.436993   -0.311399
 H    4.864657    0.534431   -2.052044
 H    3.917373    2.746264   -2.050367
 H    3.738457    2.456686    0.806424
 H    3.282450    3.893625   -0.173835
 H    0.433916    3.810895    0.444066
 H    0.991426    3.990709   -1.222867
 H   -0.241498    2.784894   -0.839041
 H    2.285458    0.443093   -1.507600
 H    1.828412    1.902806   -2.445791
 H    0.325964    2.352180    2.255936
 H    1.309492    1.025468    2.895482
 H    2.085850    2.530584    2.384995
 H   -1.147203    1.409372    0.736092
 H   -3.017635    1.738645   -0.159519
 H   -4.290482    2.226118    1.922631
 H   -4.552662    0.491203    2.196707
 H   -2.916269    1.163388    2.315020
 H   -6.554249   -0.004038   -1.145974
 H   -3.950119   -3.537490   -0.395369
 H   -3.244909   -2.955910    1.140811
 H    0.491960   -3.110680   -0.346411
 H    2.860287   -0.712197    2.237492
 H    5.243292   -1.349682    2.291728
 H    6.282500   -2.469950    0.333785
 H    4.904272   -2.963048   -1.673982
 H    2.516806   -2.323208   -1.725202
