35 
4rdn_ligand_dft.xyz
 O    2.240987   -1.762929    1.556438
 C    3.393342   -1.884938    0.748283
 C    3.439524   -0.717629   -0.221072
 O    2.326561   -0.793344   -1.123910
 C    3.364888    0.670119    0.420343
 O    4.022329    1.587142   -0.420158
 C    1.862629    0.955680    0.425072
 O    1.636999    2.337175    0.384559
 C    1.408827    0.221818   -0.855479
 N    0.080381   -0.358333   -0.690633
 C   -0.326058   -1.661373   -0.831871
 N   -1.603890   -1.841775   -0.606333
 C   -2.062138   -0.579181   -0.293139
 C   -3.333200   -0.075527    0.055437
 N   -4.410169   -0.878463    0.141346
 N   -3.460579    1.236246    0.316813
 C   -2.371754    2.009761    0.254554
 N   -1.124651    1.665442   -0.058929
 C   -1.033826    0.350925   -0.335316
 C   -5.745494   -0.391066    0.410356
 H    2.149722   -2.559179    2.090120
 H    3.374192   -2.815093    0.162439
 H    4.315149   -1.878623    1.350832
 H    4.354333   -0.790331   -0.817398
 H    3.789962    0.676957    1.433106
 H    3.518003    2.413085   -0.347624
 H    1.394120    0.481000    1.293732
 H    0.671426    2.453370    0.264878
 H    1.368084    0.929136   -1.692921
 H    0.382625   -2.428537   -1.104064
 H   -4.274375   -1.837558   -0.138841
 H   -2.530392    3.059242    0.489506
 H   -6.375333   -1.235209    0.698429
 H   -5.715563    0.331420    1.228227
 H   -6.185047    0.102613   -0.464705
