35 
4rdn_ligand_ani.xyz
 O    2.749984   -1.707873    1.628989
 C    3.755108   -1.751597    0.636132
 C    3.505537   -0.625716   -0.349970
 O    2.263354   -0.868792   -1.019555
 C    3.387963    0.762892    0.285801
 O    3.899389    1.707121   -0.629301
 C    1.879448    0.940204    0.433312
 O    1.540079    2.299644    0.405072
 C    1.352527    0.179966   -0.787559
 N    0.032764   -0.387923   -0.571602
 C   -0.378633   -1.698794   -0.736879
 N   -1.655426   -1.877969   -0.547617
 C   -2.127895   -0.612446   -0.238307
 C   -3.411015   -0.107481    0.063022
 N   -4.484668   -0.916352    0.097690
 N   -3.556475    1.201577    0.326634
 C   -2.471903    1.975156    0.296876
 N   -1.206701    1.624085    0.031895
 C   -1.101591    0.319441   -0.242145
 C   -5.828563   -0.423735    0.323166
 H    2.769418   -2.532549    2.127911
 H    3.743346   -2.702848    0.085588
 H    4.757995   -1.620537    1.073941
 H    4.302722   -0.615405   -1.101901
 H    3.906258    0.832097    1.255194
 H    3.369313    2.510418   -0.508960
 H    1.522494    0.442847    1.343013
 H    0.565624    2.357138    0.326280
 H    1.319908    0.849883   -1.658391
 H    0.342244   -2.462519   -0.996812
 H   -4.332216   -1.877734   -0.168996
 H   -2.633876    3.022213    0.524828
 H   -6.505367   -1.278213    0.356005
 H   -5.879650    0.119447    1.271677
 H   -6.143020    0.263689   -0.470712
