26 
4re3_ligand_ani.xyz
 C    0.983531   -0.966591    0.121328
 C   -0.335614   -1.555809    0.499711
 N    1.080994    0.328710   -0.291355
 C   -1.439192   -0.854422   -0.276865
 C   -1.357696    0.646158   -0.049391
 C   -0.045132    1.223014   -0.588436
 C    0.184733    2.625369   -0.028593
 C    3.051383   -0.632678   -0.254563
 C    2.419778    0.544875   -0.548336
 N    2.140745   -1.577379    0.158286
 O   -2.710365   -1.286489    0.161431
 O   -0.411253   -2.934100    0.225320
 O   -2.404246    1.321646   -0.713351
 O    0.265822    2.542880    1.379342
 H   -0.516131   -1.370076    1.575793
 H   -1.304708   -1.067834   -1.350188
 H   -1.401553    0.825551    1.036525
 H   -0.149775    1.302821   -1.677193
 H   -0.656469    3.255986   -0.348944
 H    1.106853    3.046730   -0.457819
 H    4.107781   -0.859773   -0.324390
 H    2.776725    1.494597   -0.920041
 H   -2.719519   -2.249554    0.071993
 H    0.479194   -3.295118    0.353293
 H   -3.223904    0.888642   -0.436260
 H    0.258916    3.437719    1.737654
