24 
4re4_ligand_ani.xyz
 O   -2.091475   -1.089585   -0.544452
 C   -0.884153   -0.408297   -0.870289
 C   -1.048746    0.974951   -0.222992
 O   -0.130683    1.933448   -0.780991
 C   -0.826454    0.918689    1.289599
 N    0.422953    0.168455    1.634986
 C    0.320728   -1.241605    1.162736
 C    0.336116   -1.210588   -0.365289
 C    1.687999   -0.706378   -0.898471
 O    2.118427    0.526822   -0.327293
 H   -2.071921   -1.954001   -0.975641
 H   -0.800476   -0.273036   -1.963711
 H   -2.078072    1.302998   -0.409556
 H   -0.495062    2.255584   -1.615510
 H   -0.773978    1.931453    1.688599
 H   -1.685611    0.409130    1.736427
 H    1.236520    0.578802    1.105037
 H    0.615363    0.225841    2.646188
 H    1.151595   -1.825212    1.560696
 H   -0.615420   -1.679863    1.514915
 H    0.215643   -2.235408   -0.743941
 H    2.463051   -1.437680   -0.639046
 H    1.651950   -0.625026   -1.995541
 H    1.542647    1.221126   -0.703684
