24 
4re4_ligand_xtb.xyz
 O   -2.114821   -1.006904   -0.532565
 C   -0.913552   -0.369019   -0.887385
 C   -0.988859    1.027037   -0.222475
 O   -0.031474    1.923140   -0.749151
 C   -0.800741    0.914679    1.295273
 N    0.391815    0.107637    1.621114
 C    0.259459   -1.278591    1.119981
 C    0.293695   -1.210693   -0.407055
 C    1.671833   -0.726769   -0.899154
 O    2.130546    0.451357   -0.257505
 H   -2.296933   -1.747514   -1.120853
 H   -0.843743   -0.225368   -1.975355
 H   -2.004330    1.399669   -0.393048
 H   -0.409908    2.444531   -1.463500
 H   -0.684360    1.917301    1.709464
 H   -1.687312    0.439795    1.719321
 H    1.238182    0.479291    1.064733
 H    0.571631    0.129115    2.626090
 H    1.088787   -1.880081    1.494501
 H   -0.686504   -1.708613    1.458196
 H    0.155935   -2.221469   -0.802521
 H    2.413128   -1.495380   -0.665012
 H    1.654306   -0.593364   -1.983837
 H    1.743402    1.228011   -0.697313
