55 
4re9_ligand_xtb.xyz
 C   -3.229503    0.919716   -0.511759
 N   -2.746903    0.008546    0.498667
 C   -1.730651   -0.887549    0.445355
 C   -1.699606   -1.422505    1.721130
 N   -2.663814   -0.840808    2.448598
 N   -3.282409    0.008006    1.718490
 C   -0.861837   -1.163686   -0.723965
 N    0.527341   -1.115434   -0.314275
 C    1.501350   -1.639216   -1.098783
 C    2.883575   -1.474516   -0.561935
 O    1.260624   -2.210307   -2.142671
 C    3.155483   -1.479377    0.802451
 C    4.455767   -1.354478    1.254073
 C    5.473536   -1.217476    0.326924
 C    5.232255   -1.223037   -1.035471
 C    3.929667   -1.362017   -1.472815
 F    6.739539   -1.077013    0.766986
 C   -2.549870    2.290635   -0.324339
 C   -1.054204    2.178229   -0.418840
 C   -0.280710    2.074404    0.707850
 C    1.123964    1.962851    0.625361
 C    1.739757    1.945448   -0.654248
 C    0.920736    2.023231   -1.800237
 C   -0.434758    2.140155   -1.685175
 C    1.937651    1.883149    1.775580
 C    3.298154    1.817869    1.662285
 C    3.906975    1.818673    0.397739
 C    3.144901    1.868633   -0.735599
 C   -4.753835    1.046950   -0.394000
 C   -5.396978   -0.316296   -0.565321
 N   -5.761982   -0.902348    0.585992
 O   -5.601085   -0.851486   -1.641843
 O   -6.263630   -2.204823    0.519620
 H   -2.978302    0.503878   -1.492982
 H   -1.058387   -2.175470    2.128457
 H   -1.047386   -2.169068   -1.121236
 H   -1.044589   -0.447226   -1.534408
 H    0.770142   -0.477417    0.427683
 H    2.358526   -1.607884    1.519333
 H    4.688476   -1.364865    2.307051
 H    6.053998   -1.126403   -1.727135
 H    3.701190   -1.388750   -2.527144
 H   -2.833262    2.680395    0.655102
 H   -2.924141    2.968064   -1.092974
 H   -0.739791    2.095227    1.687262
 H    1.387473    1.998654   -2.773809
 H   -1.050361    2.216390   -2.570376
 H    1.464110    1.888938    2.747186
 H    3.916086    1.771513    2.546387
 H    4.983457    1.779872    0.329409
 H    3.607806    1.862957   -1.711415
 H   -5.113373    1.697002   -1.191426
 H   -5.012084    1.469754    0.575477
 H   -5.399602   -0.660791    1.499126
 H   -6.329656   -2.373191   -0.443167
