119 
4ret_ligand_ani.xyz
 C   -3.146059    1.776899    0.605808
 C   -2.535851    0.715798    1.524771
 C   -1.731276   -0.309259    0.736116
 O   -0.615901    0.385607    0.165778
 C   -2.610848   -0.923210   -0.353602
 C   -3.227141    0.134371   -1.290251
 C   -4.071214   -0.529026   -2.388745
 C   -5.372980   -1.123651   -1.843511
 C   -6.204264   -0.086389   -1.077536
 C   -5.372682    0.608427    0.025897
 C   -4.042339    1.221502   -0.526421
 C   -6.257434    1.618468    0.769401
 C   -7.490065    0.942735    1.373632
 O   -8.284527    1.875154    2.093658
 C   -8.391957    0.278269    0.306491
 C   -7.524812   -0.702518   -0.548160
 O   -8.291347   -1.186576   -1.651349
 C   -7.348198   -1.925126    0.352890
 C   -8.685035   -2.060020    1.110631
 C   -9.409845   -0.687004    1.032893
 C   -9.069070    1.359880   -0.542259
 C   -4.322928    2.398109   -1.479312
 C    0.477418   -0.408694   -0.224812
 C    5.162471    0.047633    0.653248
 C   10.138087    0.143483   -0.625300
 C  -10.761979   -0.793249    0.403350
 C  -11.883740    0.159575    0.753527
 O  -12.962188   -0.204374   -0.086451
 C  -11.217253   -1.625569   -0.540617
 C  -12.607833   -1.261345   -0.878483
 O  -13.355858   -1.748154   -1.682652
 C    1.468309    0.495617   -0.945041
 C    6.006491   -1.142020    0.223317
 C   11.361300    0.987468   -0.951370
 C    2.145972    1.429249    0.051387
 O    2.988830    2.369558   -0.561873
 C    7.484034   -0.796484    0.298639
 O    7.815747   -0.606284    1.659070
 C   12.571010    0.095257   -1.168902
 O   12.341832   -0.664970   -2.341490
 C    2.852807    0.560525    1.101048
 O    3.818191   -0.275218    0.473147
 C    7.765386    0.495607   -0.498046
 O    9.080940    0.991604   -0.300139
 C   12.755435   -0.857012    0.015151
 O   13.809472   -1.734004   -0.357275
 C    1.847034   -0.364437    1.796372
 O    1.060455   -1.104589    0.850362
 C    6.827493    1.612905   -0.036964
 O    5.474373    1.166954   -0.158716
 C   11.453497   -1.621274    0.286702
 O   10.415303   -0.668798    0.509919
 C    0.981786    0.360325    2.825535
 C    6.963303    2.875396   -0.868659
 C   11.515672   -2.516582    1.511913
 H   -2.327930    2.328264    0.128650
 H   -3.703756    2.511627    1.196104
 H   -3.323034    0.189270    2.080431
 H   -1.888831    1.190235    2.271602
 H   -1.359412   -1.098325    1.406079
 H   -2.024659   -1.638629   -0.947078
 H   -3.394720   -1.512303    0.137311
 H   -2.382969    0.658906   -1.759038
 H   -3.479644   -1.313286   -2.877697
 H   -4.301064    0.204480   -3.173086
 H   -5.128654   -1.962418   -1.178846
 H   -5.972442   -1.544468   -2.657683
 H   -6.504841    0.690519   -1.799819
 H   -5.085716   -0.161885    0.761312
 H   -5.696201    2.095161    1.582575
 H   -6.585639    2.423668    0.102698
 H   -7.143575    0.161832    2.072619
 H   -7.713551    2.283616    2.756175
 H   -8.566679   -0.423624   -2.176531
 H   -7.126309   -2.806133   -0.254069
 H   -6.517291   -1.787555    1.055157
 H   -8.518340   -2.356203    2.150809
 H   -9.306503   -2.835624    0.659407
 H   -9.577475   -0.277629    2.035729
 H   -8.347799    1.896628   -1.167655
 H   -9.542808    2.100346    0.107388
 H   -9.838392    0.939155   -1.196829
 H   -3.381791    2.760476   -1.909555
 H   -4.778443    3.240901   -0.948106
 H   -4.981578    2.134760   -2.311656
 H    0.134724   -1.199582   -0.906187
 H    5.354205    0.306950    1.707446
 H    9.873988   -0.506943   -1.475773
 H  -11.631337    1.210974    0.562648
 H  -12.202963    0.062868    1.797510
 H  -10.689948   -2.416757   -1.056236
 H    2.220789   -0.126134   -1.442194
 H    0.945790    1.080264   -1.709172
 H    5.798508   -1.999256    0.869625
 H    5.733040   -1.408957   -0.803452
 H   11.174184    1.584137   -1.849171
 H   11.539579    1.671113   -0.114106
 H    1.369947    2.012853    0.562433
 H    3.852051    1.946690   -0.707066
 H    8.074285   -1.624667   -0.127170
 H    8.781458   -0.502907    1.678552
 H   13.480863    0.706596   -1.278273
 H   12.996895   -1.378454   -2.314126
 H    3.345732    1.212467    1.839790
 H    7.590490    0.296940   -1.568711
 H   13.017904   -0.278752    0.914747
 H   13.899195   -2.414228    0.321116
 H    2.418720   -1.146124    2.304025
 H    7.041287    1.822721    1.021187
 H   11.210402   -2.217627   -0.606097
 H    0.394686    1.163726    2.373063
 H    0.288412   -0.352426    3.283748
 H    1.610831    0.786743    3.614272
 H    7.973675    3.283671   -0.783425
 H    6.249537    3.631814   -0.526773
 H    6.762417    2.660729   -1.924232
 H   10.529297   -2.947871    1.706830
 H   12.219507   -3.345882    1.376815
 H   11.823121   -1.941517    2.391694
