31 
4rfr_ligand_xtb.xyz
 O    4.612011   -1.773827    0.256361
 O   -0.202856   -2.913252   -0.072432
 O   -1.412174    2.504827   -0.160454
 O    5.332990    0.256208   -0.244174
 O   -3.947961    1.817096    0.183054
 O    1.140512    3.034106    0.096520
 C   -4.131699   -1.798263   -0.054590
 C   -4.479326   -0.444513    0.017541
 C   -2.820583   -2.171141   -0.055962
 C    2.645339    1.276280    0.050749
 C    1.947256   -1.020933    0.040018
 C    4.354842   -0.619144    0.037160
 C    2.960158   -0.097113    0.038687
 C   -3.518467    0.535523    0.059635
 C    1.341833    1.700971    0.045162
 C   -0.446315   -1.587659   -0.026390
 C   -1.088726    1.134367   -0.050287
 C   -1.797723   -1.196130   -0.025337
 C    0.588504   -0.637157    0.014256
 C   -2.130714    0.191465   -0.006224
 C    0.257821    0.759103   -0.000723
 H    0.747162   -3.088068   -0.058309
 H   -1.692373    2.688875   -1.066512
 H    4.990488    1.140350   -0.432796
 H   -3.190954    2.397262    0.363846
 H    0.183933    3.209920    0.147492
 H   -4.914092   -2.540483   -0.086031
 H   -5.513076   -0.141160    0.062969
 H   -2.530209   -3.208141   -0.078291
 H    3.400968    2.046342    0.112783
 H    2.244763   -2.060099    0.061682
