31 
4rfr_ligand_dft.xyz
 O    4.664936   -1.750281    0.293986
 O   -0.218353   -2.914650   -0.016729
 O   -1.410968    2.500993   -0.126197
 O    5.319379    0.251586   -0.389583
 O   -3.957371    1.829393    0.087095
 O    1.139638    3.036861    0.198480
 C   -4.140840   -1.801357   -0.057874
 C   -4.494525   -0.433638   -0.021685
 C   -2.831991   -2.187269   -0.041666
 C    2.648472    1.279657    0.091005
 C    1.959275   -1.033240    0.027864
 C    4.368008   -0.619134    0.004267
 C    2.959648   -0.106040    0.038076
 C   -3.535437    0.544163    0.014316
 C    1.350363    1.708995    0.094961
 C   -0.449718   -1.583671   -0.001298
 C   -1.088380    1.127496   -0.040407
 C   -1.804423   -1.202554   -0.015999
 C    0.590312   -0.639673    0.024088
 C   -2.135748    0.191015   -0.015690
 C    0.256799    0.759903    0.020182
 H    0.724515   -3.097596    0.063042
 H   -1.507793    2.723184   -1.064429
 H    4.915711    1.064842   -0.720352
 H   -3.190782    2.397814    0.257237
 H    0.183338    3.194462    0.269814
 H   -4.928466   -2.547968   -0.080311
 H   -5.534658   -0.126954    0.002310
 H   -2.552885   -3.233027   -0.047274
 H    3.414731    2.040557    0.207708
 H    2.267311   -2.074454    0.015011
