31 
4rfr_ligand_ani.xyz
 O    4.661806   -1.735477    0.334816
 O   -0.234428   -2.934597   -0.075358
 O   -1.396335    2.472860   -0.323077
 O    5.345446    0.260641   -0.335649
 O   -3.917055    1.851202    0.157799
 O    1.106415    3.012606    0.291638
 C   -4.169179   -1.764568    0.014461
 C   -4.507749   -0.403673    0.061748
 C   -2.859028   -2.177517   -0.025081
 C    2.650471    1.278813    0.117794
 C    1.971603   -1.039952   -0.016435
 C    4.378940   -0.607181    0.027410
 C    2.963199   -0.093217    0.020899
 C   -3.525024    0.567647    0.058882
 C    1.337095    1.694588    0.132002
 C   -0.462698   -1.596888   -0.048180
 C   -1.085317    1.118969   -0.108110
 C   -1.819150   -1.209867   -0.029992
 C    0.596041   -0.659913   -0.022069
 C   -2.139069    0.192693   -0.024333
 C    0.264762    0.743165   -0.000850
 H    0.714552   -3.105780   -0.108138
 H   -1.373682    2.622586   -1.278905
 H    4.953089    1.075079   -0.677670
 H   -3.128580    2.419844    0.145708
 H    0.147011    3.166315    0.273615
 H   -4.966663   -2.503324    0.017871
 H   -5.544977   -0.086917    0.110826
 H   -2.598162   -3.227401   -0.049229
 H    3.414325    2.042513    0.243873
 H    2.286925   -2.079391   -0.028187
