79 
4rfz_ligand_ani.xyz
 C    1.895289    4.123565   -0.097235
 C    2.517787    2.815837    0.156961
 C    1.826677    1.656691   -0.017378
 C    0.472626    1.688182   -0.434629
 C   -0.103146    2.904309   -0.688737
 N    0.577169    4.079737   -0.534611
 C   -0.068992    5.361736   -0.812331
 O    2.476237    5.193381    0.056859
 N    3.831164    2.936960    0.582039
 C    4.802959    1.975172    0.755060
 C    6.079915    2.396232    1.179026
 C    7.068736    1.453069    1.343424
 C    6.795425    0.112081    1.044836
 C    5.497217   -0.200560    0.668149
 N    4.511657    0.693858    0.530844
 C    7.869460   -0.909481    1.233139
 O    8.637590   -0.844171    2.181633
 N    7.965704   -1.919890    0.300562
 C    8.955117   -2.957411    0.574309
 C    8.546934   -4.234227   -0.140937
 O    8.376257   -4.012620   -1.526554
 C    7.373898   -3.045477   -1.766960
 C    7.743896   -1.713082   -1.130953
 C   -0.258299    0.404550   -0.656699
 C    0.401087   -0.612981   -1.358026
 C   -0.237758   -1.799676   -1.681256
 C   -1.558609   -1.995057   -1.287582
 C   -2.211196   -1.009330   -0.563128
 C   -1.568662    0.182672   -0.197442
 C   -2.320905    1.176622    0.671023
 N   -3.571563   -1.246809   -0.144418
 C   -3.813505   -1.984101    0.999830
 C   -5.055622   -2.153786    1.479615
 C   -4.593453   -0.815548   -1.015399
 C   -5.936915   -0.865457   -0.405635
 C   -6.172078   -1.560125    0.792404
 C   -7.482028   -1.664944    1.307741
 C   -8.557898   -1.059350    0.669003
 C   -8.311200   -0.325796   -0.523100
 C   -7.033600   -0.250932   -1.021481
 N   -9.839381   -1.153580    1.166650
 C  -10.093730   -1.953793    2.340667
 C  -10.919205   -0.464472    0.502577
 O   -4.330789   -0.447378   -2.141406
 O   -3.093828    2.020561   -0.173698
 F   -6.843351    0.453925   -2.139000
 H    2.325104    0.719523    0.191784
 H   -1.134412    3.000695   -1.008929
 H    0.425686    5.864285   -1.646582
 H   -1.113187    5.166013   -1.064216
 H   -0.013831    6.008586    0.065163
 H    4.108690    3.905679    0.678174
 H    6.270414    3.448223    1.381885
 H    8.057395    1.734899    1.694417
 H    5.212869   -1.234105    0.484280
 H    9.000803   -3.107448    1.654341
 H    9.953623   -2.641288    0.236556
 H    7.614469   -4.622263    0.298568
 H    9.322535   -4.999589   -0.037733
 H    6.406577   -3.395497   -1.374480
 H    7.290647   -2.940691   -2.853017
 H    8.656647   -1.328233   -1.612088
 H    6.953518   -0.978103   -1.290976
 H    1.430825   -0.444151   -1.666212
 H    0.288436   -2.570747   -2.236472
 H   -2.096337   -2.904206   -1.538556
 H   -1.615313    1.771867    1.267123
 H   -2.972522    0.631656    1.365833
 H   -2.924782   -2.383348    1.478908
 H   -5.215877   -2.716697    2.391589
 H   -7.621679   -2.223637    2.224594
 H   -9.098422    0.179478   -1.066650
 H   -9.772070   -2.992962    2.194560
 H   -9.574923   -1.558253    3.223845
 H  -11.166675   -1.959219    2.552276
 H  -10.728129    0.615076    0.441752
 H  -11.072083   -0.837323   -0.519321
 H  -11.846534   -0.613660    1.062397
 H   -3.909631    2.259218    0.282933
