79 
4rfz_ligand_xtb.xyz
 C    2.086945    4.124014    0.073667
 C    2.651500    2.789933    0.225051
 C    1.910479    1.671016   -0.012729
 C    0.557485    1.797388   -0.420222
 C    0.043517    3.052504   -0.578700
 N    0.775969    4.167474   -0.336219
 C    0.154193    5.460998   -0.522793
 O    2.739032    5.143546    0.298587
 N    3.967709    2.838406    0.633872
 C    4.881054    1.844921    0.790301
 C    6.179494    2.175107    1.226988
 C    7.107685    1.172488    1.358596
 C    6.749880   -0.142152    1.039056
 C    5.435327   -0.365475    0.653852
 N    4.528492    0.585636    0.527944
 C    7.727391   -1.250595    1.233589
 O    8.205429   -1.493358    2.327378
 N    8.057162   -1.969704    0.132338
 C    8.924789   -3.124235    0.247523
 C    8.199615   -4.345057   -0.324313
 O    7.794955   -4.120622   -1.658259
 C    6.940208   -3.006009   -1.752364
 C    7.624666   -1.737735   -1.225135
 C   -0.230545    0.588348   -0.709465
 C    0.384614   -0.424830   -1.443154
 C   -0.284223   -1.591532   -1.753338
 C   -1.587871   -1.764186   -1.329747
 C   -2.209713   -0.767645   -0.590708
 C   -1.548116    0.416366   -0.261406
 C   -2.244069    1.464513    0.578269
 N   -3.549005   -1.013836   -0.161218
 C   -3.770358   -2.056689    0.689236
 C   -5.004932   -2.404233    1.097896
 C   -4.577548   -0.247616   -0.706088
 C   -5.911960   -0.609423   -0.271248
 C   -6.142181   -1.678188    0.624210
 C   -7.432390   -2.008695    1.024715
 C   -8.549492   -1.306932    0.563969
 C   -8.319479   -0.239222   -0.329023
 C   -7.046185    0.082998   -0.720979
 N   -9.812762   -1.630124    0.953814
 C  -10.033302   -2.710344    1.883215
 C  -10.948298   -0.901857    0.442215
 O   -4.308566    0.649550   -1.492830
 O   -2.836240    2.483444   -0.188781
 F   -6.914614    1.114435   -1.568727
 H    2.354884    0.700740    0.130496
 H   -0.971711    3.219335   -0.903695
 H   -0.046514    5.636944   -1.580514
 H   -0.782274    5.508918    0.031715
 H    0.846133    6.217918   -0.155614
 H    4.272198    3.797928    0.786231
 H    6.424659    3.200953    1.454529
 H    8.110314    1.382344    1.699985
 H    5.077277   -1.365772    0.442021
 H    9.162682   -3.266064    1.302454
 H    9.846461   -2.945001   -0.318475
 H    7.321606   -4.572920    0.299212
 H    8.860757   -5.212169   -0.349357
 H    6.018858   -3.189129   -1.177568
 H    6.691335   -2.899439   -2.809323
 H    8.507594   -1.530514   -1.844243
 H    6.946289   -0.887016   -1.273960
 H    1.397694   -0.279374   -1.785685
 H    0.202823   -2.362717   -2.330537
 H   -2.135717   -2.663136   -1.571975
 H   -1.515070    1.957864    1.228650
 H   -3.000596    0.980581    1.216041
 H   -2.881517   -2.572667    1.022450
 H   -5.143761   -3.225532    1.780835
 H   -7.542621   -2.833817    1.707889
 H   -9.126320    0.352426   -0.724957
 H   -9.685399   -3.662932    1.471962
 H   -9.514494   -2.527035    2.828640
 H  -11.095987   -2.799355    2.092643
 H  -10.906332    0.152300    0.731941
 H  -10.997100   -0.964148   -0.648586
 H  -11.863685   -1.327089    0.845294
 H   -3.439844    2.054550   -0.828037
