79 
4rfz_ligand_dft.xyz
 C    2.051780    4.183941    0.086336
 C    2.648437    2.850531    0.134066
 C    1.907787    1.739876   -0.150414
 C    0.528785    1.867891   -0.504286
 C   -0.020296    3.113184   -0.557577
 N    0.718120    4.230366   -0.264053
 C    0.116577    5.557692   -0.322671
 O    2.687148    5.211240    0.344163
 N    3.982887    2.929859    0.504011
 C    4.928001    1.950077    0.649704
 C    6.229860    2.325177    1.055160
 C    7.183607    1.345731    1.190431
 C    6.856529    0.012281    0.898210
 C    5.541101   -0.249971    0.540764
 N    4.590367    0.678807    0.414813
 C    7.874391   -1.055816    1.132776
 O    8.633230   -0.984077    2.089696
 N    7.876748   -2.138414    0.282840
 C    8.767828   -3.248880    0.593430
 C    8.123799   -4.542897    0.110249
 O    7.807578   -4.488438   -1.266718
 C    6.925489   -3.424468   -1.547358
 C    7.529246   -2.087888   -1.133587
 C   -0.260525    0.664498   -0.873165
 C    0.312460   -0.246733   -1.768775
 C   -0.374374   -1.376521   -2.187399
 C   -1.659287   -1.614710   -1.716369
 C   -2.230167   -0.724977   -0.818153
 C   -1.548341    0.411854   -0.365490
 C   -2.203629    1.322414    0.643115
 N   -3.545251   -1.008402   -0.316343
 C   -3.671194   -1.727515    0.852426
 C   -4.864829   -1.978609    1.420102
 C   -4.647912   -0.515797   -1.048396
 C   -5.949917   -0.764156   -0.412813
 C   -6.070618   -1.485431    0.799288
 C   -7.319163   -1.719209    1.381330
 C   -8.498440   -1.243661    0.789853
 C   -8.384543   -0.524652   -0.422296
 C   -7.148161   -0.304748   -0.984721
 N   -9.728792   -1.460659    1.360585
 C   -9.831298   -2.274600    2.552612
 C  -10.931074   -1.044077    0.669322
 O   -4.465318    0.051638   -2.107959
 O   -2.950951    2.315669   -0.048373
 F   -7.124685    0.382700   -2.125057
 H    2.368981    0.763234   -0.090800
 H   -1.058668    3.278692   -0.821086
 H    0.635788    6.169293   -1.063736
 H   -0.934672    5.456428   -0.593070
 H    0.208915    6.048609    0.648460
 H    4.260298    3.892070    0.670767
 H    6.458320    3.365617    1.264107
 H    8.187676    1.584325    1.526398
 H    5.217082   -1.274790    0.365579
 H    8.936192   -3.268955    1.670734
 H    9.739301   -3.105888    0.098162
 H    7.212644   -4.737786    0.699061
 H    8.810650   -5.383194    0.237465
 H    5.967168   -3.572325   -1.021406
 H    6.742652   -3.444815   -2.624718
 H    8.440855   -1.911910   -1.724688
 H    6.835662   -1.271589   -1.333138
 H    1.306175   -0.044653   -2.157731
 H    0.083730   -2.062663   -2.892727
 H   -2.231008   -2.476851   -2.043221
 H   -1.431224    1.782172    1.274063
 H   -2.863301    0.737052    1.294038
 H   -2.733927   -2.069628    1.277306
 H   -4.919760   -2.550834    2.338629
 H   -7.350370   -2.283319    2.305536
 H   -9.246294   -0.130642   -0.944045
 H   -9.465195   -3.297771    2.386974
 H   -9.263429   -1.837281    3.383411
 H  -10.876195   -2.333588    2.859851
 H  -10.947174    0.041769    0.514083
 H  -11.036879   -1.533742   -0.308757
 H  -11.800865   -1.304417    1.273794
 H   -3.554475    2.724951    0.582570
