60 
4rj4_ligand_xtb.xyz
 C  -49.985145   -0.889724  -16.965272
 C  -52.545056    0.320279  -20.731289
 C  -53.168155    0.411746  -21.971255
 C  -52.357629    0.548702  -18.471766
 C  -54.456697    0.924778  -21.975307
 C  -54.526441    1.251522  -19.708053
 C  -53.235026    0.753644  -19.564554
 C  -51.199579    0.026163  -18.980160
 C  -50.012616   -0.305367  -18.219312
 C  -49.729465    0.244088  -22.186844
 C  -50.897353   -1.994556  -21.887220
 C  -50.319538   -0.758657  -21.194862
 N  -51.309465   -0.121693  -20.351719
 N  -55.116990    1.329786  -20.877785
 N  -48.691138   -0.961680  -16.597947
 N  -47.876305   -0.455698  -17.516994
 C  -48.650003   -0.053664  -18.502206
 N  -55.227363    1.070137  -23.116045
 C  -54.985528    0.826570  -24.433662
 C  -56.039563    1.039009  -25.344578
 C  -55.770711    0.769360  -26.665387
 N  -54.589818    0.347425  -27.089927
 C  -53.641614    0.191634  -26.160870
 N  -53.794041    0.402776  -24.844539
 N  -52.417112   -0.172012  -26.601372
 C  -52.200795   -0.584228  -27.966590
 C  -51.941992   -2.089809  -28.032674
 C  -50.766461   -2.472305  -27.131612
 C  -51.044781   -1.986158  -25.702485
 C  -51.331203   -0.483322  -25.711579
 O  -50.612345   -3.876825  -27.218056
 C  -49.402377   -4.375394  -26.711602
 H  -50.780216   -1.251490  -16.346510
 H  -52.727089    0.119534  -22.905290
 H  -52.549401    0.783782  -17.443964
 H  -55.102242    1.594964  -18.858597
 H  -49.265748    1.070331  -21.652208
 H  -48.975290   -0.239202  -22.802355
 H  -50.501243    0.651233  -22.832601
 H  -51.348589   -2.655292  -21.149999
 H  -51.653029   -1.728875  -22.618376
 H  -50.099919   -2.535142  -22.390759
 H  -49.520948   -1.100089  -20.527417
 H  -48.311473   -1.333980  -15.742083
 H  -48.218814    0.423512  -19.359301
 H  -56.148741    1.427625  -22.898091
 H  -57.003785    1.385516  -25.012230
 H  -56.523525    0.890394  -27.434557
 H  -51.332337   -0.041808  -28.359760
 H  -53.086412   -0.317787  -28.541884
 H  -52.825132   -2.632146  -27.693905
 H  -51.729056   -2.393286  -29.057324
 H  -49.846250   -1.984002  -27.501291
 H  -51.910237   -2.525948  -25.314141
 H  -50.189663   -2.187138  -25.055696
 H  -50.437401    0.056487  -26.050135
 H  -51.600709   -0.133850  -24.717472
 H  -49.369437   -5.428889  -26.983221
 H  -48.542115   -3.859077  -27.156484
 H  -49.341891   -4.286902  -25.620823
