49 
4rj5_ligand_ani.xyz
 C    1.425643    2.282856    0.208060
 C    1.698812    1.062112    1.086429
 C    4.584413   -2.416878   -0.277476
 C    4.121688    1.478204    0.993755
 C    3.894816    2.711548    0.119157
 C    3.223916   -0.726660    0.346205
 C    3.506971   -3.250124   -0.511832
 C    2.235345   -2.684291   -0.295771
 C    2.525469    3.327400    0.426689
 C    2.234364    4.516321   -1.639220
 O    2.291009    4.560017   -0.234871
 N    3.028874    0.534054    0.822344
 N    4.480565   -1.155165    0.149718
 N    2.106386   -1.433704    0.114685
 N    1.087407   -3.418997   -0.503057
 C   -0.225778   -2.981292   -0.329055
 C   -0.582071   -1.653545   -0.517847
 C   -1.901206   -1.304324   -0.273396
 C   -2.847463   -2.326150    0.102342
 C   -4.068886   -1.621802    0.276255
 C   -3.762708   -0.271091    0.003621
 N   -2.457846   -0.084446   -0.323149
 C   -4.670362    0.838100    0.043320
 C   -4.372037    2.207862   -0.207169
 N   -5.430847    2.953235   -0.091746
 N   -6.512288    2.119555    0.245975
 C   -6.069459    0.897988    0.323390
 C   -2.368005   -3.640828    0.195096
 N   -1.097939   -3.964889   -0.019573
 H    0.442526    2.711105    0.435074
 H    1.410631    1.964301   -0.842261
 H    0.952130    0.281742    0.930067
 H    1.647486    1.360595    2.145036
 H    5.600206   -2.775443   -0.435697
 H    4.159833    1.777884    2.052688
 H    5.053718    0.968791    0.752124
 H    3.943502    2.403569   -0.933286
 H    4.681165    3.456571    0.282915
 H    3.625920   -4.270821   -0.858634
 H    2.514437    3.609310    1.486928
 H    3.171449    4.156597   -2.089335
 H    1.406464    3.893804   -2.009437
 H    2.066551    5.543625   -1.973866
 H    1.171288   -4.425729   -0.543280
 H    0.129555   -0.914759   -0.845312
 H   -5.037417   -2.013917    0.560067
 H   -3.409349    2.638998   -0.466222
 H   -6.749549    0.090400    0.573854
 H   -3.039575   -4.456689    0.455848
