48 
4rj6_ligand_ani.xyz
 C    2.248151    2.333047    0.189933
 C    2.337198    0.955349    0.838986
 C    4.133577   -3.181691   -0.489139
 C    4.722839    0.786464    0.254455
 C    4.668289    2.159935   -0.402255
 C    3.251667   -1.158725   -0.008859
 C    2.892823   -3.779574   -0.417503
 C    1.808894   -2.921630   -0.142018
 C    3.607950    3.037651    0.248111
 C    2.984111    5.322848    0.253398
 O    3.612082    4.273247   -0.438297
 N    3.401155    0.176581    0.221304
 N    4.346408   -1.877093   -0.293744
 N    1.990840   -1.624667    0.050586
 N    0.538615   -3.443626   -0.062994
 C   -0.694352   -2.807617    0.036441
 C   -0.879657   -1.453603   -0.225408
 C   -2.185092   -0.975734   -0.104264
 C   -3.234971   -1.861973    0.256100
 C   -2.926339   -3.209576    0.482533
 N   -1.689545   -3.664583    0.367013
 N   -4.408442   -1.167453    0.299115
 C   -4.023568    0.073969   -0.027572
 N   -2.710459    0.264563   -0.280691
 C   -4.962484    1.151709   -0.109550
 C   -6.373755    1.124616    0.079985
 N   -6.881329    2.311139   -0.086490
 N   -5.834697    3.197461   -0.396603
 C   -4.722273    2.522443   -0.410136
 H    1.477378    2.921884    0.702213
 H    1.941661    2.233011   -0.858119
 H    1.390149    0.420617    0.747505
 H    2.542706    1.070426    1.916582
 H    5.018868   -3.774163   -0.714575
 H    5.059478    0.878466    1.300589
 H    5.419325    0.123349   -0.256750
 H    4.425608    2.051277   -1.466294
 H    5.643926    2.655233   -0.339046
 H    2.750580   -4.842449   -0.581839
 H    3.877148    3.201955    1.307853
 H    1.901550    5.166526    0.368446
 H    3.422279    5.468015    1.253342
 H    3.144070    6.230494   -0.333911
 H    0.449596   -4.447866   -0.002149
 H   -0.056906   -0.826765   -0.532565
 H   -3.700898   -3.922025    0.755669
 H   -7.011554    0.280209    0.327662
 H   -3.777501    3.012122   -0.630146
