48 
4rj6_ligand_dft.xyz
 C    2.167480    2.105699    0.069306
 C    2.323015    1.196888    1.291578
 C    4.342828   -2.819283   -0.140082
 C    4.733242    1.074785    1.019999
 C    4.674318    1.999386   -0.199930
 C    3.365270   -0.911098    0.594155
 C    3.113422   -3.410005   -0.371153
 C    2.002777   -2.600108   -0.096489
 C    3.452769    2.915389   -0.152525
 C    2.552070    4.731530   -1.377160
 O    3.443948    3.646301   -1.358302
 N    3.483951    0.331528    1.142647
 N    4.498592   -1.585329    0.331215
 N    2.115065   -1.368559    0.376635
 N    0.736603   -3.111764   -0.337698
 C   -0.501790   -2.521542   -0.285359
 C   -0.763439   -1.200370   -0.022551
 C   -2.126794   -0.823868   -0.026782
 C   -3.149545   -1.844450   -0.310023
 C   -2.719459   -3.202445   -0.582848
 N   -1.471480   -3.509029   -0.570829
 N   -4.339251   -1.337111   -0.276372
 C   -4.061883    0.026509    0.033632
 N   -2.716013    0.330568    0.182838
 C   -5.070790    0.919681    0.162577
 C   -6.510406    0.711984    0.028301
 N   -7.150165    1.811103    0.224633
 N   -6.189617    2.855301    0.509056
 C   -5.008847    2.344392    0.472621
 H    1.306258    2.767128    0.214314
 H    1.973511    1.494284   -0.820734
 H    1.437232    0.587587    1.459586
 H    2.482619    1.804208    2.192023
 H    5.260260   -3.365858   -0.349023
 H    4.865810    1.659323    1.939246
 H    5.557752    0.368899    0.941944
 H    4.620336    1.390918   -1.110802
 H    5.582483    2.607537   -0.263724
 H    3.021664   -4.415561   -0.763881
 H    3.568614    3.615215    0.697326
 H    1.500014    4.413197   -1.385114
 H    2.708189    5.397056   -0.513448
 H    2.751917    5.290455   -2.293959
 H    0.688286   -4.083208   -0.613981
 H    0.032832   -0.500865    0.173468
 H   -3.445786   -3.981355   -0.805605
 H   -7.008755   -0.220333   -0.203241
 H   -4.114050    2.925561    0.653535
