50 
4rj7_ligand_xtb.xyz
 C    3.376647   -0.682793    0.075254
 C    5.543446    0.025248   -0.026974
 C    7.474118    3.180284    0.193319
 C    6.156890    2.442128   -0.006925
 C    5.391214    2.979046   -1.235703
 C    3.806727   -2.000861    0.181998
 C    5.751165   -3.587863    0.248818
 C    5.182299   -2.208440    0.157092
 N    4.244407    0.328591   -0.030286
 N    6.047223   -1.208433    0.056610
 N    6.440949    1.024830   -0.137755
 O    4.007697    2.799974   -1.125835
 N    2.067265   -0.269381    0.050961
 C    0.904915   -0.993583    0.140285
 C   -0.312069   -0.305335    0.054724
 C   -1.496510   -1.020929    0.150751
 C   -1.429342   -2.404764    0.328107
 C   -0.175385   -2.978238    0.395995
 N    0.962381   -2.310402    0.306858
 N   -2.697746   -0.318496    0.060906
 C   -3.968276   -0.795716    0.186356
 O   -4.278701   -1.944278    0.380609
 C   -4.995421    0.302397    0.049161
 C   -5.136676    1.285215    1.024906
 C   -6.126710    2.250235    0.934803
 C   -6.987603    2.237564   -0.149293
 C   -6.866207    1.276004   -1.136609
 C   -5.875616    0.311403   -1.030329
Cl   -5.702304   -0.880382   -2.261064
Cl   -4.064082    1.288833    2.383239
 H    8.009433    2.776300    1.049887
 H    7.290428    4.236220    0.369792
 H    8.098214    3.079796   -0.692197
 H    5.508226    2.591090    0.868603
 H    5.555626    4.055770   -1.333362
 H    5.780216    2.483330   -2.138959
 H    3.102021   -2.806128    0.267343
 H    5.460768   -4.047654    1.191594
 H    6.834287   -3.542779    0.187131
 H    5.365246   -4.205074   -0.559989
 H    7.403557    0.729510   -0.124832
 H    3.884270    1.885646   -0.785940
 H    1.966156    0.731919   -0.059617
 H   -0.321983    0.766413   -0.083149
 H   -2.322185   -2.997450    0.409712
 H   -0.066332   -4.045761    0.531325
 H   -2.596628    0.678868   -0.076490
 H   -6.218737    2.997081    1.706676
 H   -7.760986    2.985841   -0.224101
 H   -7.531997    1.264840   -1.984071
