57 
4rj8_ligand_xtb.xyz
 C    4.340966   -1.429326   -0.134864
 C    4.187592   -0.476971    1.055448
 C    3.471077    3.394223    0.115324
 C    1.802983   -0.881145    1.139905
 C    1.874354   -1.835854   -0.054737
 C    2.644668    1.347529    0.604845
 C    2.206855    3.881836   -0.122405
 C    1.149696    2.958819   -0.003176
 C    3.254239   -2.510088   -0.068724
 C    3.361532   -3.138879   -2.395743
 O    3.381455   -3.530083   -1.043507
 N    2.862098    0.093344    1.066151
 N    3.711928    2.140675    0.470048
 N    1.377150    1.701066    0.360342
 N   -0.118531    3.374512   -0.272094
 C   -1.314210    2.675488   -0.313386
 C   -1.394741    1.292830   -0.249259
 C   -2.673120    0.756025   -0.317641
 C   -3.807133    1.601926   -0.447430
 C   -4.942711    0.746296   -0.475951
 C   -4.475629   -0.526312   -0.368687
 N   -3.105158   -0.536047   -0.287346
 C   -2.236892   -1.672376   -0.086552
 C   -2.069609   -1.980920    1.408905
 C   -3.301564   -2.819329    1.735511
 C   -3.484635   -3.715464    0.503691
 C   -2.809730   -2.973560   -0.666575
 C   -3.582446    2.973706   -0.516526
 N   -2.374820    3.487765   -0.451810
 H    5.327378   -1.894527   -0.121735
 H    4.238161   -0.851489   -1.055143
 H    4.903892    0.341565    0.991313
 H    4.338958   -1.023940    1.992576
 H    4.347549    4.023164    0.019267
 H    1.924077   -1.447577    2.070676
 H    0.852091   -0.351239    1.168463
 H    1.727220   -1.261456   -0.971469
 H    1.094728   -2.596480    0.012990
 H    2.028275    4.905801   -0.404639
 H    3.373433   -3.066841    0.870617
 H    2.442277   -2.606592   -2.659839
 H    4.224539   -2.518212   -2.656733
 H    3.408538   -4.065015   -2.966441
 H   -0.243810    4.364795   -0.435092
 H   -0.501159    0.705070   -0.152255
 H   -5.967182    1.047942   -0.564415
 H   -5.035587   -1.440578   -0.354619
 H   -1.279815   -1.418183   -0.551361
 H   -2.003301   -1.072528    2.005922
 H   -1.161235   -2.565583    1.558135
 H   -4.164437   -2.164721    1.864716
 H   -3.178039   -3.398102    2.649203
 H   -4.538256   -3.910414    0.307186
 H   -2.998468   -4.677419    0.664750
 H   -1.995025   -3.571897   -1.073717
 H   -3.500530   -2.766094   -1.482361
 H   -4.393828    3.681279   -0.626803
