24 
4rkx_ligand_ani.xyz
 N    5.139796   -1.271116   -0.954827
 C    4.576536   -0.638907   -0.167442
 C    3.861031    0.160594    0.847065
 N    2.452675   -0.143520    0.929465
 C    1.588004    0.574781    0.148815
 O    1.887308    1.570137   -0.477873
 O    0.350663    0.035254    0.186549
 C   -0.619836    0.772669   -0.575127
 C   -2.238532   -1.128514   -0.246378
 C   -3.519213   -1.612937   -0.003187
 C   -4.571644   -0.727899    0.220707
 C   -4.338023    0.643501    0.196610
 C   -3.055766    1.124368   -0.052708
 C   -1.997481    0.245147   -0.274270
 H    3.949025    1.214536    0.571089
 H    4.340936    0.014789    1.820779
 H    2.170049   -1.075886    1.193964
 H   -0.366327    0.669167   -1.634894
 H   -0.544178    1.833320   -0.321512
 H   -1.414402   -1.817445   -0.412392
 H   -3.696706   -2.686111    0.013776
 H   -5.571911   -1.107818    0.413137
 H   -5.154675    1.340133    0.371157
 H   -2.873331    2.197827   -0.071485
