61 
4rn0_ligand_dft.xyz
 C   -1.617844   -2.363443   -2.240563
 C   -1.255819   -1.487870   -3.436048
 C    0.056797   -0.763372   -3.304648
 C    0.924905   -0.884112   -2.301494
 C    2.155382   -0.023092   -2.161623
 C    1.532276    2.256233   -1.522527
 C    0.491584    2.980657   -0.658014
 C    1.042514    3.577511    0.659544
 C    2.119781    4.620237    0.356264
 C    1.547240    2.525570    1.647951
 C   -1.822207    2.335952    0.037079
 C   -2.718860    1.063646    0.177296
 C   -3.556848    0.912193   -1.091579
 C   -3.594143    1.200019    1.438341
 C   -1.603990   -0.343248    1.570562
 C   -0.493322   -1.196540    2.025444
 C   -0.562376   -2.108314    3.033710
 C    1.634943   -1.776960    2.047491
 C    3.120661   -1.763242    1.760101
 C    3.304398   -1.714861   -0.656542
 C    3.438400   -0.823572   -1.874779
 N    1.883694    0.981899   -1.119104
 N   -0.596538    2.043205   -0.444970
 N   -1.809529   -0.071486    0.345739
 N    0.759160   -1.015502    1.467198
 N    3.459925   -1.074345    0.547039
 O    1.980632    2.764458   -2.532652
 O   -2.228470    3.451693    0.316875
 O    3.052021   -2.905857   -0.721797
 S   -3.307917   -3.047371   -2.322132
 S   -2.588255    0.495016    2.785899
 S    0.987370   -2.799378    3.301635
 H   -1.607623   -1.765235   -1.323434
 H   -0.900779   -3.179689   -2.115954
 H   -2.049454   -0.744211   -3.587767
 H   -1.243355   -2.091383   -4.355063
 H    0.283169   -0.063645   -4.110590
 H    0.731298   -1.569459   -1.477351
 H    2.323792    0.546925   -3.077940
 H    0.135521    3.809866   -1.276077
 H    0.183237    4.083478    1.113803
 H    2.442952    5.114638    1.278002
 H    3.000655    4.158912   -0.105646
 H    1.750956    5.388740   -0.330777
 H    2.477476    2.064607    1.292869
 H    0.809046    1.733290    1.811468
 H    1.758574    2.990971    2.615824
 H   -4.154167   -0.003534   -1.047607
 H   -4.221490    1.772910   -1.208534
 H   -2.904147    0.854654   -1.967712
 H   -4.524405    0.634095    1.343709
 H   -3.809289    2.251498    1.634914
 H   -1.431778   -2.405266    3.603393
 H    3.483862   -2.790897    1.677424
 H    3.638512   -1.287961    2.599866
 H    3.646399   -1.474942   -2.726410
 H    4.267582   -0.118272   -1.755025
 H    1.411713    0.604122   -0.300300
 H   -0.447553    1.063902   -0.652977
 H    3.468114   -0.064077    0.549618
 H   -3.149261   -3.755412   -3.454668
