64 
4rn1_ligand_xtb.xyz
 C   -6.595201   -0.531351   -0.036839
 C   -6.113170    0.512549   -1.044178
 C   -4.889909    1.193406   -0.528108
 C   -3.692512    1.117042   -1.083303
 C   -2.456237    1.678001   -0.440376
 C   -1.833599   -0.267452    0.914478
 C   -0.766846   -1.330311    1.185552
 C   -0.105464   -1.006025    2.547260
 C    0.549122    0.375780    2.536376
 C    0.911071   -2.081717    2.917874
 C    0.633673   -2.580806   -0.407494
 C    1.828648   -2.395022   -1.393543
 C    1.347204   -2.790408   -2.787312
 C    2.997821   -3.295029   -0.915695
 C    3.276505   -0.792151   -0.677777
 C    3.657617    0.560264   -0.291772
 C    4.920831    0.880237    0.190936
 C    5.151908    2.187915    0.591480
 C    4.129147    3.114416    0.498213
 C    2.893462    2.699409   -0.001463
 C    1.747178    3.660256   -0.135008
 C   -0.643338    3.396928   -0.535260
 C   -1.707824    2.665342   -1.341442
 N   -1.558752    0.585579   -0.088856
 N    0.210422   -1.425050    0.130771
 N    2.227594   -1.028297   -1.342158
 N    2.672237    1.454631   -0.382582
 N    0.632185    3.066924   -0.833061
 O   -2.823548   -0.174360    1.614891
 O    0.163597   -3.673926   -0.194681
 O   -0.920251    4.224490    0.306922
 S   -5.380425   -1.874568    0.216683
 S    4.180335   -2.193689   -0.083346
 H   -7.495118   -1.027223   -0.398621
 H   -6.797269   -0.079697    0.933503
 H   -5.903432    0.026299   -1.998397
 H   -6.915732    1.241695   -1.190109
 H   -5.013126    1.726668    0.405533
 H   -3.538147    0.569996   -2.004172
 H   -2.736419    2.181443    0.492263
 H   -1.264656   -2.304030    1.254304
 H   -0.912768   -1.003759    3.285616
 H   -0.179477    1.150121    2.308038
 H    0.972288    0.587022    3.515685
 H    1.355239    0.429974    1.805863
 H    1.280612   -1.916835    3.926923
 H    1.761939   -2.058876    2.238916
 H    0.461209   -3.070166    2.870182
 H    0.559803   -2.112564   -3.107025
 H    0.953159   -3.802694   -2.756593
 H    2.166859   -2.737529   -3.500781
 H    3.510166   -3.772454   -1.751744
 H    2.655669   -4.057423   -0.217932
 H    5.687504    0.124282    0.250938
 H    6.119375    2.476504    0.974385
 H    4.272625    4.138080    0.806454
 H    2.091375    4.561016   -0.662359
 H    1.393896    3.979283    0.853286
 H   -2.423263    3.408241   -1.696824
 H   -1.277378    2.147115   -2.199624
 H   -0.839829    0.344072   -0.752601
 H    0.787790   -0.610685   -0.046491
 H    0.865179    2.290187   -1.432951
 H   -4.481350   -1.149738    0.879511
