64 
4rn2_ligand_ani.xyz
 C   -5.819382   -0.474931   -1.172892
 C   -6.034897   -0.602850    0.330657
 C   -4.823327   -0.261924    1.156582
 C   -3.643254    0.180242    0.726169
 C   -2.496898    0.475850    1.651263
 C   -0.407976   -0.619132    2.279614
 C    0.721240   -1.565344    1.854220
 C    2.074753   -1.251930    2.533174
 C    2.062612   -1.591757    4.023835
 C    2.534166    0.185378    2.280258
 C    1.517688   -2.559409   -0.229410
 C    2.005892   -2.266530   -1.679233
 C    1.177432   -3.129534   -2.635810
 C    3.508434   -2.631970   -1.744033
 C    2.906954   -0.208154   -1.577718
 C    2.856700    1.248099   -1.305726
 C    3.981642    2.001303   -0.975803
 C    3.797185    3.337331   -0.644704
 C    1.537925    3.218590   -0.938108
 C    1.619753    1.876593   -1.306726
 C    0.180670    3.883374   -0.855502
 C   -1.378683    2.319091    0.238813
 C   -2.016228    1.931683    1.567653
 N   -1.408707   -0.450056    1.380224
 N    0.844210   -1.558613    0.403079
 N    1.894713   -0.854862   -2.015090
 N    2.609135    3.947820   -0.615032
 N   -0.594129    3.433571    0.293291
 O   -0.434964   -0.060157    3.371187
 O    1.734183   -3.647443    0.280800
 O   -1.561305    1.717059   -0.813716
 S   -7.317159   -0.788551   -2.146858
 S    4.368460   -1.141798   -1.180551
 H   -5.524622    0.549583   -1.423317
 H   -5.016268   -1.138975   -1.508010
 H   -6.868784    0.040986    0.633485
 H   -6.352144   -1.624005    0.576680
 H   -4.956109   -0.403025    2.231499
 H   -3.409148    0.375083   -0.318043
 H   -2.808898    0.307748    2.688772
 H    0.415350   -2.581684    2.136050
 H    2.791797   -1.927756    2.043413
 H    1.359912   -0.951118    4.561443
 H    3.064668   -1.453769    4.444601
 H    1.773207   -2.636769    4.183013
 H    3.528201    0.338748    2.714596
 H    1.842137    0.900399    2.739392
 H    2.605692    0.408882    1.207624
 H    0.125091   -2.842143   -2.578188
 H    1.522885   -2.975240   -3.660817
 H    1.277968   -4.185129   -2.366041
 H    3.723227   -3.492245   -1.107025
 H    3.795093   -2.856490   -2.775902
 H    4.968777    1.549873   -0.969653
 H    4.654789    3.952025   -0.380689
 H    0.715938    1.339098   -1.578817
 H    0.321075    4.963799   -0.789610
 H   -0.409470    3.645975   -1.746089
 H   -1.289913    2.088119    2.372942
 H   -2.860419    2.608306    1.756534
 H   -1.338180   -0.864382    0.461065
 H    0.862013   -0.651314   -0.044675
 H   -0.331610    3.795836    1.196886
 H   -7.497350   -2.059935   -1.753497
