71 
4rn6_ligand_ani.xyz
 S   -0.503675   -1.915723   -0.956866
 O   -0.211539   -3.198171   -1.571296
 O   -0.256046   -0.686280   -1.713278
 C   -3.778625    1.175295   -1.679252
 C   -4.771855    1.423313   -0.550439
 C   -5.409616    0.081965   -0.190145
 C   -4.392339   -1.017533    0.027365
 C   -4.711185   -2.150830    0.773054
 C   -3.793291   -3.181583    0.950609
 C   -2.527314   -3.075166    0.385506
 C   -2.175553   -1.947495   -0.346256
 C   -3.118716   -0.915318   -0.562474
 C   -5.812260    2.469194   -0.938554
 N   -2.758776    0.231099   -1.256443
 N    0.411741   -1.887029    0.438039
 C    0.705345   -0.606936    1.095818
 C    2.146502   -0.678051    1.641930
 O    2.347175   -0.906487    2.825557
 C   -0.282834   -0.359685    2.236329
 C   -0.298269    1.097993    2.730418
 C   -1.420217    1.966636    2.146595
 N   -1.383490    2.156202    0.705148
 C   -0.367237    2.856199    0.090296
 N   -0.237554    2.603848   -1.256975
 N    0.429308    3.710476    0.651357
 N    3.192585   -0.526866    0.756501
 C    3.012893    0.038405   -0.574591
 C    4.132180   -0.375256   -1.529591
 C    5.519516   -0.143368   -0.938494
 C    5.597128   -0.871660    0.400962
 C    4.525936   -0.381458    1.356822
 C    2.802215    1.558347   -0.579348
 O    2.565688    2.067280    0.621973
 O    2.772811    2.182617   -1.620145
 C    6.617171   -0.607036   -1.893511
 H   -4.318856    0.815447   -2.573565
 H   -3.266896    2.107667   -1.956588
 H   -4.200505    1.786400    0.315788
 H   -6.090387   -0.210769   -1.006618
 H   -6.041026    0.190242    0.700940
 H   -5.700396   -2.228080    1.220643
 H   -4.061678   -4.061845    1.527914
 H   -1.801799   -3.875361    0.508619
 H   -6.516128    2.657164   -0.119515
 H   -5.340332    3.423428   -1.200262
 H   -6.393321    2.133727   -1.807521
 H   -2.057739    0.027618   -1.957429
 H    1.184614   -2.532768    0.310110
 H    0.605596    0.200818    0.360161
 H   -0.008839   -1.028928    3.056753
 H   -1.278585   -0.668309    1.897925
 H   -0.414696    1.106754    3.820938
 H    0.669164    1.576028    2.524125
 H   -1.421454    2.947904    2.638629
 H   -2.393052    1.515797    2.378671
 H   -1.768177    1.391064    0.153789
 H    0.625222    2.983816   -1.627984
 H   -0.360400    1.635667   -1.539706
 H    0.181661    3.878050    1.623549
 H    2.085519   -0.346975   -1.011624
 H    4.009581   -1.442888   -1.753998
 H    4.006043    0.178356   -2.464856
 H    5.641718    0.935901   -0.754926
 H    6.586926   -0.731393    0.855104
 H    5.469341   -1.950157    0.233717
 H    4.698811    0.670904    1.625005
 H    4.522759   -0.958664    2.281283
 H    1.994481    2.896135    0.541321
 H    7.612029   -0.430529   -1.469710
 H    6.523790   -1.681848   -2.092821
 H    6.556931   -0.080434   -2.852177
