13 
4rpn_ligand_ani.xyz
 O   -0.018688   -2.945689   -0.002210
 C    0.018729   -1.605477   -0.000825
 C   -1.199870   -0.916044   -0.000048
Cl   -2.647818   -1.843600    0.000589
 C   -1.220191    0.477971    0.000189
Cl   -2.729090    1.302668    0.001101
 C   -0.020126    1.203263   -0.000312
Cl   -0.048790    2.922820   -0.001972
 C    1.200831    0.519750    0.000279
Cl    2.685200    1.385379    0.001470
 C    1.211855   -0.875288   -0.000090
Cl    2.700275   -1.765397    0.000201
 H    0.885915   -3.291335   -0.001089
