32 
4rqk_ligand_ani.xyz
Cl   -6.172388    1.244384   -0.242678
 C   -4.508431    0.773681   -0.068051
 C   -4.133545   -0.517000   -0.406535
 C   -2.794359   -0.854679   -0.247907
 C   -1.844876    0.060025    0.235368
 C   -2.254059    1.355539    0.563002
 C   -3.583972    1.709763    0.411907
 N   -0.540342   -0.417292    0.350714
 C   -0.493955   -1.647453   -0.012769
 N    0.647524   -2.415821   -0.007722
 S    2.045240   -1.932095    0.765279
 O    1.733911   -1.513290    2.119808
 O    2.995841   -2.998778    0.505166
 C    2.495911   -0.510325   -0.188873
 C    2.849710   -0.646497   -1.488085
 S    3.260715    0.853095   -2.234430
 C    2.955889    1.729065   -0.753816
 C    3.082441    3.110929   -0.549603
 C    2.773337    3.609713    0.702010
 C    2.344590    2.760018    1.732616
 C    2.222798    1.398194    1.533185
 C    2.540951    0.865328    0.272985
 S   -1.997883   -2.382072   -0.575161
 H   -4.869401   -1.222994   -0.778171
 H   -1.522741    2.068925    0.933070
 H   -3.917534    2.711729    0.664201
 H    0.641327   -3.379713   -0.314692
 H    2.901181   -1.567687   -2.055811
 H    3.411865    3.770526   -1.347766
 H    2.862218    4.676557    0.889766
 H    2.106588    3.177797    2.706653
 H    1.885086    0.738003    2.323905
