32 
4rqk_ligand_dft.xyz
Cl   -6.214065    1.123885   -0.333662
 C   -4.533242    0.681649   -0.143528
 C   -4.142748   -0.613491   -0.454604
 C   -2.798104   -0.925979   -0.288621
 C   -1.863854    0.019928    0.172162
 C   -2.288909    1.314328    0.473025
 C   -3.625963    1.642588    0.314737
 N   -0.559311   -0.430053    0.276465
 C   -0.481195   -1.662238   -0.077338
 N    0.700422   -2.364911   -0.107824
 S    2.103501   -1.901230    0.736439
 O    1.768512   -1.565889    2.103100
 O    3.002410   -2.995746    0.416943
 C    2.647660   -0.445256   -0.091807
 C    3.412218   -0.563546   -1.207039
 S    3.866661    0.960997   -1.865840
 C    3.010772    1.810597   -0.597943
 C    2.921586    3.197598   -0.448227
 C    2.209591    3.691159    0.629112
 C    1.598583    2.818822    1.545610
 C    1.683026    1.447897    1.396515
 C    2.395173    0.923968    0.305204
 S   -1.983914   -2.448804   -0.587251
 H   -4.864408   -1.340023   -0.809587
 H   -1.564497    2.043349    0.820157
 H   -3.977619    2.642520    0.542208
 H    0.711231   -3.345984   -0.355875
 H    3.743166   -1.486317   -1.664447
 H    3.400256    3.866039   -1.156638
 H    2.126733    4.764324    0.769921
 H    1.053757    3.229456    2.390223
 H    1.207802    0.774875    2.098335
