45 
4rrf_ligand_ani.xyz
 O    0.255657    3.150268   -1.153689
 C    1.241377    3.043818   -0.144061
 C    1.167208    1.631826    0.395843
 O   -0.104477    1.445918    1.010005
 C   -0.667259    0.225877    0.608163
 N   -2.109535    0.387771    0.584536
 C   -3.027206   -0.531016    0.128869
 N   -2.800428   -1.708278   -0.459788
 C   -3.938407   -2.347446   -0.759214
 N   -5.190643   -1.943485   -0.556304
 C   -5.382120   -0.746286    0.020426
 N   -6.639986   -0.301044    0.217941
 C   -4.269398    0.028191    0.393100
 N   -4.141472    1.272833    0.990872
 C   -2.853602    1.445144    1.083152
 C   -0.070704   -0.085196   -0.770385
 O   -0.005663   -1.464009   -0.999956
 C    1.312050    0.570529   -0.725732
 N    2.356143   -0.400939   -0.448563
 N    6.025703   -0.461020   -0.616663
 C    4.724379   -1.103880   -0.260984
 C    4.814732   -1.527685    1.213325
 O    6.124900   -2.059669    1.366364
 C    3.654799   -0.024664   -0.457345
 O    4.004561    1.149968   -0.553492
 H    0.182555    4.075018   -1.414166
 H    2.255164    3.202918   -0.541328
 H    1.060152    3.750157    0.678302
 H    1.937510    1.481461    1.161220
 H   -0.394823   -0.577018    1.310442
 H   -3.826270   -3.314722   -1.234515
 H   -7.413674   -0.919667    0.036233
 H   -6.781678    0.548672    0.741429
 H   -2.354238    2.311037    1.497499
 H   -0.687801    0.423613   -1.523202
 H   -0.925327   -1.800575   -0.955285
 H    1.524951    1.073745   -1.677953
 H    2.084391   -1.375646   -0.476490
 H    6.338584   -0.704983   -1.566439
 H    5.815333    0.557427   -0.549277
 H    6.708745   -0.781416    0.090808
 H    4.539088   -1.977547   -0.886417
 H    4.665034   -0.653635    1.864964
 H    4.047198   -2.276639    1.452552
 H    6.291711   -2.218144    2.302613
