47 
4rrn_ligand_ani.xyz
 C    0.127208   -0.555414   -0.250276
 C    0.268675   -1.946939   -0.196262
 C   -0.858465   -2.763658   -0.104889
 C   -2.121105   -2.198299   -0.065768
 C   -2.289414   -0.809300   -0.154125
 C   -1.149050   -0.010805   -0.238484
 C    1.325435    0.362456   -0.275857
 C    2.587568   -0.447929   -0.622142
 C    2.599718   -1.770884    0.143214
 O    1.481892   -2.560457   -0.271184
 O    3.718341    0.336441   -0.306306
 C    4.918449   -0.318146   -0.682076
 C    5.088315   -1.633512    0.074426
 C    3.877220   -2.535514   -0.173102
 C   -3.631372   -0.183978   -0.223962
 C   -4.735621   -0.608716    0.532284
 N   -5.935440   -0.096647    0.498624
 C   -6.144543    0.925932   -0.338299
 C   -5.152046    1.451350   -1.149735
 C   -3.882065    0.888111   -1.078361
 F   -4.572378   -1.624611    1.393173
 N    1.141717    1.505009   -1.163765
 C    1.482984    2.700768   -0.555885
 N    1.592625    2.430486    0.812093
 C    1.529528    1.079056    1.076991
 O    1.624433    0.567945    2.170052
 C    1.872711    3.430499    1.814751
 N    1.637456    3.797468   -1.178325
 H   -0.720741   -3.838947   -0.058079
 H   -2.995166   -2.836964    0.016302
 H   -1.240968    1.070866   -0.285074
 H    2.565552   -0.665548   -1.703322
 H    2.517314   -1.556050    1.217532
 H    5.733807    0.378526   -0.465398
 H    4.912932   -0.509923   -1.769208
 H    5.180665   -1.416795    1.146806
 H    6.015025   -2.125968   -0.242379
 H    3.924072   -3.449012    0.429072
 H    3.841862   -2.843287   -1.227430
 H   -7.153346    1.331603   -0.348539
 H   -5.357591    2.281950   -1.817283
 H   -3.079235    1.262340   -1.709102
 H    1.373958    1.424033   -2.141526
 H    2.865935    3.871586    1.670373
 H    1.840174    2.931470    2.783394
 H    1.117928    4.223296    1.787159
 H    1.872627    4.552218   -0.537389
