45 
4rrq_ligand_dft.xyz
 O   -0.675533    2.814278   -1.039319
 C    0.483764    3.121155   -0.297892
 C    1.077806    1.819750    0.214190
 O    0.214098    1.208743    1.175565
 C   -0.465011    0.121670    0.622861
 N   -1.901104    0.298007    0.726086
 C   -2.802854   -0.577897    0.183503
 N   -2.540029   -1.684818   -0.534356
 C   -3.668759   -2.291779   -0.913607
 N   -4.925972   -1.929463   -0.666208
 C   -5.154586   -0.810335    0.045138
 N   -6.422125   -0.442924    0.281849
 C   -4.049866   -0.066737    0.509356
 N   -3.932270    1.103441    1.232816
 C   -2.642989    1.283411    1.338723
 C   -0.032604   -0.024161   -0.856899
 O    0.175029   -1.358593   -1.227594
 C    1.280141    0.767913   -0.890535
 N    2.345537   -0.184652   -0.585529
 N    5.959978   -0.450308   -0.518390
 C    4.606912   -1.012227   -0.224431
 C    4.581267   -1.394086    1.260645
 O    5.793161   -2.078355    1.486068
 C    3.629320    0.141653   -0.523826
 O    4.101676    1.274725   -0.618035
 H   -1.146813    3.628026   -1.249268
 H    1.239084    3.635925   -0.910775
 H    0.256697    3.751894    0.572022
 H    2.018088    2.050547    0.721654
 H   -0.198809   -0.792262    1.170708
 H   -3.547616   -3.198765   -1.499746
 H   -7.174507   -1.019959   -0.059397
 H   -6.623192    0.378311    0.829244
 H   -2.158571    2.105903    1.843567
 H   -0.762124    0.476583   -1.498077
 H   -0.706289   -1.791253   -1.123951
 H    1.468225    1.229456   -1.862935
 H    2.044138   -1.155825   -0.652222
 H    6.293473   -0.680821   -1.456536
 H    5.828766    0.585349   -0.463964
 H    6.627432   -0.813593    0.177901
 H    4.449919   -1.892089   -0.850806
 H    4.504679   -0.486334    1.875826
 H    3.700360   -2.018159    1.447456
 H    5.876259   -2.314263    2.418586
