48 
4rrr_ligand_xtb.xyz
 C    3.434149    0.455275   -0.639507
 N    5.779901    0.094744   -0.636386
 O    3.849329    1.609071   -0.580686
 N   -4.960597   -1.833433   -0.856359
 C   -3.711301   -2.139196   -1.134489
 N   -2.604696   -1.562581   -0.683958
 C   -2.869323   -0.552809    0.156149
 C   -4.145576   -0.116184    0.534326
 C   -5.232148   -0.820904   -0.022667
 N   -6.509028   -0.525576    0.235789
 N   -4.026631    0.944876    1.397386
 C   -2.752890    1.133567    1.535795
 N    2.189729    0.066146   -0.787494
 N   -1.987758    0.259985    0.810738
 C    4.513693   -0.651477   -0.486224
 C    4.478502   -1.258586    0.942473
 O    5.820230   -1.622436    1.216310
 C   -0.564189    0.104813    0.670087
 C   -0.206093    0.047409   -0.843045
 O    0.045582   -1.256620   -1.271897
 C    1.039975    0.939668   -0.930218
 C    0.842037    1.895524    0.258324
 O    0.179153    1.131255    1.254001
 C    0.044236    3.145885   -0.138375
 O   -1.091653    2.768954   -0.880965
 C    3.526253   -2.442094    1.034876
 H    5.408366    1.111255   -0.544062
 H    6.414156   -0.192403    0.126575
 H    6.239815   -0.031649   -1.538683
 H   -3.567941   -2.964185   -1.818979
 H   -7.234541   -1.078674   -0.185529
 H   -6.727876    0.220767    0.871214
 H   -2.310084    1.887344    2.154419
 H    1.932573   -0.909605   -0.922134
 H    4.413833   -1.437305   -1.235842
 H    4.165877   -0.475475    1.652568
 H    5.854631   -2.185358    1.996846
 H   -0.280566   -0.846124    1.156293
 H   -1.015229    0.511927   -1.416007
 H   -0.833177   -1.708766   -1.239891
 H    1.099773    1.488963   -1.871897
 H    1.792008    2.220660    0.690771
 H   -0.240571    3.663844    0.784971
 H    0.697248    3.802752   -0.729097
 H   -1.654243    3.540037   -1.012135
 H    3.551336   -2.856710    2.040365
 H    3.817330   -3.221706    0.334682
 H    2.505769   -2.135856    0.828403
