47 
4rrs_ligand_xtb.xyz
 C    1.886204   -2.096743    0.249360
 C    2.153354   -0.733336    0.125149
 C    1.088152    0.141884   -0.047269
 C   -0.222495   -0.309150   -0.090433
 C   -0.479732   -1.668265    0.099184
 C    0.587389   -2.553522    0.249820
 C    3.523845   -0.211235    0.175550
 O   -1.730239   -2.200285    0.141129
 C   -2.788927   -1.284718    0.409730
 C   -2.657705   -0.084551   -0.549621
 C   -1.340153    0.683876   -0.356125
 C   -1.040040    1.566324   -1.599250
 O   -0.736961    2.853921   -1.115399
 C   -1.104916    2.939947    0.198890
 N   -1.381693    1.693337    0.679439
 N   -1.129463    3.978397    0.904346
 O   -3.741619    0.800837   -0.422842
 C   -4.961099    0.186795   -0.782117
 C   -5.271221   -1.029210    0.091205
 C   -4.098133   -2.007682    0.063039
 C   -2.755054   -0.870370    1.882577
 C    4.598524   -0.822548   -0.478904
 N    5.836732   -0.400240   -0.465391
 C    6.114385    0.697915    0.218886
 C    5.146633    1.412366    0.904693
 C    3.840862    0.949603    0.878988
 F    4.385608   -1.926009   -1.214549
 H    2.696515   -2.797308    0.375579
 H    1.279064    1.197481   -0.172508
 H    0.365469   -3.601246    0.373615
 H   -2.636068   -0.508770   -1.572982
 H   -0.193432    1.194141   -2.181136
 H   -1.923504    1.633720   -2.245539
 H   -1.976826    1.608267    1.481841
 H   -0.870402    4.818882    0.403088
 H   -5.721642    0.960737   -0.665771
 H   -4.918377   -0.118741   -1.839279
 H   -6.173179   -1.517056   -0.278859
 H   -5.456729   -0.701232    1.114394
 H   -3.992777   -2.437510   -0.935825
 H   -4.258820   -2.827789    0.763358
 H   -3.441526   -0.046847    2.057559
 H   -3.045483   -1.714654    2.504029
 H   -1.748751   -0.569151    2.165775
 H    7.150934    1.003019    0.205620
 H    5.404852    2.305620    1.450462
 H    3.062489    1.472003    1.415535
