47 
4rrs_ligand_ani.xyz
 C    1.881549   -2.116425    0.177646
 C    2.155074   -0.749223    0.037389
 C    1.079721    0.124907   -0.134970
 C   -0.238045   -0.314415   -0.152643
 C   -0.485199   -1.677538    0.053962
 C    0.576121   -2.573237    0.194956
 C    3.530795   -0.206416    0.121033
 O   -1.743215   -2.195352    0.084113
 C   -2.801050   -1.283496    0.420158
 C   -2.682743   -0.085696   -0.533520
 C   -1.368383    0.683299   -0.374127
 C   -1.110472    1.594759   -1.603248
 O   -0.627144    2.828925   -1.073568
 C   -1.065183    2.937567    0.218242
 N   -1.410867    1.683961    0.669236
 N   -1.122090    4.001530    0.895449
 O   -3.765084    0.805758   -0.357201
 C   -4.991740    0.202901   -0.740930
 C   -5.295208   -1.021701    0.118457
 C   -4.114444   -1.997140    0.091201
 C   -2.704254   -0.914636    1.897014
 C    4.662920   -0.845963   -0.409336
 N    5.892499   -0.413480   -0.347502
 C    6.105568    0.746933    0.283101
 C    5.087230    1.491656    0.855833
 C    3.787903    1.004613    0.761552
 F    4.498655   -2.006311   -1.062772
 H    2.701746   -2.818531    0.291391
 H    1.272560    1.185652   -0.287165
 H    0.351834   -3.627669    0.319452
 H   -2.694076   -0.496177   -1.557279
 H   -0.358857    1.199341   -2.291215
 H   -2.047273    1.784733   -2.141240
 H   -2.109079    1.642190    1.397807
 H   -0.785664    4.781436    0.335912
 H   -5.759689    0.974487   -0.633382
 H   -4.943806   -0.085722   -1.804886
 H   -6.206533   -1.511129   -0.244447
 H   -5.494443   -0.698891    1.148500
 H   -4.011414   -2.442695   -0.907171
 H   -4.262786   -2.822629    0.797194
 H   -3.501480   -0.223691    2.183647
 H   -2.791520   -1.823463    2.501293
 H   -1.739762   -0.451513    2.128941
 H    7.139101    1.082297    0.322699
 H    5.296295    2.430911    1.357860
 H    2.962741    1.554653    1.209381
