33 
4rs0_ligand_dft.xyz
 C   -3.326155    0.859052    0.133464
 C    2.976933   -0.750022   -0.449140
 C    3.735718    0.341433    0.332651
 C    3.307839    1.745473   -0.097297
 C    5.245369    0.154642    0.169336
 C   -2.815444   -0.549169    0.374357
 C   -3.532016   -1.546819   -0.540384
 C   -1.306973   -0.575024    0.167271
 C   -0.463349   -1.101803    1.144683
 C    0.909435   -1.169869    0.935990
 C    1.481239   -0.708355   -0.251385
 C    0.631642   -0.177665   -1.223981
 C   -0.742165   -0.111347   -1.021963
 O   -3.240946    1.622753    1.238361
 O   -3.738063    1.286787   -0.919391
 H    3.359161   -1.731628   -0.140293
 H    3.211353   -0.644257   -1.516863
 H    3.487515    0.219488    1.396629
 H    3.516077    1.902721   -1.163604
 H    3.854389    2.509688    0.465964
 H    2.237220    1.905770    0.062931
 H    5.800376    0.898234    0.751607
 H    5.564284   -0.840321    0.500157
 H    5.537500    0.268626   -0.882187
 H   -3.019049   -0.793010    1.421913
 H   -3.375936   -1.285066   -1.589871
 H   -3.139191   -2.553004   -0.369437
 H   -4.609616   -1.552005   -0.349211
 H   -0.885142   -1.468913    2.077186
 H    1.549297   -1.589044    1.709428
 H    1.054299    0.193659   -2.154523
 H   -1.382784    0.310378   -1.792177
 H   -3.540130    2.509210    0.978984
