45 
4rsc_ligand_dft.xyz
 O    3.625403   -1.442583   -1.380833
 C    3.959914   -0.140038   -0.877174
 C    4.828450   -0.385645    0.367774
 C    4.085606   -1.094644    1.492731
 N    3.685156   -2.481880    1.040637
 C    2.737176    0.700196   -0.564985
 C    1.492511    0.114602   -0.367708
 C    0.378147    0.896773   -0.030215
 C    0.529501    2.277400    0.117896
 C    1.781819    2.854207   -0.083414
 C    2.884459    2.083150   -0.424361
 O   -0.773525    0.221758    0.132644
 C   -1.968149    0.955472    0.404217
 C   -3.140408   -0.010311    0.432950
 C   -4.418275    0.741632    0.833798
 C   -5.634781   -0.188190    0.855115
 C   -5.816547   -0.898840   -0.488528
 C   -4.545890   -1.653753   -0.887922
 C   -3.329856   -0.723647   -0.912108
 H    3.058243   -1.345461   -2.158369
 H    4.580106    0.375708   -1.619558
 H    5.165771    0.579639    0.755714
 H    5.724810   -0.948845    0.081739
 H    4.691882   -1.200501    2.393305
 H    3.158529   -0.573087    1.739044
 H    4.485513   -3.119392    1.032164
 H    3.353155   -2.391402    0.051731
 H    2.958267   -2.891101    1.631785
 H    1.331617   -0.951866   -0.496322
 H   -0.311726    2.907211    0.380027
 H    1.890353    3.928756    0.023480
 H    3.849366    2.554263   -0.592107
 H   -2.117719    1.710812   -0.380450
 H   -1.865435    1.471268    1.368909
 H   -2.930697   -0.767544    1.202887
 H   -4.597527    1.551113    0.110630
 H   -4.286934    1.215489    1.814651
 H   -6.534087    0.382382    1.110507
 H   -5.501380   -0.938536    1.646873
 H   -6.666792   -1.587658   -0.440316
 H   -6.054464   -0.155811   -1.262304
 H   -4.674526   -2.126075   -1.867967
 H   -4.366451   -2.464443   -0.167478
 H   -2.422922   -1.281169   -1.169714
 H   -3.470126    0.035825   -1.696213
