45 
4rsc_ligand_ani.xyz
 O    3.700675   -1.274274   -1.439654
 C    3.996526   -0.030602   -0.793697
 C    4.805525   -0.358936    0.464774
 C    4.088743   -1.289643    1.451742
 N    3.838661   -2.642211    0.845633
 C    2.732722    0.765103   -0.494252
 C    1.492771    0.158258   -0.328585
 C    0.361766    0.923537   -0.025454
 C    0.469605    2.304754    0.120025
 C    1.715853    2.906928   -0.042684
 C    2.836431    2.151525   -0.346238
 O   -0.801724    0.229213    0.102281
 C   -1.988432    0.960854    0.362495
 C   -3.160931   -0.009190    0.428510
 C   -4.450028    0.735560    0.793219
 C   -5.659860   -0.200934    0.842676
 C   -5.822158   -0.959746   -0.476794
 C   -4.539195   -1.714129   -0.835064
 C   -3.334389   -0.772720   -0.889314
 H    3.115440   -1.082084   -2.183505
 H    4.631529    0.572537   -1.460576
 H    5.065925    0.573152    0.975917
 H    5.750595   -0.819536    0.151310
 H    4.686218   -1.408884    2.354642
 H    3.123354   -0.869916    1.732578
 H    4.687695   -3.228874    0.930140
 H    3.633146   -2.485793   -0.163258
 H    3.043744   -3.117168    1.302278
 H    1.373381   -0.915953   -0.432373
 H   -0.396376    2.915061    0.356056
 H    1.802320    3.985569    0.069529
 H    3.803707    2.633824   -0.476243
 H   -2.152044    1.699002   -0.438259
 H   -1.885948    1.504424    1.313363
 H   -2.940406   -0.742477    1.219520
 H   -4.628523    1.516987    0.037427
 H   -4.325590    1.251183    1.754901
 H   -6.570301    0.363417    1.077499
 H   -5.520453   -0.924895    1.658797
 H   -6.672168   -1.650822   -0.421442
 H   -6.053582   -0.242763   -1.278293
 H   -4.655355   -2.238923   -1.790937
 H   -4.353078   -2.487200   -0.074952
 H   -2.417122   -1.323985   -1.121013
 H   -3.478043   -0.043634   -1.701706
