97 
4rsp_ligand_ani.xyz
 O    1.818328    0.823476    0.868138
 C    2.750293    1.512294    0.479795
 O    3.805466    1.905392    1.201022
 C    4.017196    1.375604    2.548553
 C    4.145941   -0.145919    2.501651
 C    5.334332    2.011225    2.977243
 C    2.883636    1.815892    3.469570
 N    2.850063    1.953384   -0.804857
 C    1.714238    1.810749   -1.685427
 C    1.507097    0.376042   -2.205278
 O    0.418354    0.042608   -2.668008
 C    1.804599    2.779656   -2.853714
 O    3.079958    2.595257   -3.434913
 N    2.544198   -0.476662   -2.084684
 C    2.362014   -1.893616   -2.337182
 C    1.439074   -2.606678   -1.328621
 O    0.919855   -3.669634   -1.632151
 C    3.702902   -2.641514   -2.445829
 C    4.556951   -2.537059   -1.181392
 C    4.485993   -2.176647   -3.673858
 N    1.269682   -2.033345   -0.106722
 C    0.260453   -2.516754    0.812617
 C   -1.156698   -2.000293    0.493447
 O   -2.151628   -2.569533    0.925402
 C    0.678803   -2.103789    2.234905
 C   -0.260708   -2.482272    3.385362
 C    0.347325   -2.009906    4.706802
 C   -0.557775   -3.980549    3.419611
 O   -5.942976   -1.148270   -0.766019
 C   -6.866464   -1.048950    0.336965
 C   -8.177665   -0.408550   -0.078361
 N   -1.215728   -0.848963   -0.222428
 C   -2.455017   -0.181091   -0.572614
 C   -2.165130    1.303203   -0.812091
 C   -1.661320    2.047730    0.425220
 C   -3.080011   -0.866638   -1.796952
 C   -1.318733    3.502878    0.106160
 O   -0.666899    3.889989   -0.849704
 N   -1.853417    4.279392    1.086161
 C   -2.434771    3.533099    2.190393
 C   -2.700822    2.157369    1.555342
 C   -4.390833   -0.225274   -2.280763
 C   -5.335311   -0.006177   -1.121238
 O   -5.491060    1.043689   -0.536370
 H    3.181258   -0.612339    2.288950
 H    4.864381   -0.451326    1.733635
 H    4.493200   -0.509074    3.473839
 H    5.601489    1.686141    3.987818
 H    6.141350    1.720925    2.296990
 H    5.252385    3.102763    2.976484
 H    3.119988    1.528477    4.499416
 H    1.944320    1.339637    3.179327
 H    2.756995    2.902391    3.426031
 H    3.557858    2.640863   -1.017492
 H    0.797545    2.036790   -1.130413
 H    1.660978    3.803997   -2.479019
 H    0.990529    2.561062   -3.561230
 H    3.115884    3.089547   -4.261746
 H    3.415197   -0.115392   -1.722621
 H    1.827846   -1.998087   -3.288171
 H    3.430008   -3.695866   -2.585229
 H    3.999945   -2.824108   -0.283155
 H    5.429521   -3.194126   -1.261688
 H    4.936049   -1.517966   -1.028082
 H    3.890642   -2.268021   -4.589442
 H    4.792524   -1.128170   -3.574985
 H    5.393142   -2.777114   -3.801338
 H    1.666566   -1.120568    0.090174
 H    0.211518   -3.606543    0.722450
 H    0.825978   -1.012910    2.236711
 H    1.663964   -2.561678    2.417138
 H   -1.211996   -1.957269    3.232206
 H   -0.321778   -2.219200    5.549163
 H    1.300138   -2.520188    4.899603
 H    0.544105   -0.931216    4.689394
 H    0.369718   -4.568239    3.455009
 H   -1.145574   -4.234823    4.309219
 H   -1.133714   -4.283572    2.540091
 H   -6.389850   -0.480678    1.141889
 H   -7.008379   -2.083142    0.658460
 H   -8.012573    0.625831   -0.390782
 H   -8.636843   -0.961239   -0.903257
 H   -8.869023   -0.408125    0.770741
 H   -0.406589   -0.562438   -0.758423
 H   -3.137273   -0.308880    0.276763
 H   -3.083956    1.796761   -1.147299
 H   -1.430408    1.401728   -1.622789
 H   -0.725515    1.595817    0.790623
 H   -3.261173   -1.909931   -1.519468
 H   -2.348969   -0.865789   -2.617126
 H   -1.625441    5.260650    1.143108
 H   -3.348154    4.017600    2.546581
 H   -1.733918    3.450640    3.032822
 H   -3.706147    2.130117    1.116065
 H   -2.627323    1.341186    2.281178
 H   -4.866151   -0.873729   -3.022277
 H   -4.200568    0.743993   -2.749209
