27 
4rux_ligand_ani.xyz
 C    0.640747    1.366223   -0.289332
 C   -0.738163    1.305881   -0.209373
 C   -1.371631    0.077413   -0.024844
 S   -3.136730    0.076246    0.154084
 O   -3.488808   -0.155437    1.546173
 O   -3.639211    1.237169   -0.565544
 N   -3.588870   -1.306583   -0.672926
 C   -0.631683   -1.093306    0.069871
 C    0.756595   -1.040196   -0.012398
 C    1.393362    0.189416   -0.188805
 O    2.739742    0.349624   -0.271938
 C    3.552337   -0.810989   -0.214366
 C    5.003812   -0.388689   -0.350558
 C    5.471471    0.507486    0.790891
 H    1.159293    2.309067   -0.430211
 H   -1.345278    2.202318   -0.292122
 H   -4.227267   -1.841361   -0.091474
 H   -4.011029   -1.067620   -1.564642
 H   -1.127631   -2.052093    0.197315
 H    1.329415   -1.958364    0.059023
 H    3.272902   -1.500302   -1.024077
 H    3.390341   -1.327235    0.743964
 H    5.132035    0.122683   -1.312048
 H    5.612456   -1.300734   -0.392235
 H    4.907666    1.444453    0.805107
 H    5.327623    0.016786    1.760690
 H    6.534374    0.748258    0.689799
