27 
4ruy_ligand_xtb.xyz
 C    5.477098    0.533503    0.750690
 C    5.006821   -0.318857   -0.420971
 C    3.573077   -0.803961   -0.227414
 O    2.720592    0.326011   -0.291247
 C    1.388460    0.162569   -0.153546
 C    0.623486    1.334206   -0.229812
 C   -0.747531    1.280196   -0.108808
 C   -1.363846    0.058088    0.090138
 S   -3.133854   -0.020838    0.196568
 O   -3.527539   -1.225755    0.868431
 O   -3.651479    1.238594    0.647682
 N   -3.539869   -0.190168   -1.434871
 C   -0.628562   -1.104252    0.173360
 C    0.750068   -1.060739    0.053846
 H    4.812564    1.382896    0.882270
 H    5.482231   -0.048892    1.669452
 H    6.483290    0.902763    0.570687
 H    5.653536   -1.190237   -0.535543
 H    5.050266    0.265298   -1.341123
 H    3.470837   -1.298671    0.747661
 H    3.306487   -1.518192   -1.018214
 H    1.137968    2.269228   -0.383893
 H   -1.354953    2.169549   -0.152385
 H   -4.029827   -1.053421   -1.604837
 H   -4.068089    0.600409   -1.766904
 H   -1.145279   -2.035019    0.343918
 H    1.314707   -1.976447    0.124079
