32 
4rvl_ligand_xtb.xyz
 N    9.310178    5.581433   15.560177
 C    8.801539    6.411608   16.164065
 C    8.122329    7.411158   16.910249
 N    8.841887    8.474467   17.289092
 C    8.271777    9.431907   17.981070
 C    6.926570    9.365431   18.331878
 N    6.132072   10.229655   19.034866
 C    4.870225    9.710635   19.108721
 N    3.842853   10.275119   19.719717
 C    2.707105    9.604823   19.669741
 C    6.769424    7.233854   17.201248
 C    6.156328    8.239547   17.932550
 C    4.830600    8.463673   18.431711
 C    3.626099    7.777496   18.400438
 C    2.530544    8.367548   19.030503
 C    1.209695    7.714652   19.052140
 C    0.533355    7.557815   20.258982
 C   -0.698675    6.936441   20.311132
 C   -1.280813    6.467053   19.144245
 C   -0.635542    6.627899   17.934933
 C    0.606968    7.250444   17.876083
 O    1.171610    7.403561   16.648413
 H    8.902807   10.265428   18.258109
 H    6.416097   11.105030   19.440766
 H    1.869392   10.078998   20.162394
 H    6.238900    6.354966   16.869444
 H    3.548647    6.804224   17.935254
 H    1.000582    7.913609   21.165750
 H   -1.202394    6.816387   21.257847
 H   -2.242578    5.978343   19.175734
 H   -1.074138    6.281728   17.012620
 H    1.990556    7.911068   16.720131
