65 
4rx5_ligand_ani.xyz
 C    1.018917   -1.298621    1.569837
 C    1.134078   -1.865763    0.171139
 C    2.390138   -2.153341   -0.422088
 C    2.454612   -2.732463   -1.693591
 C    1.299615   -3.082410   -2.381513
 C    0.088201   -2.779184   -1.803548
 C   -0.022036   -2.118687   -0.579774
 N   -1.332885   -1.805308   -0.141787
 C   -1.781573   -0.551388    0.194043
 O   -1.036648    0.416319    0.322901
 C   -3.249810   -0.453603    0.387342
 C   -4.157611   -1.447166    0.586436
 C   -5.504139   -0.969643    0.720645
 C   -6.686597   -1.703582    0.920298
 C   -7.890812   -1.033611    1.007988
 C   -7.942909    0.366318    0.900592
 C   -6.790808    1.109309    0.708603
 C   -5.570719    0.432167    0.622458
 S   -3.990884    1.127018    0.397401
 F   -1.057572   -3.118727   -2.439808
 C    3.678285   -1.802587    0.221594
 C    4.649647   -1.128362   -0.441269
 C    5.483368   -0.123304    0.241408
 C    5.439922   -0.297026    1.765669
 O    5.918448    0.536590    2.514777
 N    4.900304   -1.459191    2.249480
 N    3.925850   -2.230790    1.558870
 N    5.142273    1.268474   -0.095648
 C    3.812442    1.652175   -0.304066
 C    2.885309    1.129157   -1.243773
 C    1.775198    1.928372   -1.100433
 N    2.060379    2.830429   -0.133952
 N    3.303899    2.687626    0.365424
 C    1.122136    3.766222    0.450002
 C   -0.042434    4.000291   -0.509329
 N   -0.574825    2.705963   -1.034291
 C    0.470493    2.006370   -1.841588
 C   -1.801897    2.920085   -1.818285
 H    1.166865   -0.214319    1.557468
 H    0.022169   -1.488052    1.975421
 H    1.765589   -1.738076    2.234959
 H    3.422225   -2.960931   -2.132553
 H    1.325782   -3.570387   -3.350152
 H   -2.026711   -2.410963   -0.556127
 H   -3.908180   -2.500732    0.683084
 H   -6.644964   -2.787193    1.002664
 H   -8.810146   -1.592506    1.160686
 H   -8.901488    0.873243    0.969771
 H   -6.832453    2.191958    0.626343
 H    4.709222   -1.117451   -1.522426
 H    6.535710   -0.242600   -0.065711
 H    4.688229   -1.396477    3.240140
 H    4.265614   -3.190395    1.548192
 H    5.563096    1.890859    0.588324
 H    3.007172    0.290775   -1.912040
 H    1.651122    4.701807    0.647189
 H    0.762550    3.373905    1.411078
 H   -0.850668    4.530857   -0.000884
 H    0.288541    4.607300   -1.360059
 H   -0.794892    2.069227   -0.252630
 H    0.110565    1.003572   -2.084546
 H    0.605754    2.545510   -2.789564
 H   -2.231454    1.962495   -2.124611
 H   -2.533782    3.474886   -1.225558
 H   -1.578626    3.507892   -2.719480
