53 
4rx9_ligand_ani.xyz
 C    1.629072    1.549344    0.113229
 C    2.967378    1.526063    0.861309
 C   -3.712174    1.724708   -0.679026
 C   -3.656501    0.385603   -0.304348
 C   -4.854675   -0.493004   -0.235832
 C   -2.358461   -0.082013    0.052217
 C   -1.001975   -2.074756    0.664674
 C   -1.012058   -3.108113    1.607567
 C    0.134944   -3.860726    1.832737
 C    1.296740   -3.616698    1.112296
 C    1.285121   -2.601060    0.160632
 C    0.153849   -1.825618   -0.073800
 C    4.385168   -2.489920   -1.355077
 C    3.727453   -1.425226   -1.977997
 N    1.807185    1.603556   -1.369584
 C    3.651427    2.894514    0.973253
 C    2.691525    3.933657    1.560731
 C    1.415631    4.041732    0.723221
 C    0.698444    2.690666    0.574404
 N   -0.406857    2.835796   -0.379683
 C   -1.493464    1.992102   -0.343944
 N   -2.662638    2.539663   -0.714179
 N   -5.963359   -0.081482   -0.924974
 O   -4.888314   -1.531264    0.425233
 N   -2.196402   -1.368238    0.463402
 N    2.451249   -2.338839   -0.597605
 N    3.556088   -3.050379   -0.481820
 N    2.495592   -1.338509   -1.474122
 N   -1.290425    0.719230    0.009670
 H    1.107976    0.619970    0.318178
 H    3.632585    0.787497    0.396905
 H    2.763861    1.160496    1.876969
 H   -4.664985    2.187771   -0.935941
 H   -1.923169   -3.310585    2.166857
 H    0.119025   -4.654809    2.574923
 H    2.196603   -4.199550    1.272046
 H    0.161410   -1.044322   -0.820687
 H    5.388357   -2.863924   -1.498665
 H    4.097121   -0.756544   -2.738236
 H    1.918421    0.624371   -1.719916
 H    2.652505    2.163633   -1.595276
 H    0.965775    2.056650   -1.778274
 H    4.550903    2.807408    1.594337
 H    3.995177    3.234539   -0.014270
 H    2.424523    3.639399    2.586222
 H    3.179828    4.912812    1.633010
 H    0.725766    4.763829    1.181250
 H    1.659810    4.429975   -0.275664
 H    0.313639    2.397483    1.561330
 H   -0.725283    3.787927   -0.503257
 H   -6.710822   -0.760164   -0.941977
 H   -5.872590    0.503325   -1.741101
 H   -3.067629   -1.850189    0.684158
