77 
4ryc_ligand_dft.xyz
 C   -1.792088    1.992160    1.257667
 C   -3.669593   -1.099409    0.190099
 C   -4.295015   -1.479581    1.387933
 C   -3.368210    0.471894    2.479425
 C   -2.892966    3.189193   -0.616224
 C   -4.138680   -0.683128    2.522394
 C    4.598943   -0.472058    1.580415
 C    4.452911   -1.192952   -0.731259
 C    0.414921    1.593642   -1.595093
 C    1.047258    0.362004    0.366144
 C    4.880454   -1.776297    1.958135
 C    4.735956   -2.495638   -0.332141
 C    4.951845   -2.807613    1.012214
 C   -2.405623   -3.386461   -2.202632
 S    4.040550    1.475050   -0.284043
 N   -1.675634    2.718405    0.088796
 N    2.894727    1.988379    0.806821
 C   -0.441135    3.479583   -0.080969
 C    0.778651    2.623908   -0.505428
 C   -2.780734    0.871414    1.278802
 C    1.448786    1.808697    0.651057
 C    4.376214   -0.191500    0.232600
 C   -2.936236    0.075120    0.142505
 O    3.423675    1.354254   -1.614943
 O    5.185656    2.335718   -0.084439
 N    0.971772    0.282424   -1.125833
 O   -1.012674    2.135252    2.193422
 O   -3.741547   -1.864633   -0.939747
 O   -4.987835   -2.645318    1.483321
 O   -0.397271   -2.072577   -1.590037
 C   -3.082354   -3.131966   -0.865114
 C   -1.401442   -2.304005   -2.581866
 C   -3.250342    4.620156   -0.203858
 C   -2.783537    3.039953   -2.132084
 C    5.246187   -4.218900    1.446280
 C   -6.190877   -2.700796    0.716973
 C    0.503083   -3.152250   -1.402050
 H   -3.212242    1.064596    3.374364
 H   -3.699669    2.538087   -0.274112
 H   -4.618269   -1.004045    3.440989
 H    4.540921    0.317154    2.322646
 H    4.310834   -0.953785   -1.780153
 H    0.844564    1.818858   -2.570127
 H   -0.663970    1.474564   -1.679577
 H    1.739961   -0.389233    0.746477
 H    0.047047    0.164457    0.756238
 H    5.054874   -1.999501    3.006743
 H    4.807723   -3.277415   -1.082863
 H   -1.932897   -4.375142   -2.179442
 H   -3.161991   -3.421723   -2.994692
 H    3.181085    2.869135    1.220622
 H   -0.197595    4.029733    0.833886
 H   -0.613524    4.218594   -0.865608
 H    1.528961    3.316274   -0.895821
 H    1.018899    2.102593    1.608223
 H   -2.454377    0.334242   -0.794491
 H    0.413690   -0.545618   -1.430327
 H    1.930521    0.222744   -1.498391
 H   -3.812319   -3.916379   -0.641363
 H   -2.344418   -3.111314   -0.055298
 H   -0.915850   -2.548756   -3.536642
 H   -1.919201   -1.348196   -2.688327
 H   -3.325586    4.703614    0.884398
 H   -4.215901    4.899009   -0.636003
 H   -2.511637    5.348432   -0.555263
 H   -2.673398    1.990852   -2.426610
 H   -1.942556    3.609006   -2.544607
 H   -3.693490    3.419136   -2.605475
 H    5.530440   -4.849259    0.599908
 H    4.366835   -4.668966    1.921161
 H    6.058944   -4.243111    2.177971
 H   -6.619225   -3.686582    0.898973
 H   -6.892805   -1.930197    1.054455
 H   -5.989846   -2.571692   -0.351326
 H    0.022445   -3.987208   -0.881327
 H    0.901675   -3.506034   -2.361968
 H    1.328180   -2.784772   -0.785196
