77 
4rz1_ligand_dft.xyz
 C   -1.206020   -0.415614    0.426678
 C   -1.297034    0.780028   -0.514982
 C    1.609546    2.653264   -0.032982
 C    1.496079   -0.789544   -1.211038
 C    2.838287   -1.203723   -0.731114
 C    3.522150   -2.198190   -1.424304
 C    5.340981   -2.089051    0.165105
 C    4.635067   -1.101188    0.886600
 C    4.770072   -2.631625   -0.987502
 C    3.397908   -0.681309    0.440906
 C    7.294793   -3.424145    0.002695
 C    6.314707    0.237540    1.873950
 C    6.076875    1.595593    2.515502
 C    4.868243    2.328652    1.932079
 C    5.840215    3.183567   -0.051264
 C   -4.928542    1.022078   -0.726624
 N   -1.685399   -1.534326   -0.450274
 C   -2.674720    0.561476   -1.154280
 C   -2.771114   -0.968560   -1.335905
 C   -0.225523    0.819707   -1.632410
 O   -3.645953    1.036564   -0.234956
 N    1.133824    0.523295   -1.204720
 C    2.078847    1.662572   -1.093625
 C    2.322283    2.322363   -2.451114
 O    0.692548   -1.668669   -1.587588
 O    6.540013   -2.429165    0.670634
 O    5.140606   -0.570810    2.030623
 O    4.838683    2.372188    0.517898
 N   -5.777380    1.591778    0.146598
 O   -5.197676    0.550228   -1.814210
 C   -7.225857    1.486231   -0.024245
 C   -7.796453    0.244639    0.624264
 C   -7.676600   -0.995463   -0.010147
 C   -8.775409   -2.069439    1.850238
 C   -8.901452   -0.838055    2.485173
 C   -8.163198   -2.146120    0.600403
 C   -8.412465    0.313574    1.873235
 H   -1.899678   -0.303026    1.261474
 H   -0.208002   -0.648186    0.798463
 H   -1.280642    1.709435    0.057512
 H    2.391934    3.398511    0.128702
 H    0.694315    3.178651   -0.331271
 H    1.426500    2.147772    0.921796
 H    3.080973   -2.632512   -2.314916
 H    5.289502   -3.398446   -1.549889
 H    2.881162    0.066034    1.034133
 H    6.760156   -4.380781   -0.013776
 H    8.215126   -3.533432    0.575285
 H    7.536807   -3.118808   -1.022154
 H    7.156274   -0.278074    2.344405
 H    6.535809    0.358039    0.808495
 H    5.909958    1.472760    3.591649
 H    6.991427    2.191156    2.406506
 H    4.816352    3.349234    2.342202
 H    3.953825    1.804256    2.221981
 H    6.844815    2.760672    0.085454
 H    5.633484    3.245629   -1.121830
 H    5.825158    4.196378    0.377150
 H   -0.838090   -1.798294   -1.022955
 H   -1.993823   -2.350000    0.079064
 H   -2.793734    1.070564   -2.113143
 H   -3.739376   -1.352645   -1.022050
 H   -2.579410   -1.285510   -2.360842
 H   -0.247354    1.819433   -2.067963
 H   -0.483889    0.122131   -2.434796
 H    3.032808    1.259292   -0.765128
 H    2.654224    1.584287   -3.187157
 H    3.109997    3.073653   -2.341771
 H    1.438233    2.835261   -2.845147
 H   -5.415132    1.827044    1.058854
 H   -7.417117    1.491871   -1.099250
 H   -7.674053    2.389016    0.399035
 H   -7.209261   -1.049134   -0.990121
 H   -9.164013   -2.966747    2.321864
 H   -9.387014   -0.770686    3.453785
 H   -8.078260   -3.104011    0.095781
 H   -8.523068    1.275758    2.368402
