77 
4rz1_ligand_ani.xyz
 C   -1.139518   -0.513670    0.401917
 C   -1.295153    0.594973   -0.647936
 C    1.618786    2.639654   -0.487759
 C    1.543092   -0.920673   -1.238068
 C    2.913112   -1.237519   -0.699553
 C    3.611896   -2.289094   -1.282859
 C    5.421209   -1.997562    0.289117
 C    4.689651   -0.974938    0.926214
 C    4.868090   -2.654208   -0.805392
 C    3.460098   -0.597063    0.417618
 C    7.385408   -3.319062    0.247670
 C    6.295793    0.506595    1.841979
 C    6.002595    1.827727    2.530172
 C    4.675829    2.417740    2.060606
 C    5.264832    3.576438    0.095890
 C   -4.931352    0.837329   -0.896639
 N   -1.593574   -1.724859   -0.331992
 C   -2.670443    0.259833   -1.236942
 C   -2.775055   -1.281580   -1.138890
 C   -0.245786    0.583940   -1.779039
 O   -3.669930    0.911492   -0.420614
 N    1.145268    0.379045   -1.372770
 C    2.057146    1.537623   -1.447571
 C    2.226106    2.071642   -2.874434
 O    0.788577   -1.851867   -1.542769
 O    6.646667   -2.257473    0.814130
 O    5.173347   -0.356847    2.044306
 O    4.567933    2.487914    0.648949
 N   -5.769877    1.615743   -0.147181
 O   -5.262212    0.177366   -1.861598
 C   -7.206922    1.421838   -0.276115
 C   -7.740821    0.312382    0.609820
 C   -7.615313   -1.022308    0.217272
 C   -8.631398   -1.748171    2.282233
 C   -8.756915   -0.421672    2.682284
 C   -8.060604   -2.045605    1.047931
 C   -8.314310    0.601119    1.848243
 H   -1.808505   -0.308578    1.241918
 H   -0.133599   -0.646462    0.795068
 H   -1.313974    1.583628   -0.179139
 H    2.324366    3.476818   -0.530216
 H    0.624310    3.021626   -0.741266
 H    1.596730    2.271802    0.542917
 H    3.171694   -2.821089   -2.121709
 H    5.408928   -3.459585   -1.291532
 H    2.933077    0.219409    0.903732
 H    6.843750   -4.270833    0.327646
 H    8.312960   -3.380126    0.818059
 H    7.617543   -3.124265   -0.807412
 H    7.183829    0.020851    2.259263
 H    6.451402    0.664074    0.767981
 H    5.957703    1.678759    3.615530
 H    6.826038    2.529518    2.340023
 H    4.524624    3.418970    2.494073
 H    3.856286    1.778467    2.398032
 H    6.348375    3.515731    0.275569
 H    5.088587    3.561643   -0.983231
 H    4.898870    4.532415    0.503411
 H   -0.808271   -2.024921   -0.958220
 H   -1.829198   -2.503410    0.292877
 H   -2.791674    0.612838   -2.263967
 H   -3.700888   -1.567606   -0.644482
 H   -2.755235   -1.750278   -2.124025
 H   -0.310312    1.541535   -2.303637
 H   -0.498630   -0.195404   -2.508326
 H    3.039775    1.180873   -1.142596
 H    2.533015    1.277265   -3.562161
 H    3.006056    2.842844   -2.881091
 H    1.309573    2.531791   -3.259838
 H   -5.411166    1.891728    0.756294
 H   -7.392778    1.188871   -1.328200
 H   -7.707504    2.369736   -0.047995
 H   -7.162364   -1.254604   -0.744805
 H   -8.976935   -2.549327    2.931499
 H   -9.201764   -0.180503    3.644791
 H   -7.962514   -3.080569    0.729681
 H   -8.420260    1.637953    2.163237
