60 
4s1g_ligand_ani.xyz
 C    2.975738   -2.653292    0.511192
 C    3.474776   -1.477410   -0.296110
 N    2.645479   -1.022705   -1.329139
 C    1.427517   -1.649929   -1.683525
 N    1.090109   -2.727689   -0.895248
 C    1.449130   -2.756581    0.523259
 C    1.024694   -4.113285    1.076639
 C    0.798218   -1.566009    1.299003
 N    0.634757   -1.319545   -2.634493
 C    2.951752    0.331885   -1.814278
 O    4.550959   -0.955718   -0.076179
 C   -0.700825   -1.431339    1.011389
 C    1.047848   -1.632303    2.808997
 C    2.360057    1.402281   -0.912040
 C    0.981164    1.593795   -0.877133
 C    0.407925    2.523762   -0.005694
 C    1.224911    3.309472    0.802996
 C    2.590684    3.104881    0.761427
 C    3.175753    2.157857   -0.067631
 F    3.382510    3.845286    1.554821
 C   -1.072953    2.724954    0.114198
 O   -1.552894    3.758900    0.558877
 N   -1.843684    1.671714   -0.276889
 C   -3.295387    1.702381   -0.143090
 C   -3.838481    0.292173   -0.029961
 C   -3.540505   -0.668906   -1.002008
 C   -4.072991   -1.952050   -0.921061
 C   -4.910139   -2.296947    0.137345
 C   -5.213759   -1.349539    1.109301
 C   -4.681922   -0.065454    1.022244
 C   -3.932416    2.475466   -1.302381
 H    3.398030   -2.580824    1.514854
 H    3.379555   -3.559542    0.047379
 H    0.154655   -3.045541   -1.110347
 H    1.421935   -4.278477    2.083453
 H    1.405559   -4.906511    0.425480
 H   -0.066974   -4.206358    1.120414
 H    1.287957   -0.658659    0.920218
 H    1.024476   -0.596369   -3.230570
 H    2.609618    0.443041   -2.846191
 H    4.037515    0.410680   -1.818624
 H   -1.265270   -2.279707    1.415240
 H   -0.911350   -1.367884   -0.061842
 H   -1.092064   -0.521520    1.482651
 H    0.674415   -0.720144    3.286254
 H    2.111839   -1.718626    3.054855
 H    0.523135   -2.479663    3.264981
 H    0.362911    1.011353   -1.561939
 H    0.793635    4.059050    1.459206
 H    4.252336    2.015770   -0.039736
 H   -1.399428    0.786194   -0.474141
 H   -3.513529    2.247814    0.780312
 H   -2.885590   -0.419402   -1.837891
 H   -3.825843   -2.686529   -1.684481
 H   -5.324383   -3.299987    0.200649
 H   -5.867464   -1.607983    1.939245
 H   -4.922321    0.670647    1.788270
 H   -3.737386    1.975234   -2.258270
 H   -5.015185    2.550306   -1.160621
 H   -3.509235    3.483014   -1.341854
