66 
4sga_ligand_ani.xyz
 C    3.261036   -2.210341   -0.406252
 O    2.675713   -2.488011    0.642971
 C    2.914879   -2.875742   -1.719050
 N    4.225731   -1.260764   -0.412739
 C    4.489188   -0.498276    0.809144
 C    3.306965    0.352717    1.296253
 O    3.119866    0.525102    2.493310
 C    5.711475    0.362127    0.434188
 C    6.382140   -0.406243   -0.709595
 C    5.204666   -1.018962   -1.470644
 N    2.542730    0.930218    0.338787
 C    1.420542    1.778943    0.667743
 C    0.711690    2.098982   -0.659101
 O    1.300815    1.994377   -1.725234
 C    1.862157    3.079445    1.355924
 N   -0.576306    2.547714   -0.612914
 C   -1.470513    2.488682    0.535951
 C   -1.801544    1.066028    1.005173
 O   -1.972497    0.829362    2.188825
 C   -2.727768    3.226877    0.039416
 C   -2.713687    3.008308   -1.477852
 C   -1.226077    3.025222   -1.835820
 N   -1.933393    0.123974    0.019574
 C   -1.811369   -1.279589    0.339569
 C   -0.373734   -1.710959    0.063150
 O    0.314051   -1.149716   -0.768402
 C   -2.792530   -2.137051   -0.482306
 C   -4.237542   -1.753140   -0.248324
 C   -4.860011   -2.039692    0.968809
 C   -4.968563   -1.084913   -1.230911
 C   -6.185138   -1.679563    1.191929
 C   -6.294600   -0.718629   -1.011748
 C   -6.905837   -1.018040    0.200836
 O    0.030295   -2.739629    0.793576
 H    2.033598   -3.502162   -1.568566
 H    3.738224   -3.503804   -2.076379
 H    2.701740   -2.125563   -2.488389
 H    4.706477   -1.177893    1.639033
 H    6.370093    0.524520    1.291498
 H    5.381900    1.345452    0.078179
 H    6.997436    0.233719   -1.347586
 H    7.021979   -1.202324   -0.312869
 H    5.469658   -1.951298   -1.977810
 H    4.808530   -0.326655   -2.227004
 H    2.674582    0.743848   -0.647091
 H    0.752059    1.229767    1.347624
 H    1.006187    3.731154    1.561722
 H    2.566848    3.620221    0.716083
 H    2.356006    2.837376    2.298543
 H   -1.040420    2.984860    1.411130
 H   -3.633693    2.857420    0.527674
 H   -2.628525    4.291888    0.271536
 H   -3.151688    2.034693   -1.723849
 H   -3.280309    3.771212   -2.017254
 H   -0.957513    2.375751   -2.674457
 H   -0.870920    4.035585   -2.077241
 H   -1.529402    0.374825   -0.872503
 H   -2.019026   -1.396780    1.408026
 H   -2.630708   -3.188913   -0.216178
 H   -2.549437   -2.038849   -1.547479
 H   -4.300162   -2.549593    1.752533
 H   -4.491352   -0.850418   -2.180895
 H   -6.656072   -1.913727    2.143680
 H   -6.851347   -0.203214   -1.790912
 H   -7.941318   -0.736454    0.375859
 H    1.014343   -2.821655    0.655135
