30 
4tju_ligand_dft.xyz
 C   -4.797230   -0.998648    0.066602
 C   -3.846391   -1.982450    0.118465
 C   -2.476631   -1.630003    0.090948
 C   -2.086428   -0.264504    0.007514
 C   -3.094977    0.748805   -0.049609
 C   -4.414203    0.357346   -0.015689
 N   -1.549152   -2.624827    0.156962
 C   -0.291783   -2.272653    0.132240
 C    0.124295   -0.912797    0.034670
 N   -0.764070    0.054899   -0.019711
 C   -2.864732    2.246327   -0.151574
 N   -1.586534    2.671055   -0.267866
 O   -3.816064    3.014592   -0.136327
 C    1.558680   -0.543240    0.022961
 C    1.968354    0.668683    0.587836
 C    3.305957    1.038087    0.588633
 C    4.245001    0.187241    0.013272
 C    3.862925   -1.020506   -0.559187
 C    2.520643   -1.380358   -0.549124
Cl    5.929056    0.644722    0.009259
 H   -5.852032   -1.252961    0.088104
 H   -4.098934   -3.035530    0.183010
 H   -5.164318    1.139931   -0.056027
 H    0.446116   -3.067277    0.215949
 H   -1.437662    3.662934   -0.366551
 H   -0.822093    2.007723   -0.290353
 H    1.228109    1.318552    1.043448
 H    3.621968    1.974092    1.035654
 H    4.605303   -1.667166   -1.013355
 H    2.225508   -2.313177   -1.020097
