67 
4tk5_ligand_ani.xyz
 C   -7.239302    1.475606   -0.005756
 C   -6.340564    2.386386    0.537455
 C   -4.979563    2.086836    0.643177
 C   -4.481649    0.858273    0.204757
 C   -5.384606   -0.060076   -0.339483
 C   -6.730998    0.261580   -0.435268
 C   -7.465801   -0.879623   -1.054830
 C   -5.163832   -1.448012   -0.911334
 N   -6.505673   -1.829249   -1.295533
 O   -8.652475   -0.971189   -1.301587
 N   -3.113130    0.527060    0.295333
 C   -2.081491    1.351336    0.617432
 O   -2.153842    2.525415    0.956344
 C   -0.713856    0.683207    0.558079
 N    0.338308    1.723688    0.704972
 C    0.849758    2.185527   -0.649994
 C    2.019105    3.150520   -0.491437
 N    3.081107    2.504375    0.270572
 C    2.651430    2.145676    1.616203
 C    1.451393    1.211158    1.580070
 C    4.217755    2.136792   -0.374014
 C    5.043949    0.958922    0.138889
 C    5.525428    0.173858   -1.086572
 C    5.488581   -1.266724   -0.612963
 C    4.342286   -1.275543    0.419085
 O    4.288119    0.048043    0.932440
 O    4.612460    2.682120   -1.401571
 O    6.792388    0.571951   -1.533886
 O    5.260884   -2.203365   -1.630818
 N    3.042777   -1.669105   -0.109635
 C    0.865038   -2.115461   -0.088633
 C    2.035234   -2.233609    0.657632
 C    2.411994   -1.237096   -1.255174
 N    1.123943   -1.471838   -1.289150
 N   -0.240628   -3.111170    1.754454
 C    0.957018   -3.173966    2.345832
 N    2.128394   -2.753922    1.881446
 C   -0.305926   -2.577002    0.531770
 N   -1.563710   -2.350185   -0.019220
 H   -8.300534    1.685308   -0.101769
 H   -6.691682    3.353968    0.885643
 H   -4.294151    2.811816    1.063808
 H   -4.750155   -2.144385   -0.167764
 H   -4.483945   -1.435134   -1.774875
 H   -6.746317   -2.702204   -1.736267
 H   -2.849807   -0.435525    0.097347
 H   -0.573277    0.142849   -0.379740
 H   -0.641192   -0.026968    1.388809
 H   -0.176217    2.523037    1.140555
 H    1.176087    1.293647   -1.196858
 H    0.029109    2.647675   -1.205296
 H    2.425698    3.448984   -1.457931
 H    1.688617    4.047275    0.050188
 H    2.365276    3.072456    2.131543
 H    3.472708    1.678418    2.154241
 H    1.068761    1.053574    2.594113
 H    1.756273    0.240513    1.183611
 H    5.905991    1.330412    0.710701
 H    4.780193    0.292195   -1.886809
 H    6.423197   -1.478886   -0.073807
 H    4.544352   -1.955915    1.248128
 H    6.677468    1.477718   -1.859446
 H    6.026631   -2.174316   -2.219346
 H    2.957760   -0.762533   -2.056395
 H    0.968075   -3.617041    3.341338
 H   -2.250192   -2.989597    0.372829
 H   -1.557014   -2.380095   -1.036142
