67 
4tk5_ligand_dft.xyz
 C   -7.206307    1.415480   -0.162054
 C   -6.318398    2.471501    0.013238
 C   -4.940115    2.259116    0.080124
 C   -4.422885    0.965162   -0.026162
 C   -5.306238   -0.095341   -0.201357
 C   -6.669949    0.142129   -0.267314
 C   -7.383264   -1.158781   -0.444336
 C   -5.044571   -1.579379   -0.336343
 N   -6.381879   -2.104490   -0.479631
 O   -8.573414   -1.357613   -0.536209
 N   -3.033914    0.671559    0.035606
 C   -2.034160    1.479092    0.419454
 O   -2.087234    2.667764    0.719126
 C   -0.681112    0.772108    0.503169
 N    0.365928    1.820538    0.622758
 C    0.840092    2.246771   -0.747301
 C    2.016399    3.204943   -0.640666
 N    3.068379    2.572613    0.140898
 C    2.654329    2.353933    1.515703
 C    1.472784    1.390631    1.547349
 C    3.982624    1.811155   -0.552176
 C    4.963545    0.927596    0.245411
 C    5.812138    0.032308   -0.681467
 C    5.519497   -1.394345   -0.188738
 C    4.245939   -1.263378    0.652899
 O    4.265167    0.057640    1.146770
 O    4.032845    1.858787   -1.771037
 O    7.194875    0.263610   -0.579183
 O    5.339223   -2.345491   -1.197708
 N    3.008486   -1.536657   -0.062591
 C    0.874645   -1.960543   -0.408130
 C    1.884500   -2.052590    0.546065
 C    2.609246   -1.161020   -1.328124
 N    1.343146   -1.382152   -1.573738
 N   -0.560023   -2.823918    1.255195
 C    0.511751   -2.871903    2.065246
 N    1.757779   -2.491490    1.797894
 C   -0.397610   -2.370910    0.013396
 N   -1.523397   -2.219009   -0.777188
 H   -8.279283    1.564923   -0.215823
 H   -6.693071    3.485912    0.101811
 H   -4.269937    3.096103    0.221054
 H   -4.537148   -1.986356    0.550702
 H   -4.428277   -1.803327   -1.220497
 H   -6.594285   -3.085413   -0.568526
 H   -2.759528   -0.279222   -0.207866
 H   -0.470861    0.166800   -0.376738
 H   -0.649202    0.127952    1.386682
 H   -0.152857    2.627042    1.020630
 H    1.140506    1.338794   -1.277645
 H   -0.021315    2.696069   -1.246466
 H    2.389860    3.421887   -1.640692
 H    1.729504    4.146738   -0.160822
 H    2.389052    3.322378    1.954390
 H    3.455390    1.924643    2.114613
 H    1.038663    1.304264    2.546123
 H    1.802450    0.406494    1.213771
 H    5.618164    1.564147    0.849328
 H    5.469205    0.139034   -1.714429
 H    6.332667   -1.667515    0.496184
 H    4.231601   -1.928437    1.516148
 H    7.442922    0.966393   -1.191715
 H    6.203371   -2.566780   -1.566490
 H    3.304180   -0.729495   -2.034661
 H    0.328625   -3.259691    3.062966
 H   -2.266010   -2.857994   -0.513902
 H   -1.334888   -2.224283   -1.773929
