50 
4tkf_ligand_xtb.xyz
 C   -6.310100    2.997834    0.024722
 C   -4.922798    2.822712   -0.110250
 C   -5.176468   -1.859004    0.249924
 C   -0.408611   -0.094863   -0.997195
 C    5.516849   -0.432803    1.602685
 C    5.143814    0.823029    1.814156
 C    0.912765    0.281620   -1.142101
 C   -7.099326    1.891131    0.186689
 C   -2.150179   -1.665823   -0.031251
 C   -7.227600   -0.587022    0.375367
 C    7.160930    0.918597    0.634663
 C    1.911715   -0.439410   -0.499554
 C   -0.742687   -1.203655   -0.224551
 C    5.840428    1.682934    0.788315
 C    6.468414   -0.434464    0.431668
 C   -5.095573    0.554633    0.071478
 C   -6.505151    0.611924    0.215031
 C    3.658624    1.297503   -0.471828
 C   -4.436950   -0.709521    0.094139
 N   -4.336185    1.657256   -0.089097
 C   -6.568816   -1.786434    0.389501
 N   -3.060998   -0.652060   -0.053554
 O   -2.430331   -2.833682    0.148023
 C    0.271307   -1.942424    0.378882
 C    1.591831   -1.559303    0.258255
 N    3.262542   -0.026377   -0.614062
 C    4.312234   -0.908574   -0.842232
 O    4.190976   -2.087706   -1.030681
 C    5.594699   -0.108998   -0.816681
 C    5.165918    1.337506   -0.572804
 O    2.915408    2.222050   -0.283927
 H   -6.731274    3.990905   -0.001302
 H   -4.270341    3.676882   -0.240870
 H   -4.678242   -2.813951    0.266495
 H   -1.170098    0.465870   -1.519238
 H    5.182361   -1.322189    2.103318
 H    4.431082    1.197964    2.524681
 H    1.170022    1.138071   -1.744369
 H   -8.171807    1.977802    0.293283
 H   -8.301099   -0.539328    0.485623
 H    7.766774    0.945995    1.538553
 H    7.756224    1.238778   -0.218701
 H    5.884600    2.746625    1.000843
 H    7.089885   -1.317054    0.316150
 H   -7.123678   -2.704773    0.511226
 H   -2.741492    0.308363   -0.141016
 H    0.001811   -2.815320    0.953565
 H    2.372467   -2.126063    0.739270
 H    6.160071   -0.270764   -1.734817
 H    5.475180    2.042412   -1.345195
