53 
4tkg_ligand_dft.xyz
 C    5.645115   -3.923634   -0.722420
 C    6.800796   -3.370749   -0.852494
 C    5.639088   -2.416750   -0.791007
 C    5.502988   -1.617548    0.485526
 O    6.310738   -1.759364    1.392052
 N    4.480173   -0.704069    0.563931
 C    4.356383    0.123435    1.755375
 C    4.015867    1.554422    1.352598
 C    3.293826   -0.692579   -0.272634
 C    2.943774    0.738152   -0.687874
 N    2.842129    1.585627    0.488403
 C    1.712107    2.218537    0.921388
 O    1.613227    2.705139    2.039142
 C    0.543773    2.306268   -0.025145
 C   -0.716673    1.939557    0.445859
 C    0.623593    2.847606   -1.303591
 F    1.818405    3.243686   -1.778466
 C   -0.491439    2.995056   -2.112485
 C   -1.728477    2.590918   -1.626770
 C   -1.856397    2.059879   -0.342685
 C   -3.199364    1.617940    0.180964
 C   -3.541750    0.172452   -0.118323
 C   -4.806851   -0.389456    0.341989
 C   -5.757247    0.347318    1.068892
 C   -6.937779   -0.249502    1.475252
 C   -7.202759   -1.590509    1.169946
 C   -6.278722   -2.330305    0.455352
 C   -5.084397   -1.733535    0.041938
 C   -4.106077   -2.527171   -0.718411
 O   -4.234042   -3.697956   -1.038840
 N   -2.977087   -1.810467   -1.058246
 N   -2.680473   -0.520964   -0.785338
 H    5.023527   -4.792742   -0.582260
 H    7.874278   -3.423026   -0.915388
 H    5.304307   -1.925665   -1.707555
 H    5.301620    0.079025    2.296102
 H    3.565126   -0.274559    2.407321
 H    4.861815    1.991262    0.806206
 H    3.800647    2.164937    2.229000
 H    2.445463   -1.113283    0.289289
 H    3.441507   -1.308993   -1.158867
 H    1.996565    0.729930   -1.226523
 H    3.719970    1.132578   -1.355298
 H   -0.791155    1.554234    1.458782
 H   -0.378823    3.427601   -3.100382
 H   -2.607724    2.694225   -2.256791
 H   -3.988709    2.255851   -0.237796
 H   -3.236907    1.766931    1.267699
 H   -5.570713    1.387055    1.316248
 H   -7.664758    0.329100    2.036984
 H   -8.132584   -2.046222    1.495228
 H   -6.449594   -3.370945    0.200907
 H   -2.268347   -2.302743   -1.584229
