42 
4tkh_ligand_dft.xyz
 C   -3.936347    0.200583   -0.009354
 O   -3.931061    0.573156   -1.151119
 O   -4.916443    0.609568    0.830778
 C   -2.884612   -0.703989    0.613578
 C   -1.908246   -1.278076   -0.407939
 C   -0.670679   -1.890925    0.244635
 C    0.265744   -2.541792   -0.773736
 C    1.550468   -3.122498   -0.169591
 C    2.414874   -2.117229    0.602309
 C    2.799701   -0.880074   -0.207831
 C    3.685405    0.096810    0.568827
 C    3.915901    1.420756   -0.165450
 C    2.712712    2.319861   -0.311371
 C    1.548190    2.212614    0.326550
 C    0.367582    3.122039    0.134196
 C   -0.867460    2.355056   -0.350436
 H   -4.781726    0.227838    1.708230
 H   -3.382283   -1.510570    1.169771
 H   -2.344746   -0.107361    1.363872
 H   -1.607001   -0.479184   -1.093164
 H   -2.426858   -2.025323   -1.020576
 H   -0.965744   -2.636349    0.997694
 H   -0.137528   -1.098308    0.788331
 H    0.519146   -1.804996   -1.546982
 H   -0.274767   -3.345357   -1.290986
 H    2.149025   -3.558197   -0.980497
 H    1.289355   -3.952758    0.500354
 H    3.325271   -2.626086    0.946371
 H    1.889368   -1.798051    1.513048
 H    1.894454   -0.355916   -0.534091
 H    3.319695   -1.188842   -1.126082
 H    4.657391   -0.373644    0.764395
 H    3.244109    0.293649    1.555440
 H    4.311155    1.207029   -1.168935
 H    4.709783    1.986962    0.342602
 H    2.838824    3.146940   -1.012423
 H    1.391563    1.392912    1.030524
 H    0.620216    3.914922   -0.579913
 H    0.128065    3.619470    1.084420
 H   -0.683055    1.889127   -1.323630
 H   -1.121666    1.555188    0.354939
 H   -1.741410    3.006300   -0.446314
