42 
4tkh_ligand_ani.xyz
 C   -4.224624    0.359711    0.025278
 O   -4.429734    0.441283   -1.155916
 O   -5.089775    0.920648    0.903391
 C   -3.027283   -0.341240    0.643309
 C   -2.137788   -1.009439   -0.398985
 C   -0.905255   -1.671426    0.210171
 C   -0.049591   -2.412748   -0.817019
 C    1.138635   -3.169810   -0.212629
 C    2.098325   -2.306050    0.614305
 C    2.662778   -1.108729   -0.148525
 C    3.713347   -0.327201    0.642955
 C    4.258578    0.899488   -0.100638
 C    3.249324    1.989904   -0.361897
 C    2.101844    2.176957    0.286804
 C    1.076845    3.213319   -0.073920
 C   -0.303512    2.601867   -0.306786
 H   -4.795012    0.767300    1.811627
 H   -3.387717   -1.079100    1.373955
 H   -2.455026    0.404482    1.216846
 H   -1.833305   -0.253090   -1.134246
 H   -2.732629   -1.744815   -0.953487
 H   -1.217922   -2.378626    0.992899
 H   -0.299234   -0.904123    0.713534
 H    0.312170   -1.700673   -1.572462
 H   -0.683988   -3.127844   -1.358740
 H    1.700202   -3.651056   -1.025715
 H    0.759437   -3.983701    0.421414
 H    2.928719   -2.936664    0.962096
 H    1.588770   -1.952763    1.522322
 H    1.845669   -0.433269   -0.434107
 H    3.109881   -1.456696   -1.091722
 H    4.552903   -0.994034    0.881376
 H    3.300368   -0.009235    1.610351
 H    4.688219    0.580354   -1.059726
 H    5.101123    1.323919    0.465419
 H    3.497125    2.686524   -1.166295
 H    1.830087    1.548086    1.136691
 H    1.411128    3.763605   -0.963256
 H    1.003080    3.945032    0.743059
 H   -0.286880    1.880719   -1.133273
 H   -0.644266    2.071886    0.591802
 H   -1.046556    3.370706   -0.544703
