97 
4tky_ligand_dft.xyz
 N    1.426214   -1.514217   -1.071236
 C    2.132727   -0.587062   -2.045583
 C    1.152005    0.243448   -2.870447
 O    1.336841    0.403956   -4.062947
 C    3.004028   -1.509252   -2.892321
 C    3.378846   -2.625203   -1.918384
 C    2.080989   -2.875283   -1.156980
 N    0.076378    0.751045   -2.213163
 C   -1.056459    1.226253   -3.003888
 C   -2.056086    1.874621   -2.039424
 O   -3.195118    1.432602   -1.879526
 C   -1.691217    0.118678   -3.879538
 C   -1.558546   -1.276670   -3.315340
 C   -2.276051   -1.671557   -2.181680
 C   -0.705998   -2.203897   -3.922534
 C   -2.155594   -2.964239   -1.678675
 C   -0.586310   -3.500743   -3.423453
 C   -1.309333   -3.884918   -2.296500
 N   -1.566521    2.950513   -1.394792
 C   -2.244922    3.691762   -0.331620
 C   -2.269950    2.822058    0.929941
 O   -1.551579    3.058394    1.904458
 C   -3.608117    4.251597   -0.737321
 N   -3.112071    1.767778    0.890843
 C   -3.049403    0.736073    1.888197
 C   -1.835501   -0.187971    1.661500
 O   -1.196998   -0.214830    0.618761
 C   -4.379474   -0.044839    1.915254
 O   -4.285281   -0.927518    3.029932
 C   -4.677423   -0.810404    0.631577
 N   -1.521250   -0.954483    2.749032
 C   -0.544015   -2.029979    2.673600
 C    0.862889   -1.472506    2.420172
 O    1.677866   -2.081985    1.732579
 C   -0.894610   -3.121939    1.662610
 S   -2.406104   -4.037954    2.100514
 N    1.164933   -0.340482    3.088361
 C    2.383149    0.412550    2.878033
 C    2.303582    1.187384    1.550796
 O    1.519151    0.872528    0.664470
 C    3.672827   -0.419137    3.018072
 C    4.146079   -1.130961    1.771665
 O    4.123628   -0.667592    0.647282
 O    4.705416   -2.300545    2.059265
 N    3.131243    2.250191    1.452220
 C    2.908507    3.248944    0.416276
 C    1.465959    3.758328    0.493360
 O    0.990331    3.744196    1.724997
 C    3.214405    2.700210   -0.995488
 O    4.352094    1.880386   -1.013767
 O    0.853768    4.122818   -0.490005
 H    0.424581   -1.585197   -1.286105
 H    1.495597   -1.139522   -0.112993
 H    2.759143    0.066730   -1.438339
 H    3.863850   -0.966857   -3.286398
 H    2.428556   -1.892394   -3.739772
 H    3.724717   -3.530803   -2.420937
 H    4.157982   -2.279230   -1.234215
 H    2.193957   -3.253942   -0.143432
 H    1.400852   -3.513780   -1.720100
 H   -0.044445    0.617646   -1.213373
 H   -0.684407    2.009280   -3.673992
 H   -1.208864    0.152612   -4.857901
 H   -2.747208    0.366077   -4.018120
 H   -2.937377   -0.954110   -1.708044
 H   -0.141693   -1.908039   -4.802840
 H   -2.740074   -3.272270   -0.814976
 H    0.059981   -4.214010   -3.927741
 H   -1.232327   -4.897163   -1.910646
 H   -0.587020    3.191122   -1.512566
 H   -1.576680    4.521229   -0.098755
 H   -4.308974    3.468433   -1.027955
 H   -4.033140    4.818964    0.095664
 H   -3.479396    4.929395   -1.585077
 H   -3.472535    1.532152   -0.034025
 H   -2.927325    1.214360    2.864158
 H   -5.164027    0.701197    2.095094
 H   -5.159755   -1.286666    3.222571
 H   -4.782837   -0.145170   -0.230977
 H   -5.618344   -1.360367    0.732660
 H   -3.882325   -1.531700    0.415942
 H   -2.257050   -1.046197    3.441272
 H   -0.512963   -2.483083    3.671261
 H   -0.981013   -2.695590    0.661601
 H   -0.093516   -3.862827    1.647285
 H   -3.217992   -2.968066    2.200781
 H    0.380960    0.168948    3.475300
 H    2.401950    1.153701    3.683071
 H    3.558457   -1.137697    3.831292
 H    4.490143    0.255116    3.301953
 H    5.069694   -2.670565    1.238577
 H    3.620736    2.552458    2.281380
 H    3.586190    4.079266    0.635183
 H   -0.002977    3.792273    1.728412
 H    2.323127    2.184969   -1.367263
 H    3.409093    3.538674   -1.666019
 H    4.267051    1.204162   -0.323213
