25 
4tln_ligand_dft.xyz
 N    0.012618    1.872526   -0.368534
 C    0.156916    0.515623    0.271614
 C    1.645597    0.201014    0.044693
 O    2.405785    1.107552   -0.316792
 C   -0.843434   -0.486621   -0.297725
 C   -2.319663   -0.059383   -0.192846
 C   -2.732166    0.260837    1.246745
 C   -3.205113   -1.157920   -0.787238
 N    2.069348   -1.030772    0.270168
 O    3.400654   -1.339793    0.137992
 H   -0.359773    1.805947   -1.320425
 H   -0.584378    2.508546    0.163819
 H    0.995638    2.234050   -0.434246
 H   -0.003711    0.666558    1.342848
 H   -0.584092   -0.702114   -1.342677
 H   -0.720231   -1.427567    0.253161
 H   -2.468783    0.843996   -0.805694
 H   -3.800157    0.489278    1.294305
 H   -2.205530    1.127186    1.667719
 H   -2.548523   -0.594850    1.906882
 H   -2.931260   -1.380879   -1.823449
 H   -3.120530   -2.082987   -0.205839
 H   -4.254790   -0.852462   -0.776401
 H    1.530581   -1.819691    0.592575
 H    3.817447   -0.490659   -0.105085
