64 
4tlr_ligand_ani.xyz
 C   -0.122757   -0.605255    0.163760
 C    2.198951   -0.201106   -0.352361
 C    3.476035    0.003711    0.467037
 O    3.448537    1.262722    1.109232
 O    2.195982   -0.766447   -1.437418
 O    0.979259   -3.892451   -0.907597
 C    0.708339    3.954088    0.985669
 C    4.736969   -0.118088   -0.383176
 C   -1.441650   -0.088223    0.303630
 C   -2.428225   -1.012505    0.056075
 C   -0.145713   -1.967013   -0.095761
 C    0.964438   -2.953990   -0.151860
 C   -3.830995   -0.805242    0.101057
 C   -5.030509   -0.649986    0.141057
 C   -6.492440   -0.479827    0.192518
 C   -7.134002   -1.270468   -0.961544
 C   -7.015413   -1.010743    1.539124
 C   -6.835435    1.013620    0.053958
 C    5.290704   -1.551753   -0.498928
 C    6.074451   -1.985619    0.730457
 N    1.039507    0.178824    0.293536
 C    2.305341    1.386317    1.929457
 C    1.037436    1.420052    1.075372
 C    1.010311    2.681888    0.181023
 C    0.038293    2.597622   -1.005064
 C    0.186982    3.823805   -1.909118
 C   -0.068110    5.113902   -1.125139
 C    0.836830    5.201238    0.106360
 S   -1.749019   -2.555086   -0.335283
 O    1.950970   -2.699003    0.739315
 O    4.247950   -2.507431   -0.704312
 H    3.465756   -0.787309    1.237344
 H    1.378643    4.038478    1.849747
 H   -0.314879    3.889302    1.387858
 H    4.531671    0.276934   -1.386663
 H    5.505953    0.520148    0.058130
 H   -1.653379    0.943874    0.555210
 H   -6.894962   -2.336224   -0.882691
 H   -6.772837   -0.907564   -1.929540
 H   -8.223684   -1.157285   -0.934118
 H   -8.103768   -0.893844    1.591650
 H   -6.567904   -0.461307    2.374002
 H   -6.775591   -2.072593    1.658073
 H   -7.921577    1.154347    0.092574
 H   -6.382445    1.593153    0.865141
 H   -6.468864    1.410046   -0.898701
 H    5.965455   -1.577734   -1.368739
 H    6.429445   -3.012493    0.608836
 H    6.945046   -1.338266    0.880475
 H    5.456458   -1.942557    1.634259
 H    2.248945    0.536452    2.627008
 H    2.433276    2.301184    2.516574
 H    0.159440    1.376156    1.721772
 H    2.020702    2.785000   -0.241078
 H   -0.997877    2.570060   -0.639548
 H    0.202478    1.670947   -1.570819
 H    1.204845    3.840666   -2.325771
 H   -0.498500    3.751146   -2.762119
 H    0.071754    5.991399   -1.768400
 H   -1.118566    5.128980   -0.799264
 H    1.883027    5.296409   -0.219464
 H    0.608880    6.103256    0.686915
 H    2.768077   -3.103560    0.377186
 H    3.622162   -2.115264   -1.341451
