49 
4tn2_ligand_ani.xyz
 C   -0.654651   -2.835769   -1.265836
 C    0.179686   -1.844495   -0.548553
 C    2.111806   -0.395674    0.058569
 O   -1.911242   -2.397243   -1.504818
 O   -0.252958   -3.902811   -1.656709
 O   -1.725739   -2.978541    1.359879
 C   -2.549211    2.928873    0.637857
 C   -2.339762    4.014306   -0.421213
 C   -2.854015    3.558574   -1.789575
 C   -2.216635    2.229911   -2.205411
 C   -2.440441    1.148572   -1.144823
 C    3.419455    0.273943    0.200924
 C    4.310797    0.406032   -0.870642
 C    5.530524    1.048772   -0.693758
 C    5.879361    1.567179    0.550794
 C    4.998869    1.443930    1.621154
 C    3.775686    0.806808    1.443750
 S    1.858917   -1.778103   -0.948882
 C    0.949057   -0.030240    0.680349
 C   -0.159337   -0.869353    0.365668
 N   -1.423095   -0.735870    0.958090
 C   -2.098671   -1.829309    1.462577
 C   -3.337098   -1.318103    2.170263
 C   -3.450318    0.139744    1.716427
 C   -2.019560    0.548959    1.325990
 C   -1.900877    1.603971    0.216991
 H   -2.369629   -3.136329   -1.936265
 H   -3.629079    2.773919    0.785556
 H   -2.140320    3.251948    1.604424
 H   -1.266271    4.241727   -0.496928
 H   -2.833332    4.945159   -0.116183
 H   -2.666909    4.329787   -2.546849
 H   -3.945069    3.429195   -1.737865
 H   -2.615861    1.899079   -3.171956
 H   -1.135207    2.371683   -2.347072
 H   -1.968799    0.207151   -1.448498
 H   -3.519623    0.948262   -1.069349
 H    4.041187    0.017084   -1.848760
 H    6.212371    1.144785   -1.534410
 H    6.835220    2.066876    0.685005
 H    5.261985    1.847618    2.595427
 H    3.090321    0.704289    2.282190
 H    0.859115    0.824280    1.344580
 H   -3.175443   -1.412393    3.249714
 H   -4.201292   -1.933200    1.910189
 H   -3.869247    0.798479    2.482558
 H   -4.101322    0.196481    0.836902
 H   -1.507145    0.940810    2.218617
 H   -0.825142    1.793027    0.078631
