21 
4to8_ligand_ani.xyz
 C    2.544370   -0.385613   -0.108973
 C    1.294972   -0.427346   -0.972629
 C    0.000176   -0.220783   -0.173157
 C   -0.057292    1.241898    0.316556
 C   -1.209165   -0.499812   -1.076270
 C   -2.581041   -0.352183   -0.416898
 O    3.693288   -0.068722   -0.719124
 O    2.549500   -0.653174    1.071671
 O   -0.448403    1.396308    1.580864
 O    0.221219    2.158859   -0.412140
 O   -3.495200    0.225804   -0.940420
 O   -2.719223   -0.959406    0.773194
 O   -0.073112   -1.084228    0.958849
 H    1.267203   -1.405751   -1.469832
 H    1.335133    0.349547   -1.739811
 H   -1.134374   -1.531469   -1.448966
 H   -1.188589    0.170643   -1.936157
 H    3.545428    0.125054   -1.656394
 H   -0.569997    0.494501    1.937311
 H   -1.858286   -1.325566    1.052386
 H    0.826806   -1.137446    1.346539
