61 
4tpp_ligand_xtb.xyz
 C   -6.431603   -3.773393    1.156474
 C   -5.410269   -3.664087    0.042690
 O   -5.657332   -4.041103   -1.087372
 N   -4.199291   -3.150806    0.369882
 C   -3.213646   -2.938908   -0.669239
 C   -2.983085   -1.444945   -0.888401
 C   -2.550933   -0.785590    0.430485
 C   -3.602719   -1.072151    1.501085
 C   -3.811274   -2.581873    1.638200
 C   -2.354667    0.686699    0.221042
 N   -3.247126    1.525473    0.656017
 C   -3.059873    2.849887    0.436305
 C   -4.012541    3.776854    0.892496
 C   -3.817128    5.114371    0.672795
 C   -2.674461    5.569695   -0.001305
 C   -1.729815    4.688659   -0.457143
 C   -1.907252    3.311337   -0.247511
 N   -0.979087    2.430521   -0.696972
 C   -1.194929    1.164441   -0.478696
 O   -0.312866    0.248807   -0.916492
 C    0.800377    0.750027   -1.621694
 C    1.976950    1.259357   -0.767372
 N    2.821314    0.267503   -1.408703
 C    1.727404   -0.366840   -2.119641
 C    3.956638   -0.280831   -0.905388
 C    4.496950   -1.456442   -1.501430
 C    5.668137   -1.949565   -1.017469
 C    6.319506   -1.289342    0.052090
 C    7.532511   -1.731657    0.606432
 C    8.113418   -1.047721    1.640359
 C    7.500672    0.102761    2.157299
 C    6.318925    0.558523    1.640124
 C    5.697309   -0.123431    0.574698
 N    4.531414    0.351346    0.093903
 H   -7.329050   -4.223073    0.740440
 H   -6.062153   -4.404703    1.961360
 H   -6.679956   -2.791163    1.551809
 H   -3.589801   -3.408708   -1.579570
 H   -2.275504   -3.422828   -0.373291
 H   -3.910975   -0.984156   -1.233083
 H   -2.217170   -1.299577   -1.650504
 H   -1.588192   -1.216965    0.729163
 H   -4.537956   -0.592116    1.212475
 H   -3.289062   -0.651416    2.456708
 H   -2.868467   -3.051304    1.949300
 H   -4.560074   -2.790543    2.399018
 H   -4.883282    3.404346    1.409028
 H   -4.545845    5.831909    1.019664
 H   -2.543836    6.629985   -0.159897
 H   -0.844989    5.019906   -0.977755
 H    0.466371    1.459761   -2.382123
 H    1.852966    1.096732    0.306193
 H    2.292629    2.286799   -0.945274
 H    1.870526   -0.421943   -3.201010
 H    1.446305   -1.351174   -1.731420
 H    3.973862   -1.926479   -2.319714
 H    6.114446   -2.841097   -1.437421
 H    7.997068   -2.620172    0.200756
 H    9.046453   -1.389504    2.063954
 H    7.973671    0.630292    2.973258
 H    5.835427    1.442307    2.026244
