41 
4tpw_ligand_ani.xyz
 C   -3.869106   -0.045949    0.035556
 C   -5.203161    1.902896   -0.463789
 C   -6.283963   -0.197503    0.016224
 C   -5.039266   -0.791150    0.186047
 C    3.458039    2.117703    0.399319
Cl   -7.896510    1.945179   -0.514752
Cl   -7.705022   -1.167064    0.210720
 C    5.304436    2.793039    1.792202
 C    6.132601    1.914934    1.108273
 C    5.610873    1.171349    0.056903
 N    6.587932    0.351961   -0.697698
 O    6.492059    0.325195   -1.911425
 O    7.453016   -0.195288   -0.050191
 C    4.263685    1.224163   -0.308431
 C    3.604809    0.288014   -1.306624
 C    3.096924   -0.959494   -0.616669
 N    1.913010   -1.227175   -0.226764
 N    0.880245   -0.396562   -0.515773
 C   -0.370766   -0.738140   -0.066048
 N   -1.439722   -0.075844   -0.370549
 C   -2.540698   -0.656843    0.236692
 C   -3.964427    1.304928   -0.302501
 C   -6.370362    1.159224   -0.304426
 C   -2.270224   -1.744984    1.010688
 S   -0.568542   -2.096511    0.987189
 C    4.148995   -1.985961   -0.238091
 O    5.303054   -1.842932   -0.549459
 O    3.703135   -3.031407    0.472133
 C    3.964757    2.901116    1.428992
 H   -5.279097    2.954967   -0.718310
 H   -5.002425   -1.851340    0.420145
 H    2.405298    2.194068    0.139379
 H    5.706663    3.390934    2.605133
 H    7.180792    1.803087    1.366491
 H    4.328275   -0.019275   -2.059710
 H    2.792903    0.818664   -1.818550
 H    0.898051    0.249901   -1.292904
 H   -3.052156    1.876752   -0.435211
 H   -2.950687   -2.328375    1.615214
 H    2.744347   -2.919447    0.596330
 H    3.311514    3.591012    1.956639
