41 
4tpw_ligand_dft.xyz
 C   -3.371780   -0.274545   -0.221436
 C   -4.456013    1.808699   -0.793634
 C   -5.739225    0.025729    0.190882
 C   -4.593311   -0.758279    0.248173
 C    3.416082    0.495203    1.594974
Cl   -7.081500    2.333263   -0.422879
Cl   -7.230033   -0.634613    0.793568
 C    3.746361    2.728745    2.440418
 C    4.293003    3.091512    1.218468
 C    4.377019    2.155879    0.193254
 N    4.960842    2.646501   -1.066069
 O    4.671095    2.069169   -2.104753
 O    5.691772    3.620671   -1.004381
 C    3.938798    0.829402    0.342840
 C    4.058468   -0.219483   -0.756049
 C    3.540991   -1.580090   -0.394085
 N    2.304605   -1.920661   -0.304567
 N    1.344635   -1.010508   -0.489438
 C    0.023298   -1.362468   -0.321301
 N   -0.928568   -0.490325   -0.382573
 C   -2.152996   -1.104504   -0.182273
 C   -3.315330    1.022834   -0.737306
 C   -5.675555    1.318401   -0.334352
 C   -2.094983   -2.449993    0.022535
 S   -0.454220   -3.008681   -0.020512
 C    4.528101   -2.687904   -0.142845
 O    5.717534   -2.499837   -0.179023
 O    3.996057   -3.882351    0.129047
 C    3.310557    1.423053    2.625963
 H   -4.411635    2.813844   -1.198081
 H   -4.670453   -1.749038    0.682343
 H    3.088452   -0.523491    1.774892
 H    3.669579    3.459330    3.238241
 H    4.662440    4.093741    1.041138
 H    5.108449   -0.331228   -1.039538
 H    3.541309    0.129940   -1.655429
 H    1.546668   -0.018604   -0.564726
 H   -2.368237    1.409887   -1.094823
 H   -2.903455   -3.150619    0.170757
 H    3.027060   -3.797139    0.099579
 H    2.890237    1.115799    3.578185
