15 
4trc_ligand_ani.xyz
 N   14.699384   -5.165502   39.882028
 C   15.993615   -4.999897   40.318105
 N   16.410585   -3.766127   40.275638
 C   15.317090   -3.075212   39.780508
 C   15.106996   -1.716243   39.493248
 N   16.062666   -0.786179   39.722794
 N   13.924086   -1.329694   39.001631
 C   12.985542   -2.269358   38.810187
 N   13.047776   -3.575855   39.039845
 C   14.245365   -3.921152   39.526561
 H   14.173560   -6.023978   39.826905
 H   16.580569   -5.844682   40.658168
 H   15.914982    0.145665   39.370613
 H   16.995776   -1.090925   39.952853
 H   12.042008   -1.901859   38.409917
