97 
4trw_ligand_xtb.xyz
 N   -7.359637   -0.632593    1.288479
 C   -6.768561   -1.582065    0.320279
 C   -5.273773   -1.638742    0.739255
 O   -4.963176   -1.081398    1.780571
 C   -7.024626   -1.158779   -1.131847
 C   -6.188750    0.008501   -1.669201
 C   -6.525082    1.360733   -1.110828
 O   -6.036860    2.340256   -1.828168
 O   -7.179931    1.555449   -0.099723
 N   -4.453814   -2.337896   -0.032212
 C   -3.012982   -2.299020    0.153345
 C   -2.479922   -1.198141   -0.774435
 O   -3.157908   -0.762280   -1.687914
 C   -2.406490   -3.692105   -0.116168
 C   -0.951033   -3.812302    0.353749
 C   -2.504474   -4.061219   -1.596481
 C   -0.744593   -3.547137    1.841498
 N   -1.250369   -0.753569   -0.490004
 C   -0.624936    0.342209   -1.194460
 C    0.799111    0.460069   -0.660613
 O    1.164118   -0.190997    0.307875
 C   -1.431207    1.657684   -1.009641
 C   -1.899185    1.819982    0.397617
 C   -1.174361    2.098361    1.514675
 C   -1.957090    2.130578    2.691261
 C   -3.265659    1.868718    2.454967
 S   -3.571524    1.577915    0.790555
 N    1.595682    1.286093   -1.355507
 C    2.954020    1.672523   -0.976620
 C    2.947911    2.540270    0.288790
 C    2.203843    3.873432    0.127200
 C    2.127600    4.569398    1.485254
 C    2.885221    4.792020   -0.884366
 C    3.855739    0.419426   -0.819531
 O    3.805531   -0.163885    0.455240
 C    5.339576    0.771173   -1.045585
 N    6.126470   -0.373550   -0.548799
 C    7.574812   -0.183785   -0.304261
 C    7.957021   -0.502774    1.144355
 C    7.650926   -1.945409    1.554206
 C    8.118985   -2.206092    2.981269
 C    8.277378   -1.131946   -1.296002
 O    7.610501   -1.846071   -2.003270
 O    9.575674   -1.047204   -1.265047
 H   -6.601602   -0.542410    2.020891
 H   -8.247645   -0.921787    1.694824
 H   -7.442693    0.328948    0.811067
 H   -7.194672   -2.578595    0.478362
 H   -8.085743   -0.916785   -1.228669
 H   -6.841299   -2.017833   -1.777907
 H   -6.322328    0.070859   -2.750944
 H   -5.115245   -0.156684   -1.519318
 H   -6.255813    3.214502   -1.462063
 H   -4.764780   -2.675922   -0.930883
 H   -2.842919   -2.007556    1.193355
 H   -3.003674   -4.403903    0.464722
 H   -0.313260   -3.153996   -0.239320
 H   -0.633316   -4.835467    0.144974
 H   -2.079053   -5.047763   -1.758755
 H   -3.535026   -4.089175   -1.942223
 H   -1.957332   -3.349349   -2.210368
 H    0.275607   -3.797158    2.120127
 H   -1.415444   -4.163475    2.434499
 H   -0.912476   -2.505349    2.107060
 H   -0.742887   -1.071318    0.327182
 H   -0.590515    0.110121   -2.266857
 H   -0.817827    2.510256   -1.309961
 H   -2.298447    1.607745   -1.669003
 H   -0.115190    2.281022    1.504368
 H   -1.559890    2.342901    3.666783
 H   -4.076141    1.827528    3.153481
 H    1.188099    1.790305   -2.127059
 H    3.349273    2.246786   -1.817942
 H    2.487576    1.971176    1.097942
 H    3.976844    2.750641    0.582078
 H    1.181902    3.670428   -0.213354
 H    1.561105    5.492700    1.405239
 H    1.642892    3.937365    2.225660
 H    3.124559    4.812587    1.844093
 H    3.919969    4.969646   -0.601105
 H    2.865381    4.381642   -1.891558
 H    2.376667    5.751540   -0.910168
 H    3.542111   -0.315151   -1.581787
 H    2.855801   -0.300003    0.677712
 H    5.595789    1.648542   -0.448726
 H    5.553581    0.965130   -2.095853
 H    5.616048   -0.666213    0.309141
 H    6.096392   -1.168367   -1.235225
 H    7.867571    0.841584   -0.546835
 H    9.027072   -0.322017    1.253515
 H    7.436580    0.187655    1.811168
 H    6.577970   -2.147553    1.496855
 H    8.157327   -2.637367    0.878471
 H    9.190492   -2.050382    3.068538
 H    7.616350   -1.539971    3.677808
 H    7.899006   -3.229816    3.268572
 H   10.019170   -1.650606   -1.887769
