97 
4trw_ligand_dft.xyz
 N   -7.712247   -1.029839    0.922685
 C   -6.933744   -1.625995   -0.207948
 C   -5.523385   -1.854126    0.386550
 O   -5.374981   -1.735880    1.598426
 C   -7.019207   -0.774301   -1.487443
 C   -6.143262    0.480816   -1.597962
 C   -6.467624    1.605102   -0.651846
 O   -5.876567    2.733816   -1.001947
 O   -7.176471    1.525241    0.341718
 N   -4.568044   -2.214594   -0.479060
 C   -3.158596   -2.238794   -0.111018
 C   -2.487996   -1.164537   -0.977124
 O   -3.044979   -0.717388   -1.978536
 C   -2.553524   -3.654282   -0.275549
 C   -1.156546   -3.795301    0.351240
 C   -2.546681   -4.102833   -1.738571
 C   -1.071617   -3.424898    1.833221
 N   -1.274479   -0.742566   -0.575808
 C   -0.634991    0.403652   -1.175694
 C    0.788025    0.456116   -0.624099
 O    1.085418   -0.168478    0.396209
 C   -1.406603    1.725774   -0.878783
 C   -1.766149    1.880167    0.568361
 C   -0.987084    2.312660    1.602536
 C   -1.636895    2.246479    2.871463
 C   -2.904104    1.756305    2.786575
 S   -3.322143    1.378490    1.157591
 N    1.657380    1.220303   -1.316792
 C    2.991980    1.616615   -0.849675
 C    2.911511    2.632913    0.296178
 C    2.171342    3.935072   -0.045721
 C    2.134140    4.838386    1.189960
 C    2.793970    4.673774   -1.233829
 C    3.860185    0.380778   -0.509526
 O    3.719924   -0.090021    0.806967
 C    5.349052    0.707638   -0.636098
 N    6.104375   -0.451520   -0.066293
 C    7.568009   -0.246776    0.175373
 C    8.087734   -1.207195    1.254022
 C    7.907511   -2.693946    0.929309
 C    8.480984   -3.582001    2.032437
 C    8.233324   -0.482262   -1.177110
 O    7.633381   -0.959333   -2.113258
 O    9.506608   -0.135069   -1.162155
 H   -7.201256   -1.294264    1.787110
 H   -8.682283   -1.344464    0.957467
 H   -7.672065    0.018658    0.836335
 H   -7.370516   -2.608358   -0.411204
 H   -8.071317   -0.516663   -1.655306
 H   -6.752531   -1.428306   -2.324038
 H   -6.228368    0.876101   -2.615203
 H   -5.078122    0.243199   -1.478849
 H   -6.086138    3.413092   -0.337717
 H   -4.731708   -2.098840   -1.471590
 H   -3.109599   -1.937909    0.938708
 H   -3.230657   -4.308953    0.288670
 H   -0.426665   -3.217475   -0.230230
 H   -0.863392   -4.844621    0.234876
 H   -2.180190   -5.130228   -1.817729
 H   -3.547589   -4.082742   -2.182188
 H   -1.893769   -3.468506   -2.349266
 H   -0.093829   -3.694200    2.241638
 H   -1.832946   -3.955033    2.415504
 H   -1.209728   -2.352656    2.020648
 H   -0.883965   -1.039613    0.310612
 H   -0.602648    0.264694   -2.261938
 H   -0.803389    2.579530   -1.207609
 H   -2.304451    1.715786   -1.502141
 H    0.026077    2.674499    1.466804
 H   -1.180243    2.557622    3.803063
 H   -3.620738    1.609560    3.582647
 H    1.301046    1.708220   -2.126524
 H    3.457051    2.088372   -1.722172
 H    2.435971    2.150586    1.156787
 H    3.930673    2.887557    0.616307
 H    1.133277    3.681731   -0.305555
 H    1.552863    5.744262    0.995125
 H    1.686442    4.329764    2.051055
 H    3.146621    5.147460    1.475339
 H    3.856946    4.876365   -1.053851
 H    2.712019    4.116364   -2.174834
 H    2.299161    5.636450   -1.391503
 H    3.610294   -0.407907   -1.237773
 H    2.764077   -0.274977    0.935931
 H    5.609373    1.582649   -0.036396
 H    5.668424    0.851440   -1.669103
 H    5.597926   -0.712463    0.793758
 H    6.029355   -1.234851   -0.729984
 H    7.716134    0.790083    0.487838
 H    9.149736   -0.981146    1.393982
 H    7.592727   -0.959937    2.201717
 H    6.842065   -2.932041    0.799668
 H    8.397996   -2.930588   -0.023094
 H    9.553360   -3.405125    2.160623
 H    7.989765   -3.390019    2.991960
 H    8.341845   -4.638250    1.789831
 H    9.905078   -0.335338   -2.027549
