97 
4trw_ligand_ani.xyz
 N   -7.776850   -1.397418    0.829662
 C   -6.921926   -1.802385   -0.332783
 C   -5.543640   -2.109645    0.284895
 O   -5.450986   -2.223941    1.501714
 C   -6.906256   -0.781056   -1.481240
 C   -6.129074    0.523322   -1.266054
 C   -6.862667    1.550528   -0.439953
 O   -6.341622    2.773276   -0.578052
 O   -7.819871    1.335706    0.277971
 N   -4.490638   -2.255243   -0.553700
 C   -3.127930   -2.251047   -0.056867
 C   -2.335370   -1.340948   -0.998565
 O   -2.665963   -1.204237   -2.171496
 C   -2.541950   -3.681537    0.032322
 C   -1.201565   -3.737532    0.776951
 C   -2.425275   -4.347480   -1.338893
 C   -1.275897   -3.347391    2.251643
 N   -1.274247   -0.683704   -0.470944
 C   -0.638147    0.394411   -1.184664
 C    0.758314    0.593657   -0.582639
 O    1.054134    0.092389    0.500222
 C   -1.493197    1.692659   -1.174113
 C   -1.838711    2.202175    0.197903
 C   -1.094324    3.043225    0.976723
 C   -1.664775    3.290320    2.261391
 C   -2.848666    2.639787    2.434713
 S   -3.281203    1.733266    1.040025
 N    1.611112    1.345181   -1.315836
 C    3.013094    1.633043   -0.967310
 C    3.129755    2.614740    0.207100
 C    2.713526    4.060494   -0.098966
 C    2.626965    4.855675    1.204871
 C    3.667664    4.753763   -1.074548
 C    3.822239    0.338957   -0.719271
 O    3.773145   -0.113108    0.625021
 C    5.313794    0.518621   -1.024583
 N    6.028921   -0.642257   -0.442648
 C    7.457878   -0.437248   -0.111809
 C    7.841724   -0.949953    1.284918
 C    7.761773   -2.467903    1.447894
 C    8.060236   -2.914436    2.875683
 C    8.230617   -1.174565   -1.201480
 O    7.676228   -1.890838   -2.005849
 O    9.550450   -0.981615   -1.147851
 H   -7.179462   -1.629753    1.653626
 H   -8.665413   -1.916282    0.862278
 H   -7.961333   -0.375543    0.790541
 H   -7.307853   -2.743803   -0.730012
 H   -7.946398   -0.539228   -1.724106
 H   -6.505488   -1.282490   -2.368913
 H   -5.908457    0.989167   -2.232329
 H   -5.158988    0.351388   -0.781954
 H   -6.858874    3.370365   -0.010205
 H   -4.576653   -1.986157   -1.526399
 H   -3.148942   -1.824059    0.953392
 H   -3.276760   -4.242308    0.628939
 H   -0.457926   -3.121159    0.254665
 H   -0.834042   -4.769562    0.709954
 H   -2.090077   -5.384368   -1.226969
 H   -3.386599   -4.357490   -1.862127
 H   -1.700927   -3.826137   -1.975291
 H   -0.305606   -3.482353    2.740103
 H   -2.007205   -3.966860    2.783684
 H   -1.566453   -2.300298    2.394953
 H   -1.001676   -0.814504    0.491681
 H   -0.548175    0.089531   -2.232535
 H   -0.946309    2.472014   -1.720791
 H   -2.403908    1.474981   -1.742292
 H   -0.156920    3.469785    0.630999
 H   -1.217061    3.923614    3.019680
 H   -3.492380    2.644621    3.304428
 H    1.265612    1.738598   -2.178277
 H    3.430940    2.084207   -1.875656
 H    2.521618    2.226018    1.031556
 H    4.166087    2.617351    0.570302
 H    1.710860    4.050090   -0.554314
 H    2.274592    5.877666    1.025600
 H    1.942839    4.379998    1.917664
 H    3.610902    4.922090    1.686963
 H    4.682175    4.790723   -0.657174
 H    3.722400    4.247368   -2.044109
 H    3.348584    5.785719   -1.260786
 H    3.407382   -0.437265   -1.380693
 H    2.828325   -0.202367    0.848314
 H    5.686820    1.436773   -0.555826
 H    5.490577    0.602439   -2.100472
 H    5.459378   -0.896135    0.391790
 H    6.042492   -1.421487   -1.140948
 H    7.695573    0.626996   -0.180130
 H    8.859812   -0.613296    1.502125
 H    7.181207   -0.453627    2.007758
 H    6.765631   -2.823541    1.149386
 H    8.473908   -2.938344    0.758960
 H    9.062525   -2.596627    3.184746
 H    7.341723   -2.485490    3.583982
 H    8.011799   -4.004187    2.968590
 H    9.943917   -1.509535   -1.863549
