95 
4trz_ligand_ani.xyz
 N    7.642004   -0.708773    1.921436
 C    6.969881   -0.262884    0.665425
 C    5.857543    0.693212    1.137736
 O    5.538542    0.697547    2.317127
 C    6.366622   -1.440198   -0.120714
 C    7.382512   -2.250793   -0.925863
 C    8.268782   -3.139108   -0.089505
 O    9.144620   -3.824337   -0.834152
 O    8.223452   -3.262259    1.118599
 N    5.279602    1.491007    0.192575
 C    3.946965    2.021401    0.404225
 C    2.917595    1.017045   -0.147952
 O    3.229266    0.141736   -0.946996
 C    3.769546    3.415937   -0.242605
 C    4.003237    3.388233   -1.762240
 C    4.666483    4.439296    0.454892
 C    3.471050    4.629341   -2.478016
 N    1.640445    1.181059    0.279631
 C    0.555876    0.415369   -0.288427
 C   -0.704660    1.277841   -0.180203
 O   -0.760043    2.199236    0.638520
 C    0.410521   -0.952031    0.420416
 C   -0.482527   -1.915302   -0.310504
 C   -0.185756   -2.551995   -1.480409
 C   -1.202513   -3.460791   -1.905876
 C   -2.265133   -3.487658   -1.056146
 S   -2.038204   -2.404396    0.269076
 C   -3.440652    1.727577   -2.635036
 C   -4.122305    0.410010   -2.887048
 C   -3.562280   -0.757502   -3.320568
 C   -4.507376   -1.818954   -3.478936
 N   -1.719227    1.006371   -1.024476
 C   -2.820768    1.941236   -1.242139
 S   -5.836151    0.229868   -2.727027
 C   -5.779568   -1.430892   -3.183124
 C   -3.851398    1.984097   -0.092938
 O   -3.450769    2.869854    0.944050
 C   -4.167973    0.641296    0.565959
 N   -5.104145    0.960707    1.679542
 C   -5.326172   -0.058162    2.735936
 C   -5.220209   -1.516697    2.282968
 C   -6.290805   -1.926524    1.267071
 C   -7.715753   -1.871252    1.817358
 C   -4.393899    0.319731    3.880114
 O   -3.829324    1.389587    3.924286
 O   -4.305737   -0.600704    4.846430
 H    7.778918   -1.735429    1.912531
 H    6.969269   -0.418123    2.666993
 H    8.549629   -0.238406    2.056125
 H    7.682115    0.278312    0.037215
 H    5.602799   -1.052442   -0.802335
 H    5.844567   -2.098580    0.583414
 H    6.870124   -2.903688   -1.641537
 H    8.032001   -1.597213   -1.519313
 H    9.660704   -4.373280   -0.219164
 H    5.449581    1.204820   -0.763745
 H    3.813437    2.120878    1.487162
 H    2.720999    3.706105   -0.071827
 H    5.079915    3.290769   -1.958805
 H    3.534017    2.492352   -2.190595
 H    4.509919    5.445704    0.053389
 H    5.721678    4.178460    0.322879
 H    4.461133    4.479995    1.530817
 H    3.957318    5.546243   -2.127159
 H    2.392433    4.740543   -2.319071
 H    3.641644    4.560002   -3.557348
 H    1.378073    1.966222    0.860049
 H    0.788962    0.221091   -1.342950
 H    1.424203   -1.368560    0.448264
 H    0.085635   -0.798337    1.455072
 H    0.744033   -2.379110   -2.017482
 H   -1.137208   -4.069046   -2.803256
 H   -3.158109   -4.094987   -1.134321
 H   -4.146900    2.544396   -2.824478
 H   -2.628682    1.848534   -3.363980
 H   -2.507597   -0.833200   -3.560863
 H   -4.250795   -2.823921   -3.798881
 H   -1.681688    0.159568   -1.577710
 H   -2.383268    2.945913   -1.243249
 H   -6.684059   -2.025126   -3.217280
 H   -4.778170    2.405047   -0.506734
 H   -2.478208    2.783075    1.038679
 H   -3.256049    0.229105    1.003089
 H   -4.579583   -0.084102   -0.136566
 H   -4.636463    1.777574    2.146936
 H   -6.014631    1.278483    1.304345
 H   -6.333231    0.100535    3.138723
 H   -5.313970   -2.143421    3.174706
 H   -4.220306   -1.697918    1.875073
 H   -6.076977   -2.949952    0.935869
 H   -6.230332   -1.299488    0.367600
 H   -8.429902   -2.263375    1.086337
 H   -7.806772   -2.468546    2.731880
 H   -8.024122   -0.847850    2.054703
 H   -3.718395   -0.230325    5.527061
