57 
4tsx_ligand_xtb.xyz
 C   -0.748774    1.001803    0.183266
 C   -1.670765   -0.022243    0.141989
 C   -3.023534    0.279696   -0.175830
 N   -3.429683    1.493603   -0.430736
 C   -2.557730    2.518715   -0.385230
 C   -1.186360    2.329822   -0.074931
 C    0.680017    0.754701    0.465095
 C    1.100833    0.307325    1.715553
 C    2.437283    0.065627    1.952960
 C    3.383358    0.260976    0.947602
 C    2.974444    0.699972   -0.313412
 C    1.627611    0.946721   -0.531879
 C   -0.339459    3.454180   -0.021415
 C   -0.829447    4.704059   -0.284455
 C   -2.182308    4.887070   -0.607972
 C   -3.032988    3.818168   -0.655207
 C   -4.062129   -0.792827   -0.236095
 C   -1.243063   -1.459597    0.370559
 C   -1.947099   -2.038158    1.594593
 O   -2.496283   -3.101182    1.665726
 O   -1.848562   -1.204525    2.642671
 O   -1.494063   -2.232197   -0.779296
 C   -0.475658   -3.129183   -1.231969
 C   -1.160249   -3.900926   -2.363043
 C   -0.033562   -4.101389   -0.134480
 C    0.728033   -2.352460   -1.782301
 O    4.677463   -0.017563    1.268075
 C    5.658713    0.359296    0.322792
 C    5.226391    0.051472   -1.105845
 C    3.981190    0.875400   -1.417999
 H    0.372375    0.158631    2.498598
 H    2.779373   -0.278841    2.916066
 H    1.307578    1.279070   -1.509647
 H    0.700297    3.316334    0.237693
 H   -0.174512    5.562070   -0.240324
 H   -2.546708    5.883100   -0.813314
 H   -4.079036    3.932962   -0.891890
 H   -3.684558   -1.658733   -0.772313
 H   -4.333093   -1.109254    0.770625
 H   -4.949582   -0.400848   -0.724522
 H   -0.174323   -1.455347    0.619432
 H   -2.291454   -1.587957    3.417075
 H   -2.013227   -4.443915   -1.966372
 H   -0.468687   -4.602910   -2.819396
 H   -1.515551   -3.205010   -3.117986
 H   -0.907969   -4.539848    0.339435
 H    0.570167   -4.893623   -0.568651
 H    0.560326   -3.600516    0.627920
 H    1.260468   -1.825823   -0.992630
 H    1.420356   -3.039277   -2.261411
 H    0.389909   -1.622636   -2.514315
 H    6.555818   -0.199144    0.601349
 H    5.866735    1.434147    0.424642
 H    4.996438   -1.013063   -1.186754
 H    6.037061    0.286411   -1.795309
 H    4.249711    1.933437   -1.504208
 H    3.542921    0.569774   -2.370120
