57 
4tsx_ligand_ani.xyz
 C   -0.793561    1.019404    0.107498
 C   -1.649044   -0.070832    0.092068
 C   -3.036157    0.131854   -0.205479
 N   -3.537712    1.317249   -0.453595
 C   -2.712191    2.405704   -0.429725
 C   -1.331661    2.320632   -0.152563
 C    0.665900    0.878375    0.372245
 C    1.153278    0.872065    1.682747
 C    2.510995    0.749860    1.929990
 C    3.408436    0.623748    0.867613
 C    2.953762    0.590760   -0.454645
 C    1.579387    0.737711   -0.673508
 C   -0.551507    3.510742   -0.142590
 C   -1.132043    4.724691   -0.409464
 C   -2.514975    4.801705   -0.693135
 C   -3.286355    3.671293   -0.702497
 C   -4.025477   -1.010265   -0.266321
 C   -1.135411   -1.482403    0.416979
 C   -1.678401   -1.981682    1.757694
 O   -2.368253   -2.951138    1.952571
 O   -1.265523   -1.176465    2.753523
 O   -1.471221   -2.394107   -0.602458
 C   -0.458262   -3.303401   -1.070719
 C   -1.191500   -4.173298   -2.091525
 C    0.080357   -4.178085    0.063739
 C    0.669813   -2.534018   -1.765133
 O    4.725452    0.494319    1.204179
 C    5.661261    0.711871    0.155473
 C    5.284312   -0.085310   -1.079397
 C    3.939828    0.421446   -1.593859
 H    0.457258    0.943789    2.516395
 H    2.909651    0.749979    2.939574
 H    1.203326    0.719780   -1.697378
 H    0.509662    3.428236    0.085381
 H   -0.536104    5.633177   -0.404298
 H   -2.964591    5.769208   -0.904151
 H   -4.351134    3.698629   -0.915583
 H   -3.765747   -1.701954   -1.071104
 H   -4.023766   -1.590935    0.661262
 H   -5.018881   -0.595591   -0.439933
 H   -0.050059   -1.418808    0.539886
 H   -1.633631   -1.540535    3.575239
 H   -2.017092   -4.708047   -1.611282
 H   -0.512934   -4.909167   -2.537372
 H   -1.601913   -3.548582   -2.890873
 H   -0.741566   -4.677620    0.584300
 H    0.752987   -4.938556   -0.347627
 H    0.647215   -3.599505    0.800530
 H    1.286598   -1.960475   -1.064754
 H    1.329370   -3.236956   -2.285230
 H    0.244527   -1.838712   -2.495989
 H    6.629677    0.414856    0.565687
 H    5.694669    1.786714   -0.081223
 H    5.214556   -1.146328   -0.812752
 H    6.061585    0.017768   -1.844373
 H    4.080846    1.391448   -2.092733
 H    3.531114   -0.258831   -2.351870
