58 
4tv3_ligand_ani.xyz
 C   -2.876200   -2.125882   -0.840237
 C   -3.870028   -3.072430   -0.855244
 C   -4.247757   -0.810679    0.595435
 C   -3.052144   -0.935838   -0.107692
 C   -1.508691    2.527738   -0.012527
 C   -1.823525    3.912202    0.070368
 C   -0.133927    2.216074   -0.036948
 C   -5.027171   -2.826616   -0.102796
 C    0.387479    4.418797    0.099161
 C   -2.441071    1.462081   -0.053668
 C   -2.054042    0.151495   -0.103383
 C   -0.622863   -0.179831   -0.130388
 C    2.205602   -0.107782    1.115289
 C    2.170576   -0.145659   -1.406070
 C    3.728389   -0.254576    1.092945
 C    3.694805   -0.290078   -1.425489
 C    1.728576    0.614758   -0.150225
 C    4.198268   -0.992335   -0.158656
 C   -3.252381    4.365131    0.102308
 C   -7.147864   -3.545438    0.638043
 C    6.264661   -3.347046    0.279207
 C    6.205748   -2.179792   -0.691472
 N   -5.214133   -1.732678    0.615645
 N   -0.892785    4.842663    0.124675
 N    0.806897    3.163464    0.016132
 N    0.277179    0.905080   -0.123260
 N    1.348730    5.383650    0.189677
 O   -0.194456   -1.328104   -0.146580
 O    7.146181   -3.003803    1.329401
 O   -5.974941   -3.778817   -0.131176
 O    5.614469   -1.031236   -0.126122
 H   -1.946821   -2.278943   -1.378875
 H   -3.784193   -3.999854   -1.412962
 H   -4.431586    0.070850    1.208510
 H   -3.503591    1.702509   -0.072999
 H    1.877512    0.463563    1.990620
 H    1.726110   -1.091483    1.164839
 H    1.695646   -1.131501   -1.412515
 H    1.818969    0.393973   -2.292020
 H    4.084852   -0.790284    1.981136
 H    4.209477    0.734015    1.103977
 H    4.172996    0.698563   -1.481638
 H    4.012405   -0.846697   -2.317439
 H    2.204734    1.596194   -0.174042
 H    3.782110   -2.015698   -0.141280
 H   -3.772276    4.093204   -0.823265
 H   -3.793444    3.897658    0.932476
 H   -3.285314    5.450976    0.220143
 H   -6.904163   -3.428560    1.698325
 H   -7.666875   -2.644005    0.298252
 H   -7.773703   -4.425454    0.485417
 H    6.615549   -4.238234   -0.266085
 H    5.251930   -3.563350    0.655837
 H    5.682332   -2.491746   -1.610523
 H    7.227929   -1.895228   -0.960543
 H    1.047794    6.324836   -0.012676
 H    2.273703    5.113497   -0.108115
 H    7.008019   -3.624151    2.053398
