98 
4tw6_ligand_ani.xyz
 C    2.206018    1.603381    4.251874
 O    0.949529    1.061523    3.912508
 C    0.356501    1.520417    2.780302
 C    0.878180    2.524500    1.960847
 C   -0.865538    0.911937    2.463580
 O   -1.336349   -0.136118    3.208162
 C   -2.098405    0.271610    4.333532
 C   -1.569383    1.347054    1.337174
 O   -2.739046    0.696756    1.088389
 C   -3.586432    1.241123    0.096482
 C   -1.036725    2.331774    0.505700
 C    0.183064    2.924035    0.815376
 C    0.730649    4.025022   -0.090529
 C   -0.135318    5.295552   -0.075331
 C   -0.244588    5.888852    1.299841
 C    0.166301    7.108615    1.634510
 C    0.798603    3.479016   -1.516098
 O   -0.141805    3.633918   -2.284002
 N    1.915530    2.778906   -1.907440
 C    2.947355    2.281616   -0.992247
 C    4.297374    2.266305   -1.696794
 C    4.226246    1.419495   -2.963298
 C    3.145002    1.964837   -3.891497
 C    1.792675    2.082919   -3.180765
 C    1.109688    0.719830   -3.084074
 O    0.740226    0.117178   -4.066108
 O    0.994182    0.260376   -1.828705
 C    0.504199   -1.092811   -1.675724
 C   -1.020875   -1.051324   -1.581147
 C   -1.662486   -2.443748   -1.484823
 C   -3.164130   -2.389874   -1.309649
 C   -3.716260   -2.209810   -0.033846
 C   -4.022496   -2.461641   -2.396344
 C   -5.405289   -2.358691   -2.228256
 C   -5.954299   -2.180932   -0.967860
 O   -7.279516   -2.068841   -0.704862
 C   -8.164700   -2.159638   -1.798419
 C   -5.090484   -2.102968    0.150100
 O   -5.694041   -1.919318    1.352452
 C   -4.849215   -1.740378    2.472006
 C    1.205925   -1.680624   -0.463987
 C    2.459142   -2.258531   -0.650083
 C    0.677498   -1.632264    0.830628
 C    1.401342   -2.141707    1.898942
 C    2.655128   -2.719938    1.713363
 C    3.178946   -2.778738    0.426805
 O    4.390320   -3.328036    0.117200
 C    5.180453   -3.818076    1.160889
 C    6.481506   -4.330238    0.575289
 O    7.276821   -4.777722    1.567962
 O    6.786522   -4.350484   -0.585584
 H    2.533154    1.077706    5.150499
 H    2.134193    2.678069    4.464044
 H    2.937879    1.443290    3.448953
 H    1.818433    2.999292    2.220874
 H   -2.963530    0.873001    4.019198
 H   -2.448256   -0.637884    4.829724
 H   -1.485632    0.855956    5.030671
 H   -3.123397    1.172366   -0.898384
 H   -4.501907    0.648358    0.108909
 H   -3.818726    2.292727    0.312173
 H   -1.553967    2.628635   -0.403707
 H    1.729142    4.303786    0.261247
 H    0.293270    6.022569   -0.773453
 H   -1.127628    5.042692   -0.460474
 H   -0.693418    5.236761    2.053914
 H    0.063467    7.492788    2.646101
 H    0.619960    7.775912    0.903344
 H    2.677923    1.272420   -0.660482
 H    2.994449    2.922637   -0.111334
 H    4.576047    3.296266   -1.952322
 H    5.062476    1.883183   -1.010739
 H    5.192197    1.416962   -3.479306
 H    4.005451    0.372969   -2.704401
 H    3.017517    1.333025   -4.777509
 H    3.431788    2.965533   -4.236244
 H    1.127021    2.680132   -3.809495
 H    0.810579   -1.657843   -2.562548
 H   -1.394806   -0.541291   -2.477399
 H   -1.308406   -0.432461   -0.720804
 H   -1.419835   -3.009541   -2.393900
 H   -1.211697   -2.994127   -0.647146
 H   -3.049851   -2.137323    0.821970
 H   -3.623647   -2.604603   -3.398810
 H   -6.047906   -2.422011   -3.100134
 H   -8.079159   -3.131167   -2.303921
 H   -9.168240   -2.054179   -1.383949
 H   -7.985435   -1.357650   -2.527354
 H   -5.511196   -1.539949    3.316997
 H   -4.269141   -2.650663    2.678899
 H   -4.163909   -0.893830    2.325462
 H    2.903512   -2.319444   -1.641588
 H   -0.311049   -1.214554    1.020537
 H    0.979574   -2.095288    2.899971
 H    3.200491   -3.116020    2.563700
 H    5.416060   -3.040001    1.899995
 H    4.691192   -4.646683    1.691733
 H    8.090479   -5.092472    1.140472
