119 
4tw7_ligand_ani.xyz
 C    3.755759    2.470395   -1.727753
 C    3.817627    3.891475   -2.266576
 O    4.884756    4.619958   -1.684738
 C    4.702194    4.708960   -0.285156
 C    4.653592    3.333146    0.371203
 N    3.582938    2.479041   -0.232380
 C    3.622017    1.102997    0.351323
 C    2.382653    0.275023    0.050744
 O    2.512601   -0.280489   -1.252389
 C    1.756574   -1.364137   -1.580219
 C    0.756092   -1.908838   -0.774319
 C    2.040456   -1.931998   -2.829147
 C    1.370926   -3.075362   -3.231805
 C    0.436306   -3.669886   -2.390085
 C    0.146949   -3.106762   -1.148383
 C   -0.773978   -3.848999   -0.204104
 C   -0.136554   -4.263583    1.131276
 C    1.154610   -5.095669    0.999602
 C    2.407174   -4.274888    0.739677
 C    2.790517   -3.292428    1.658374
 C    3.165834   -4.426955   -0.420711
 C    4.237774   -3.579567   -0.683564
 C    4.585419   -2.574643    0.201801
 O    5.614572   -1.716442   -0.099466
 C    6.812414   -1.979199    0.617272
 C    3.865419   -2.446492    1.402584
 O    4.264360   -1.436020    2.227798
 C    3.622271   -1.326083    3.479537
 O   -1.913589   -2.992656    0.069666
 C   -3.042448   -3.623987    0.425650
 O   -3.135929   -4.824009    0.565117
 C   -4.213659   -2.678859    0.696240
 C   -5.543761   -3.403885    0.514155
 C   -5.841898   -3.618536   -0.966229
 C   -5.830705   -2.276032   -1.689044
 C   -4.496066   -1.562801   -1.495938
 N   -4.172104   -1.441756   -0.074238
 C   -3.598819   -0.351049    0.543664
 O   -3.350917   -0.385710    1.741855
 C   -3.364609    0.911307   -0.295940
 C   -4.670649    1.763085   -0.293242
 C   -5.053687    2.337182    1.079053
 C   -6.318215    3.180692    0.947855
 C   -6.077499    4.384792    0.030934
 C   -5.292023    4.015759   -1.198122
 C   -4.645562    2.857041   -1.331477
 C   -2.094416    1.673276    0.075228
 C   -1.315476    2.191029   -0.970309
 C   -1.719923    1.929101    1.392757
 C   -0.600268    2.713772    1.672603
 O   -0.183942    3.041243    2.923774
 C   -1.005194    2.653669    3.999804
 C    0.189325    3.201616    0.630574
 O    1.384744    3.852946    0.875570
 C    1.224730    5.205066    1.298552
 C   -0.184623    2.954075   -0.691543
 O    0.652373    3.479552   -1.632864
 C    0.385204    3.147720   -2.980242
 H    4.688477    1.945398   -1.965150
 H    2.930825    1.924205   -2.183037
 H    3.994056    3.876580   -3.347563
 H    2.862351    4.401633   -2.072175
 H    5.546214    5.283287    0.108006
 H    3.772965    5.258604   -0.060161
 H    4.466607    3.432294    1.446265
 H    5.623636    2.838606    0.233540
 H    2.662390    2.899918    0.000838
 H    3.737228    1.194603    1.438390
 H    4.496917    0.564394   -0.024365
 H    1.467370    0.879121    0.100450
 H    2.312241   -0.525743    0.790158
 H    0.452785   -1.417988    0.150362
 H    2.793036   -1.465725   -3.459492
 H    1.586845   -3.517066   -4.202825
 H   -0.067588   -4.584786   -2.696649
 H   -1.139425   -4.743234   -0.718914
 H    0.051768   -3.358520    1.719599
 H   -0.884657   -4.847317    1.677306
 H    1.283224   -5.671468    1.926534
 H    1.022154   -5.839351    0.202732
 H    2.234701   -3.185075    2.586674
 H    2.896597   -5.192815   -1.146136
 H    4.826245   -3.679465   -1.593055
 H    7.183720   -2.989771    0.401068
 H    6.654506   -1.867995    1.695156
 H    7.546001   -1.245210    0.275936
 H    2.547016   -1.132758    3.364725
 H    3.761690   -2.233975    4.080048
 H    4.086865   -0.480668    3.989351
 H   -4.097851   -2.384131    1.744708
 H   -5.503407   -4.355396    1.052082
 H   -6.330926   -2.787634    0.964082
 H   -5.085982   -4.291106   -1.394726
 H   -6.812607   -4.111209   -1.087081
 H   -6.639666   -1.644099   -1.298604
 H   -6.015901   -2.405873   -2.762351
 H   -4.553172   -0.572227   -1.950033
 H   -3.698666   -2.116346   -2.013037
 H   -3.199631    0.599279   -1.331506
 H   -5.481429    1.073135   -0.576457
 H   -4.234750    2.968633    1.452193
 H   -5.192424    1.526061    1.802253
 H   -7.123857    2.556888    0.536932
 H   -6.657225    3.521572    1.932759
 H   -5.527561    5.166806    0.574469
 H   -7.029691    4.847823   -0.259169
 H   -5.245339    4.757826   -1.994467
 H   -4.077388    2.656228   -2.240277
 H   -1.590813    2.001499   -2.002909
 H   -2.316731    1.497517    2.186922
 H   -2.022975    3.049459    3.881744
 H   -1.055978    1.560291    4.085375
 H   -0.552742    3.067134    4.902453
 H    2.218539    5.580731    1.557821
 H    0.576291    5.261718    2.178042
 H    0.802157    5.801760    0.480080
 H   -0.579561    3.562842   -3.302436
 H    0.370154    2.057718   -3.117478
 H    1.183465    3.582159   -3.586579
