119 
4tw7_ligand_dft.xyz
 C    4.348918    1.303396   -1.264040
 C    4.970844    2.474968   -2.005219
 O    5.938083    3.127592   -1.217975
 C    5.343734    3.666905   -0.064825
 C    4.735895    2.577001    0.807128
 N    3.735009    1.779895    0.024010
 C    3.211073    0.651517    0.868280
 C    1.872315    0.067330    0.444606
 O    1.882737   -0.195511   -0.942009
 C    1.101713   -1.205840   -1.429142
 C    0.128936   -1.858083   -0.687824
 C    1.359012   -1.581409   -2.751078
 C    0.660900   -2.638670   -3.309594
 C   -0.267384   -3.349934   -2.547160
 C   -0.518289   -2.970270   -1.235590
 C   -1.440753   -3.777528   -0.355704
 C   -0.743118   -4.468437    0.825188
 C    0.518439   -5.276731    0.458333
 C    1.782726   -4.447576    0.347400
 C    2.224516   -3.716753    1.458984
 C    2.501308   -4.361797   -0.838347
 C    3.613622   -3.526288   -0.933461
 C    4.025597   -2.775504    0.152909
 O    5.075848   -1.892388    0.028357
 C    6.292524   -2.357788    0.608275
 C    3.333004   -2.881891    1.372282
 O    3.794884   -2.095709    2.385851
 C    3.153391   -2.191957    3.642245
 O   -2.396204   -2.828448    0.147457
 C   -3.582725   -3.260988    0.591335
 O   -3.903820   -4.421991    0.664756
 C   -4.451901   -2.065734    1.001678
 C   -5.939756   -2.419699    1.015415
 C   -6.494779   -2.594050   -0.399195
 C   -6.152255   -1.378860   -1.261753
 C   -4.650271   -1.100080   -1.239055
 N   -4.181643   -0.921835    0.135270
 C   -3.267075    0.001093    0.571575
 O   -2.792149   -0.060849    1.699473
 C   -2.925101    1.150658   -0.384809
 C   -4.136951    2.133351   -0.496665
 C   -4.602136    2.730266    0.835932
 C   -5.689610    3.778107    0.593461
 C   -5.137094    4.947533   -0.226430
 C   -4.295952    4.472410   -1.381306
 C   -3.858557    3.220155   -1.507629
 C   -1.622036    1.852140   -0.051670
 C   -0.702045    2.045375   -1.084993
 C   -1.345888    2.348983    1.224235
 C   -0.175403    3.067451    1.461366
 O    0.184345    3.588627    2.655312
 C   -0.718213    3.438218    3.737832
 C    0.735705    3.269594    0.419159
 O    1.946975    3.881373    0.660613
 C    1.896415    5.304194    0.543561
 C    0.477405    2.746936   -0.848170
 O    1.479389    2.926024   -1.758705
 C    1.278564    2.400840   -3.060156
 H    5.094994    0.550990   -0.997542
 H    3.557739    0.827259   -1.837543
 H    5.475835    2.104962   -2.899456
 H    4.186482    3.184961   -2.312980
 H    6.125495    4.183065    0.495760
 H    4.567949    4.399089   -0.338221
 H    4.209240    3.006580    1.661204
 H    5.502308    1.876274    1.148712
 H    2.970606    2.436805   -0.204537
 H    3.098101    1.041883    1.882768
 H    3.986824   -0.116994    0.866352
 H    1.037017    0.726520    0.695757
 H    1.763478   -0.860551    1.015707
 H   -0.123083   -1.544563    0.319247
 H    2.127044   -1.056246   -3.310860
 H    0.858138   -2.929890   -4.336485
 H   -0.783322   -4.204879   -2.974522
 H   -1.974734   -4.526918   -0.949612
 H   -0.492116   -3.699714    1.565321
 H   -1.480916   -5.128132    1.290069
 H    0.662802   -6.040361    1.231526
 H    0.353112   -5.820735   -0.478945
 H    1.678328   -3.799667    2.393156
 H    2.172172   -4.915134   -1.711632
 H    4.160570   -3.429237   -1.865813
 H    6.608469   -3.293591    0.134051
 H    6.179649   -2.509857    1.686108
 H    7.041393   -1.585731    0.421585
 H    2.101082   -1.885204    3.580062
 H    3.210342   -3.210083    4.043916
 H    3.690342   -1.513337    4.305489
 H   -4.118447   -1.780391    2.003383
 H   -6.078990   -3.332526    1.599803
 H   -6.469524   -1.607943    1.527078
 H   -6.064737   -3.497804   -0.848790
 H   -7.578114   -2.743049   -0.360744
 H   -6.678899   -0.491732   -0.886534
 H   -6.469337   -1.535587   -2.298141
 H   -4.430435   -0.216270   -1.833374
 H   -4.101993   -1.937757   -1.696593
 H   -2.783871    0.721588   -1.382505
 H   -4.975039    1.531882   -0.878351
 H   -3.758688    3.217729    1.337338
 H   -4.963473    1.937590    1.500367
 H   -6.526693    3.316694    0.053625
 H   -6.088803    4.139838    1.546644
 H   -4.530810    5.605115    0.413700
 H   -5.957294    5.571092   -0.601418
 H   -4.050309    5.202299   -2.150059
 H   -3.277307    2.941091   -2.385841
 H   -0.906253    1.627375   -2.063493
 H   -2.027894    2.126580    2.030247
 H   -1.681572    3.914054    3.520911
 H   -0.880341    2.381041    3.977056
 H   -0.249379    3.936918    4.585953
 H    2.887915    5.678469    0.806152
 H    1.159338    5.710923    1.241319
 H    1.648323    5.594182   -0.482733
 H    0.414132    2.868988   -3.543015
 H    1.144232    1.314163   -3.029569
 H    2.179074    2.646353   -3.625244
