46 
4twc_ligand_dft.xyz
 N    9.546890  -13.024969    6.528400
 C    8.748638  -12.560766    5.512135
 O   11.882842  -16.220429    5.478547
 N    5.975454   -9.179641    5.820529
 C    7.832477  -11.421687    5.802217
 N    6.416670   -8.859816    3.635661
 C   11.911783  -15.755925    6.601322
 C   12.744923  -16.298428    7.720859
 F    1.529262   -5.417326    5.515379
 C    2.752590   -5.329922    6.071403
 F    2.610648   -5.586859    7.383104
 F    3.131738   -4.043148    5.956657
 C    3.730183   -6.256537    5.407162
 C    4.329330   -7.277957    6.131767
 C    5.214048   -8.091799    5.436159
 C    6.653708   -9.569793    4.706388
 C    5.505266   -7.911909    4.068716
 C    4.888222   -6.877354    3.360780
 C    4.004505   -6.058420    4.041259
 N    7.528221  -10.644230    4.708437
 O    7.377557  -11.207587    6.912945
 C   10.238630  -14.040457    6.112836
 S    9.976726  -14.527591    4.458020
 C    8.836470  -13.236914    4.331248
 N   11.129785  -14.677465    6.956120
 C   12.161136  -16.568470    8.959625
 C   12.907573  -17.116914    9.995375
 C   14.253305  -17.395976    9.789772
 C   14.857469  -17.136404    8.563441
 C   14.101319  -16.587470    7.533600
 O   14.603088  -16.285294    6.285512
 C   15.930983  -16.116791    6.084549
 F   16.469457  -15.252283    6.951539
 F   16.086415  -15.649525    4.858636
 F   16.612108  -17.266846    6.188723
 H    6.090182   -9.624711    6.721645
 H    4.113398   -7.425095    7.183287
 H    5.103355   -6.728119    2.308451
 H    3.510900   -5.245591    3.518502
 H    8.021028  -10.776137    3.836794
 H    8.271105  -13.087075    3.421378
 H   11.223358  -14.252120    7.868898
 H   11.102782  -16.367929    9.101683
 H   12.440107  -17.330149   10.950464
 H   14.849437  -17.826314   10.587979
 H   15.904928  -17.364857    8.419096
