35 
4twd_ligand_ani.xyz
 C   -0.762839   -1.251278    1.277739
 C    1.404272   -0.000078    1.311054
 N    2.861464   -0.000140   -0.708606
 C   -0.753572    1.271770   -0.259317
 C   -0.753719   -1.271700   -0.259314
 C    1.428464   -0.000080   -0.222860
 C   -0.048314   -0.000016    1.808124
 C   -1.451633    0.000097   -0.766746
 C    0.705932    1.250069   -0.740257
 C    0.705829   -1.250115   -0.740262
 C   -0.762711    1.251360    1.277730
 C   -1.465099    2.517680   -0.778130
 C   -1.465366   -2.517556   -0.778155
 H   -0.268077   -2.157234    1.655551
 H   -1.801434   -1.277512    1.637302
 H    1.928706   -0.886653    1.695301
 H    1.928810    0.886398    1.695327
 H    2.888635   -0.000146   -1.746667
 H    3.355498   -0.844243   -0.360082
 H    3.355555    0.843963   -0.360104
 H   -0.064236   -0.000004    2.905210
 H   -2.502910    0.000128   -0.440549
 H   -1.458698    0.000082   -1.867304
 H    0.724371    1.272182   -1.840716
 H    1.216680    2.159084   -0.387170
 H    1.216454   -2.159213   -0.387178
 H    0.724251   -1.272254   -1.840727
 H   -0.267814    2.157265    1.655565
 H   -1.801290    1.277714    1.637324
 H   -2.508321    2.546530   -0.440658
 H   -1.465133    2.545725   -1.874483
 H   -0.972246    3.429129   -0.419091
 H   -0.972581   -3.429003   -0.419079
 H   -1.465361   -2.545592   -1.874476
 H   -2.508559   -2.546284   -0.440687
