35 
4twd_ligand_xtb.xyz
 C   -0.749818   -1.250433    1.279805
 C    1.414784   -0.000117    1.304407
 N    2.838729   -0.000216   -0.719397
 C   -0.753434    1.263923   -0.251556
 C   -0.753637   -1.263804   -0.251558
 C    1.391706   -0.000117   -0.216823
 C   -0.040049    0.000003    1.794641
 C   -1.451704    0.000117   -0.762727
 C    0.706870    1.251124   -0.744025
 C    0.706666   -1.251240   -0.744027
 C   -0.749611    1.250557    1.279806
 C   -1.460003    2.512080   -0.775085
 C   -1.460413   -2.511846   -0.775084
 H   -0.256151   -2.146755    1.659866
 H   -1.776255   -1.261442    1.644638
 H    1.927128   -0.886914    1.683200
 H    1.927276    0.886593    1.683201
 H    2.853538   -0.000251   -1.746473
 H    3.329295   -0.836249   -0.379337
 H    3.329413    0.835712   -0.379371
 H   -0.044288    0.000003    2.887221
 H   -2.487377    0.000199   -0.424039
 H   -1.465121    0.000118   -1.854572
 H    0.715611    1.263246   -1.836344
 H    1.214041    2.149153   -0.384206
 H    1.213694   -2.149354   -0.384214
 H    0.715405   -1.263360   -1.836347
 H   -0.255791    2.146798    1.659860
 H   -1.776045    1.261741    1.644645
 H   -2.490743    2.531674   -0.433683
 H   -1.462757    2.527990   -1.862232
 H   -0.967617    3.413366   -0.418384
 H   -0.968183   -3.413213   -0.418370
 H   -1.463159   -2.527763   -1.862230
 H   -2.491158   -2.531263   -0.433692
