30 
4tx6_ligand_ani.xyz
 C   -5.328795   -0.020834    0.255201
 C   -3.836674   -0.086166    0.120531
 N   -3.256567   -1.171357   -0.296464
 N   -3.154367    1.048927    0.461769
 C   -1.754170    1.222698    0.388670
 O   -1.268242    2.292035    0.702023
 C   -1.120992    0.014045   -0.070779
 C   -1.916310   -1.070930   -0.361216
 O   -1.152203   -2.098933   -0.742376
 N    0.178739   -1.717307   -0.682793
 C    0.211310   -0.465519   -0.304321
 C    1.479547    0.294385   -0.239838
 C    1.489113    1.645729   -0.580921
 C    2.659595    2.393485   -0.583499
 C    3.854668    1.784552   -0.234096
 C    3.879639    0.441916    0.123402
 C    2.699789   -0.306885    0.127139
 O    2.664744   -1.604836    0.494235
 C    3.871536   -2.234874    0.857245
 H   -5.742502    0.771763   -0.376262
 H   -5.752004   -0.978184   -0.049357
 H   -5.617020    0.185628    1.290731
 H   -3.657831    1.865394    0.792670
 H    0.550026    2.127337   -0.829360
 H    2.630706    3.443965   -0.855457
 H    4.782328    2.353081   -0.231903
 H    4.825926   -0.011127    0.399540
 H    4.591802   -2.229806    0.029213
 H    4.323027   -1.760712    1.737793
 H    3.606983   -3.264943    1.098649
