61 
4txc_ligand_ani.xyz
 C   -2.915839   -0.414327    2.999504
 O   -2.926884   -0.208825    1.594356
 C   -2.340427   -1.244044    0.882386
 C   -0.966264   -1.368227    0.771240
 C   -3.185106   -2.148426    0.231808
 O   -4.524042   -1.980772    0.428332
 C   -2.635920   -3.129587   -0.586940
 C   -1.256372   -3.227396   -0.730780
 C   -0.410633   -2.353727   -0.049900
 C    1.070177   -2.413858   -0.164742
 C    1.757452   -3.645028   -0.412867
 C    3.116903   -3.655941   -0.461091
 N    1.683190   -1.257578    0.018592
 N    3.019253   -1.287587   -0.101247
 C    3.789616   -2.424472   -0.288198
 N    5.085988   -2.137692   -0.280593
 C    5.150533   -0.802153   -0.085852
 C    3.904414   -0.222758    0.025666
 C    3.473084    1.169894    0.158851
 C    2.248903    1.582411   -0.368172
 C    4.271745    2.123717    0.806991
 C    3.826127    3.431476    0.958572
 C    2.570851    3.809487    0.481676
 C    1.779057    2.873252   -0.172903
 C    0.348430    3.145160   -0.570511
 O    0.057005    2.740481   -1.895339
 N   -0.498108    2.271472    0.279685
 C   -1.971761    2.462066    0.187820
 C   -2.607293    1.650019   -0.956127
 N   -3.961231    1.155482   -0.600690
 C   -4.483579    0.281015   -1.667209
 C   -4.915140    2.261525   -0.366055
 H   -1.896763   -0.605610    3.359114
 H   -3.293847    0.501005    3.462434
 H   -3.562872   -1.257248    3.271602
 H   -0.303558   -0.714119    1.329226
 H   -4.984638   -2.704463   -0.014924
 H   -3.288373   -3.821711   -1.119266
 H   -0.847404   -3.988120   -1.391937
 H    1.193775   -4.566715   -0.523669
 H    3.699706   -4.553845   -0.627373
 H    6.103410   -0.288487   -0.053714
 H    1.670677    0.872254   -0.947581
 H    5.241073    1.838301    1.209931
 H    4.453345    4.159169    1.466128
 H    2.199607    4.821023    0.630395
 H    0.079208    4.190858   -0.418944
 H    0.597105    3.271914   -2.500562
 H   -0.215084    2.375006    1.266966
 H   -0.269216    1.292171   -0.013904
 H   -2.402724    2.146502    1.136233
 H   -2.184946    3.529043    0.058584
 H   -2.672907    2.250998   -1.871907
 H   -1.997395    0.769450   -1.183009
 H   -3.858709    0.604767    0.262763
 H   -5.458271   -0.113536   -1.375345
 H   -4.592818    0.855657   -2.596341
 H   -3.791929   -0.543269   -1.847841
 H   -4.594164    2.874577    0.476620
 H   -4.981296    2.892139   -1.262118
 H   -5.907005    1.856067   -0.149588
