61 
4txc_ligand_xtb.xyz
 C   -3.719065   -0.969969    2.474451
 O   -2.969385   -0.441935    1.369918
 C   -2.297041   -1.426345    0.624796
 C   -0.916069   -1.476130    0.660317
 C   -3.017889   -2.327733   -0.168034
 O   -4.368508   -2.180861   -0.238063
 C   -2.320825   -3.303641   -0.869667
 C   -0.941993   -3.360410   -0.819998
 C   -0.219153   -2.435249   -0.071006
 C    1.250983   -2.433664   -0.057864
 C    2.003717   -3.629748   -0.106037
 C    3.372798   -3.560458   -0.093623
 N    1.802689   -1.239614   -0.006978
 N    3.124392   -1.178950   -0.020390
 C    3.966662   -2.295890   -0.053685
 N    5.232347   -1.919026   -0.041107
 C    5.228835   -0.590521    0.006942
 C    3.929030   -0.074697    0.019957
 C    3.459260    1.287816    0.056949
 C    2.131343    1.583813   -0.247143
 C    4.308864    2.346785    0.403485
 C    3.833254    3.641418    0.463781
 C    2.498585    3.924522    0.205273
 C    1.651530    2.886368   -0.155566
 C    0.194090    3.098697   -0.448373
 O   -0.223623    2.672819   -1.683509
 N   -0.579497    2.242017    0.607092
 C   -2.052142    2.392905    0.642236
 C   -2.714762    1.894925   -0.651992
 N   -4.039099    1.280500   -0.406801
 C   -4.569405    0.681477   -1.644235
 C   -5.013311    2.229688    0.156462
 H   -3.063473   -1.530454    3.140709
 H   -4.132499   -0.113043    3.002379
 H   -4.524499   -1.615823    2.125308
 H   -0.371490   -0.799173    1.302201
 H   -4.765282   -2.937597   -0.689244
 H   -2.869224   -4.021098   -1.462166
 H   -0.426264   -4.117400   -1.388150
 H    1.497417   -4.579849   -0.120352
 H    4.002678   -4.433911   -0.112378
 H    6.152737   -0.047102    0.012977
 H    1.485778    0.774202   -0.558648
 H    5.342111    2.144740    0.631754
 H    4.502591    4.444273    0.727550
 H    2.130917    4.936092    0.269505
 H   -0.129834    4.132545   -0.279495
 H    0.501162    2.245118   -2.162494
 H   -0.187552    2.492456    1.522774
 H   -0.324275    1.255920    0.426301
 H   -2.415730    1.796258    1.483862
 H   -2.277088    3.446518    0.820632
 H   -2.823294    2.708027   -1.373432
 H   -2.080537    1.131598   -1.108608
 H   -3.869328    0.501721    0.294069
 H   -5.496278    0.154221   -1.429075
 H   -4.767765    1.455041   -2.384347
 H   -3.858062   -0.029975   -2.057283
 H   -4.679819    2.609441    1.118278
 H   -5.159442    3.065585   -0.526375
 H   -5.971122    1.733258    0.299718
