49 
4txe_ligand_ani.xyz
 C   -2.290950   -1.016797    1.284153
 C   -3.487578   -1.273290    0.390730
 C   -3.839265   -2.430661   -0.289746
 C   -5.001063   -2.428982   -1.063476
 C   -5.794572   -1.287085   -1.145356
 C   -5.440851   -0.125603   -0.456592
 C   -4.281526   -0.127713    0.306912
 C   -3.681487    0.991946    1.132964
 C   -2.226680    0.525021    1.414393
 N   -1.253754    1.098503    0.451667
 C   -0.892128    2.521632    0.637348
 C    0.064842    2.861214   -0.506244
 O   -0.570683    2.321237   -1.670542
 C    1.455361    2.268915   -0.274526
 O    1.352294    0.876259    0.040172
 C    2.495512    0.118382    0.012990
 C    3.781604    0.644208   -0.082774
 C    4.893503   -0.200670   -0.091070
 C    6.274486    0.391360   -0.208481
 C    4.719660   -1.591049    0.003815
 C    5.901355   -2.526714    0.002848
 C    3.423818   -2.093410    0.100858
 C    2.315771   -1.259963    0.108144
 H   -1.361869   -1.441739    0.886689
 H   -2.449457   -1.465618    2.273168
 H   -3.222658   -3.325751   -0.224236
 H   -5.288266   -3.327181   -1.605350
 H   -6.698171   -1.299869   -1.750441
 H   -6.067494    0.762620   -0.520767
 H   -3.725164    1.960926    0.623804
 H   -4.221311    1.104241    2.080707
 H   -1.917029    0.816201    2.423312
 H   -0.359322    0.575104    0.493101
 H   -1.596249    1.028130   -0.529286
 H   -0.428810    2.688575    1.613537
 H   -1.783129    3.151628    0.573760
 H    0.175583    3.949850   -0.601216
 H    0.030878    2.403875   -2.421328
 H    2.070427    2.397213   -1.172373
 H    1.926799    2.788064    0.567228
 H    3.938019    1.718757   -0.137661
 H    6.227379    1.481474   -0.278729
 H    6.797882    0.022701   -1.098846
 H    6.898840    0.138870    0.656844
 H    6.579528   -2.323944    0.840240
 H    6.490959   -2.434880   -0.916969
 H    5.576041   -3.567352    0.084921
 H    3.281858   -3.171090    0.173456
 H    1.309249   -1.664726    0.186383
