17 
4txs_ligand_xtb.xyz
 C    0.102613   -0.914528    0.555579
 C   -1.536781    1.151511   -0.284701
 C   -0.198063    1.383155   -0.039587
 C   -1.235212   -1.156645    0.308844
 C    2.099077    0.606234    0.657151
 C    2.905014   -0.164571   -0.257854
 O   -3.387237   -0.312251   -0.361842
 N    3.525371   -0.787447   -0.988232
 C   -2.065459   -0.123725   -0.111697
 C    0.633458    0.357235    0.388091
 H    0.740700   -1.724930    0.877423
 H   -2.189396    1.944247   -0.613306
 H    0.200593    2.377365   -0.181168
 H   -1.638548   -2.151805    0.441622
 H    2.341343    1.664465    0.531170
 H    2.359373    0.305560    1.677414
 H   -3.621657   -1.236758   -0.215756
