30 
4tyb_ligand_ani.xyz
 C    3.010936   -0.459397    1.406006
 C    1.823448    0.175034    1.057058
 N   -0.054166    3.398466    0.300297
 C    3.826918   -1.002711    0.415156
 C   -2.284655   -1.951236    0.303472
 C    1.443680    0.272367   -0.277985
 C   -1.113840   -1.283757   -0.405386
 N   -1.051571    0.183415   -0.025128
 C    3.453112   -0.904392   -0.922500
 C   -3.501924    0.025733    0.392281
 C    0.060964    2.330795   -0.130452
 C    0.125884    0.935811   -0.636010
 O   -3.519039   -1.331931   -0.002066
 C    2.262765   -0.266147   -1.265476
 C   -2.407271    0.822521   -0.304248
 H    3.299238   -0.534909    2.451743
 H    1.175560    0.607113    1.819294
 H    4.753509   -1.501565    0.687331
 H   -2.105623   -1.918494    1.390631
 H   -2.367132   -2.995390   -0.004747
 H   -1.246324   -1.364922   -1.489764
 H   -0.173945   -1.765918   -0.128591
 H   -0.888653    0.232956    1.009104
 H    4.085349   -1.325940   -1.700105
 H   -3.355260    0.100402    1.482461
 H   -4.480064    0.442390    0.145703
 H    0.002402    0.949164   -1.719250
 H    1.960909   -0.188780   -2.308708
 H   -2.396186    1.853938    0.049783
 H   -2.571412    0.824521   -1.386034
