20 
4tyt_ligand_dft.xyz
 C    1.374431   -0.521482   -0.234124
 C    1.813042    2.218519   -0.037532
Cl   -0.740142    2.865629   -0.617980
 C    0.547489    1.729302   -0.337646
 C    0.298273    0.356532   -0.430894
 C   -1.049012   -0.173417   -0.747364
 C   -2.019326   -0.338813    0.161299
 C   -3.378234   -0.860541   -0.241050
 O   -3.399634   -1.700905   -1.288740
 O   -4.392327   -0.549959    0.325659
 S   -1.814200    0.079621    1.860443
Cl    1.093855   -2.230298   -0.375656
 C    2.649470   -0.038005    0.065219
Cl    3.989116   -1.111022    0.315553
 C    2.859511    1.333319    0.166340
 H    1.976187    3.287528    0.033053
 H   -1.236698   -0.412209   -1.792583
 H   -2.502097   -1.996915   -1.494962
 H   -3.127745    0.006625    2.132311
 H    3.851283    1.702219    0.401663
