30 
4tz2_ligand_ani.xyz
 C   21.914792  -43.579228   10.262516
 C   20.638688  -43.746105    9.723501
 N   19.534924  -43.128046   10.312061
 C   20.478436  -44.589428    8.616738
 C   21.576957  -45.239056    8.066049
 C   22.846502  -45.071603    8.603428
 C   23.009031  -44.242049    9.712475
 C   24.321852  -44.022148   10.331679
 N   25.451871  -44.755394   10.080995
 N   24.598234  -43.079931   11.195239
 N   25.918486  -43.188080   11.531428
 C   26.424497  -44.194121   10.867404
 C   27.822606  -44.638533   10.936377
 C   28.627854  -44.154900   11.970068
 C   29.951729  -44.561419   12.068480
 C   30.483106  -45.445009   11.132094
 C   29.685714  -45.917955   10.092239
 C   28.359514  -45.515106    9.992954
 H   22.082814  -42.929685   11.118967
 H   19.751713  -42.297121   10.844838
 H   18.752013  -42.978027    9.692207
 H   19.486769  -44.731454    8.193966
 H   21.438056  -45.885648    7.203612
 H   23.700135  -45.569733    8.151437
 H   25.483762  -45.671441    9.661528
 H   28.191050  -43.458448   12.681295
 H   30.573174  -44.186363   12.877358
 H   31.519689  -45.761585   11.210800
 H   30.097392  -46.603516    9.355980
 H   27.748640  -45.873869    9.167289
