98 
4u01_ligand_ani.xyz
 C    4.128486    3.394098   -0.821380
 C    4.056296    2.089389   -0.287394
 C    3.072204    4.278500   -0.738381
 C    2.856150    1.693719    0.360360
 C    1.884742    3.866349   -0.093636
 C    1.777744    2.602720    0.443314
 C    5.048206    0.062049    0.067641
 C    2.192267    6.412980   -1.248436
 O    1.673157   -0.033441    1.503629
 C    6.242680   -0.788332   -0.075165
 C    7.584013   -2.528903    0.097885
 C    8.418177   -1.686627   -0.578605
 C    8.314956   -4.815588   -0.644586
 C    1.090390   -1.295739    1.150727
 C   -0.182019   -1.406630    1.986768
 C   -3.021584   -0.699444    3.415949
 C   -3.058769    1.792885    3.557969
 C   -4.585746    1.897647    3.536041
 C   -5.261232    1.821939    2.162278
 C   -4.887847    2.948303    1.186333
 C   -5.806079    2.962084   -0.009438
 C   -5.507555    2.597243   -1.256584
 O   -3.400770   -3.866038   -1.112339
 S   -4.345163   -2.858262   -0.657993
 O   -4.402560   -2.476100    0.748311
 C   -5.999574   -3.333466   -1.161204
 C   -6.703359   -4.193926   -0.145105
 C   -7.122493   -2.773093   -0.340221
 C   -6.164301   -3.583045   -2.637628
 N   -4.029328   -1.504103   -1.598927
 C   -4.516852   -0.247338   -1.273494
 O   -5.612048   -0.065131   -0.788414
 C   -3.572615    0.888082   -1.656140
 C   -3.819928    1.551841   -2.985998
 C   -4.132713    2.292818   -1.718824
 N   -2.524879    0.580441    2.929150
 C   -1.674026    0.700997    1.870598
 O   -1.310014    1.796391    1.448000
 C   -1.245342   -0.608987    1.180531
 N   -2.251561    0.875929   -1.104215
 C   -1.394976   -0.177636   -1.250376
 O   -1.335447   -0.865692   -2.260789
 N   -0.609417   -0.390307   -0.128528
 C    0.553621   -1.260949   -0.277730
 C    2.812627    0.350429    0.861358
 O    3.267106    5.497173   -1.296218
 F    5.255886    3.784037   -1.433141
 C    3.903699   -0.468884    0.710203
 N    5.135601    1.277856   -0.423580
 S    7.643976   -0.180586   -0.879218
 N    6.340483   -2.004202    0.378050
 C    7.934598   -3.921851    0.544591
 C    9.062855   -3.911871    1.588091
 H    1.043081    4.544875   -0.019136
 H    0.854566    2.301395    0.929670
 H    1.920879    6.655279   -0.212896
 H    1.310099    6.019641   -1.769853
 H    2.543979    7.312439   -1.753709
 H    9.432318   -1.885110   -0.897988
 H    9.216964   -4.440504   -1.142813
 H    7.510187   -4.851086   -1.385872
 H    8.518392   -5.836415   -0.303550
 H    1.798589   -2.106088    1.337893
 H   -0.496405   -2.452933    2.071976
 H   -0.006593   -1.006876    2.987261
 H   -3.442537   -0.555483    4.413956
 H   -2.210043   -1.427714    3.515227
 H   -3.793571   -1.124543    2.759179
 H   -2.721320    1.825788    4.604819
 H   -2.597788    2.635439    3.040076
 H   -4.854003    2.848532    4.018197
 H   -5.007733    1.114013    4.178236
 H   -5.054402    0.851478    1.688874
 H   -6.346267    1.855325    2.327048
 H   -4.977465    3.915523    1.698919
 H   -3.836197    2.843175    0.881313
 H   -6.834879    3.256906    0.200803
 H   -6.317333    2.423225   -1.962456
 H   -6.157410   -4.430199    0.761585
 H   -7.345271   -4.984184   -0.525292
 H   -8.058611   -2.562641   -0.850629
 H   -6.836108   -2.074587    0.435594
 H   -6.068805   -2.648517   -3.198546
 H   -5.408944   -4.289940   -2.989767
 H   -7.157762   -4.000768   -2.832164
 H   -3.164987   -1.577605   -2.137126
 H   -4.650054    1.168260   -3.571597
 H   -2.942345    1.846650   -3.553622
 H   -3.393486    3.049838   -1.445267
 H   -2.151509   -1.222526    1.039166
 H   -2.071037    1.471090   -0.297310
 H    1.266509   -0.846274   -0.994550
 H    0.262785   -2.264435   -0.619695
 H    3.938247   -1.488258    1.086044
 H    7.027442   -4.319800    1.011080
 H    9.985744   -3.502381    1.159552
 H    9.272562   -4.930545    1.931660
 H    8.794635   -3.301403    2.456377
