98 
4u01_ligand_dft.xyz
 C    4.442982    3.446578   -0.465277
 C    4.249667    2.111875   -0.053411
 C    3.467974    4.412336   -0.290840
 C    3.019958    1.781418    0.577271
 C    2.241868    4.048509    0.311723
 C    2.020275    2.760288    0.738313
 C    5.006095   -0.037335    0.068416
 C    2.807450    6.670042   -0.578468
 O    1.710163    0.165353    1.659298
 C    6.073005   -1.009829   -0.222429
 C    7.147931   -2.939765   -0.331775
 C    8.081564   -2.141491   -0.928467
 C    8.488564   -5.051542   -0.691270
 C    1.147709   -1.140674    1.613076
 C   -0.160817   -1.046133    2.390170
 C   -3.202154   -0.186211    3.350366
 C   -3.284965    2.258224    2.944753
 C   -4.770539    2.270612    2.568956
 C   -5.076379    2.025885    1.090023
 C   -4.579972    3.137083    0.143221
 C   -5.325538    3.103121   -1.164331
 C   -4.909652    2.537824   -2.297862
 O   -3.961930   -3.138734    0.985993
 S   -4.924163   -2.316883    0.262622
 O   -5.766169   -1.375785    0.982554
 C   -5.941930   -3.359573   -0.755185
 C   -7.272092   -3.736059   -0.145233
 C   -7.215708   -2.750231   -1.273254
 C   -5.146594   -4.346178   -1.579386
 N   -3.950307   -1.451362   -0.791719
 C   -4.349131   -0.380779   -1.601110
 O   -5.499326   -0.201556   -1.933238
 C   -3.212575    0.517921   -2.010707
 C   -3.184345    0.921239   -3.475610
 C   -3.555392    1.942328   -2.456409
 N   -2.639883    0.975028    2.670133
 C   -1.702728    0.901682    1.696791
 O   -1.305377    1.898202    1.087482
 C   -1.188770   -0.506249    1.356404
 N   -2.010118    0.460395   -1.247028
 C   -1.215913   -0.632398   -1.095552
 O   -1.197491   -1.586441   -1.868437
 N   -0.464157   -0.571065    0.077054
 C    0.670610   -1.472953    0.205722
 C    2.852106    0.426482    0.990542
 O    3.771898    5.653462   -0.735882
 F    5.591687    3.785044   -1.050434
 C    3.830436   -0.493742    0.715983
 N    5.232972    1.202871   -0.295645
 S    7.538964   -0.508890   -1.007325
 N    6.008474   -2.277423    0.064953
 C    7.248767   -4.419737   -0.059357
 C    7.199289   -4.684476    1.451955
 H    1.457648    4.786781    0.431309
 H    1.062777    2.481237    1.164285
 H    2.570016    6.840595    0.479305
 H    1.884267    6.441837   -1.126219
 H    3.257269    7.571644   -0.995265
 H    9.045845   -2.427199   -1.324082
 H    9.405334   -4.635432   -0.256243
 H    8.517976   -4.887643   -1.773744
 H    8.498164   -6.131210   -0.511572
 H    1.837725   -1.879873    2.031178
 H   -0.458028   -2.040930    2.732957
 H   -0.048026   -0.395923    3.260358
 H   -3.593119    0.142436    4.316913
 H   -2.443422   -0.943277    3.548749
 H   -4.019944   -0.639545    2.779065
 H   -3.174610    2.471892    4.015390
 H   -2.732252    3.017891    2.392081
 H   -5.174110    3.246269    2.870522
 H   -5.305150    1.523057    3.167793
 H   -4.659664    1.061202    0.777257
 H   -6.161249    1.917649    0.980283
 H   -4.741381    4.112782    0.622232
 H   -3.498335    3.037444   -0.004315
 H   -6.330659    3.522357   -1.140382
 H   -5.573184    2.503557   -3.157556
 H   -7.509559   -3.348711    0.840008
 H   -7.608995   -4.750274   -0.336797
 H   -7.512708   -3.066803   -2.268392
 H   -7.402374   -1.706464   -1.049643
 H   -4.486921   -3.828952   -2.283799
 H   -4.542779   -4.996895   -0.941475
 H   -5.833792   -4.968786   -2.159729
 H   -3.030454   -1.862827   -0.943399
 H   -3.981019    0.507696   -4.087616
 H   -2.205450    0.970907   -3.938769
 H   -2.741968    2.617518   -2.194816
 H   -2.053620   -1.181604    1.323187
 H   -1.823249    1.222257   -0.598973
 H    1.415025   -1.266480   -0.565903
 H    0.384817   -2.532472    0.136252
 H    3.758480   -1.541081    0.980458
 H    6.358803   -4.881551   -0.507878
 H    8.081134   -4.258288    1.944128
 H    7.180680   -5.761074    1.654077
 H    6.308727   -4.230382    1.895042
