113 
4u0g_ligand_ani.xyz
 O   -3.919446    1.087695   -3.233380
 C   -3.642840    1.134442   -2.038335
 C   -4.661239    1.062784   -0.956228
 C   -5.948568    0.852892   -1.246719
 C   -7.043273    0.734036   -0.224713
 C   -7.663698   -0.673134   -0.088836
 C   -6.664991   -1.688387    0.479587
 C   -8.935022   -0.586874    0.770272
 C   -9.724144   -1.892241    0.867145
 C   -0.156317    0.365584   -1.741997
 N   -2.364717    1.247949   -1.590993
 O    0.089161    0.625575   -0.567729
 F    2.949130    4.388464   -0.337381
 F   -1.440969    5.657849    0.714110
 C   -1.235158    1.149089   -2.483273
 C   -0.727321    2.528476   -2.960252
 C   -0.201523    3.425937   -1.858807
 C    0.772677    5.061368    0.222908
 C    1.172608    3.526841   -1.623323
 C   -1.085425    4.143486   -1.049642
 C    1.625566    4.323905   -0.582920
 C   -0.582289    4.954054   -0.045626
 N    0.477647   -0.619053   -2.417341
 C    1.279175   -1.644351   -1.773366
 C    2.411921   -1.997298   -2.736183
 O    2.189600   -2.110925   -3.934406
 C    0.392084   -2.878455   -1.431197
 O   -0.367508   -2.568979   -0.230767
 C    1.086554   -4.232842   -1.388401
 N    3.644672   -2.219156   -2.206706
 C    4.023143   -2.011864   -0.812456
 C    4.110149   -0.498211   -0.532836
 O    4.806558    0.214114   -1.232407
 C    5.405290   -2.683219   -0.740235
 C    5.972333   -2.497438   -2.154132
 C    4.749228   -2.655081   -3.060328
 N    3.321482    0.017820    0.503148
 O    1.972813   -0.800589    3.781040
 C    3.343223   -0.643315    1.822438
 C    2.030595   -0.481841    2.598743
 C    4.527373   -0.163947    2.677913
 C    4.548865    1.362242    2.806915
 C    5.750338    1.834864    3.623447
 C    4.531461    1.996772    1.414442
 C    3.349845    1.489319    0.593888
 N    0.969475   -0.014209    1.904742
 C   -0.234876    0.432056    2.568140
 C   -1.505974   -0.077023    1.849820
 O   -2.304987    0.725556    1.370497
 C   -0.271748    1.952911    2.674398
 N   -1.735638   -1.411096    1.824356
 C   -0.788591   -2.483246    2.105907
 C    0.210113   -2.717394    0.974355
 O    1.353290   -3.065975    1.163022
 C   -1.687365   -3.746178    2.259916
 C   -3.132753   -3.223977    2.214820
 C   -3.021556   -1.954306    1.378789
 H   -4.302547    1.159376    0.067102
 H   -6.212770    0.736987   -2.300571
 H   -6.664454    1.047313    0.761419
 H   -7.848981    1.433198   -0.487940
 H   -7.965037   -1.005966   -1.096003
 H   -7.098772   -2.691695    0.540356
 H   -6.351950   -1.392022    1.490835
 H   -5.760943   -1.758498   -0.137172
 H   -8.659505   -0.241356    1.777842
 H   -9.585931    0.192320    0.349982
 H  -10.674958   -1.739699    1.388397
 H   -9.948973   -2.287445   -0.130836
 H   -9.170213   -2.663316    1.413110
 H   -2.183101    1.232450   -0.590461
 H   -1.577359    0.605187   -3.369262
 H    0.056162    2.361683   -3.709407
 H   -1.573567    3.000544   -3.472441
 H    1.140826    5.688094    1.027568
 H    1.887177    2.977548   -2.231968
 H   -2.161720    4.079413   -1.184247
 H    0.354201   -0.742339   -3.413329
 H    1.645765   -1.239114   -0.831671
 H   -0.386034   -2.917199   -2.200048
 H    0.365895   -4.994133   -1.073247
 H    1.926239   -4.244668   -0.694411
 H    1.435189   -4.492232   -2.392977
 H    3.283006   -2.487426   -0.159247
 H    5.275436   -3.747514   -0.513901
 H    6.040912   -2.247076    0.038781
 H    6.360904   -1.481573   -2.252806
 H    6.768926   -3.208921   -2.386565
 H    4.783641   -2.034278   -3.960482
 H    4.587900   -3.693584   -3.379847
 H    3.443127   -1.715590    1.650740
 H    5.461643   -0.509797    2.213095
 H    4.450141   -0.631882    3.663894
 H    3.628539    1.665327    3.333181
 H    5.753340    1.380776    4.620461
 H    6.689028    1.560564    3.125975
 H    5.743601    2.923645    3.747219
 H    5.462144    1.756654    0.884943
 H    4.471046    3.089648    1.490579
 H    3.376419    1.877994   -0.425039
 H    2.414519    1.831643    1.052755
 H    1.060287    0.214858    0.922086
 H   -0.201801   -0.019785    3.568755
 H    0.593205    2.315097    3.240915
 H   -0.248991    2.402196    1.677264
 H   -1.183093    2.281753    3.179875
 H   -0.208012   -2.285786    3.010515
 H   -1.511402   -4.427632    1.420031
 H   -1.458925   -4.289417    3.180239
 H   -3.831004   -3.951792    1.791487
 H   -3.476126   -2.966263    3.221340
 H   -2.982458   -2.169085    0.302207
 H   -3.817528   -1.224185    1.558763
