113 
4u0g_ligand_xtb.xyz
 O   -3.789986   -0.314440   -3.017482
 C   -3.560549    0.385853   -2.044624
 C   -4.568526    0.751568   -1.031063
 C   -5.831680    0.351851   -1.141094
 C   -6.922844    0.673641   -0.181027
 C   -7.694893   -0.580159    0.260341
 C   -6.750289   -1.542079    0.976934
 C   -8.879217   -0.177551    1.145852
 C   -9.843390   -1.324621    1.426629
 C   -0.169010   -0.083023   -1.805460
 N   -2.338300    0.934620   -1.813288
 O    0.250817    0.399424   -0.766458
 F    2.716125    4.313429   -0.703938
 F   -1.801354    5.508465   -0.307954
 C   -1.210620    0.630472   -2.658219
 C   -0.609756    1.894358   -3.314915
 C   -0.222877    2.940047   -2.312498
 C    0.469605    4.937454   -0.467978
 C    1.104667    3.119466   -1.943862
 C   -1.203888    3.752834   -1.753791
 C    1.423552    4.116188   -1.040598
 C   -0.845168    4.724938   -0.840727
 N    0.187484   -1.302695   -2.236111
 C    1.075469   -2.154536   -1.481586
 C    2.206905   -2.630106   -2.401954
 O    1.957837   -3.024403   -3.527360
 C    0.272877   -3.340828   -0.900358
 O   -0.452450   -2.879742    0.254216
 C    1.094558   -4.591928   -0.616884
 N    3.435426   -2.615925   -1.875220
 C    3.819942   -2.027835   -0.603123
 C    3.621532   -0.497636   -0.664711
 O    3.543610    0.052500   -1.749839
 C    5.320593   -2.336765   -0.510665
 C    5.759864   -2.308769   -1.973081
 C    4.590744   -2.979694   -2.682782
 N    3.596007    0.187353    0.496279
 O    2.194478   -0.001561    3.802960
 C    3.546995   -0.345795    1.840626
 C    2.254117    0.046388    2.590376
 C    4.764832    0.111130    2.656232
 C    4.916990    1.632111    2.630666
 C    6.165156    2.065251    3.392245
 C    4.963398    2.097123    1.176281
 C    3.710348    1.638229    0.439299
 N    1.210495    0.388047    1.816902
 C    0.009601    0.982407    2.367607
 C   -1.247441    0.477994    1.657317
 O   -2.004874    1.239365    1.077449
 C    0.079527    2.504922    2.253634
 N   -1.533997   -0.833593    1.759079
 C   -0.754190   -1.887135    2.371816
 C    0.201506   -2.489669    1.338891
 O    1.391672   -2.587845    1.508532
 C   -1.791982   -2.940961    2.826165
 C   -3.153708   -2.343796    2.452171
 C   -2.816708   -1.363491    1.333838
 H   -4.227661    1.360853   -0.206722
 H   -6.104730   -0.251863   -1.998074
 H   -6.514097    1.184006    0.693724
 H   -7.621258    1.357130   -0.674286
 H   -8.084634   -1.075893   -0.635559
 H   -7.258810   -2.466698    1.236057
 H   -6.369276   -1.088418    1.889878
 H   -5.905754   -1.783916    0.335520
 H   -8.501781    0.219796    2.090976
 H   -9.430665    0.624415    0.648812
 H  -10.701166   -0.963535    1.989428
 H  -10.203213   -1.755936    0.494963
 H   -9.365536   -2.108838    2.007565
 H   -2.139675    1.332503   -0.900870
 H   -1.584481   -0.032512   -3.447392
 H    0.261001    1.591488   -3.898091
 H   -1.363730    2.301268   -3.991114
 H    0.739104    5.708410    0.234406
 H    1.884129    2.494069   -2.350147
 H   -2.240384    3.637332   -2.026972
 H   -0.079456   -1.642222   -3.149268
 H    1.460899   -1.546229   -0.663432
 H   -0.525028   -3.593472   -1.608032
 H    0.450867   -5.355058   -0.184173
 H    1.906476   -4.389410    0.074367
 H    1.500825   -4.967326   -1.551582
 H    3.254767   -2.481240    0.211485
 H    5.469392   -3.330976   -0.086171
 H    5.851064   -1.610596    0.102304
 H    5.852036   -1.276766   -2.310617
 H    6.701601   -2.825912   -2.141235
 H    4.443037   -2.636780   -3.707606
 H    4.695177   -4.070548   -2.691113
 H    3.539268   -1.436907    1.821934
 H    5.667155   -0.352602    2.250524
 H    4.627445   -0.233412    3.681378
 H    4.039577    2.073490    3.114983
 H    6.114515    1.732545    4.425953
 H    7.057670    1.640604    2.936687
 H    6.258565    3.148450    3.382584
 H    5.849032    1.683446    0.687739
 H    5.022321    3.184391    1.121402
 H    3.754981    1.921277   -0.611959
 H    2.830943    2.100089    0.893389
 H    1.278279    0.427972    0.807143
 H   -0.034697    0.695649    3.426676
 H    0.938451    2.877733    2.806311
 H    0.165978    2.784880    1.206556
 H   -0.825594    2.951730    2.654482
 H   -0.146140   -1.513481    3.199396
 H   -1.629017   -3.879065    2.296785
 H   -1.709361   -3.134090    3.893587
 H   -3.865820   -3.101481    2.135887
 H   -3.572944   -1.802365    3.300433
 H   -2.717050   -1.874003    0.371276
 H   -3.530430   -0.547167    1.231695
