46 
4u2y_ligand_ani.xyz
 O   -3.909026   -0.054711   -2.033098
 C   -3.190098   -1.155058   -1.476782
 C   -1.888711   -0.564349   -0.947909
 C   -2.346930    0.373813    1.237951
 C   -1.513474    1.340945    2.063838
 O   -1.885603    2.649409    1.685445
 C   -1.921953   -1.096953    1.415115
 O   -3.104129   -1.860642    1.630907
 C   -1.220632   -1.473122    0.101939
 O    0.169191   -1.201703    0.303340
 C    0.985847   -1.197118   -0.838681
 C    2.418503   -1.601321   -0.485966
 O    2.415779   -2.857814    0.141299
 C    3.072276   -0.551188    0.397718
 O    4.419274   -0.967502    0.584352
 C    2.985109    0.821661   -0.271088
 O    3.488085    1.833380    0.579286
 C    1.510316    1.086297   -0.536722
 C    1.161171    2.431061   -1.133964
 O   -0.248463    2.610150   -0.937377
 O    1.012332    0.080020   -1.430552
 N   -2.205246    0.708766   -0.225981
 H   -4.823041   -0.326718   -2.175898
 H   -2.977176   -1.922309   -2.235425
 H   -3.751214   -1.617766   -0.653265
 H   -1.222753   -0.337666   -1.778213
 H   -3.397224    0.466812    1.519243
 H   -1.696556    1.171204    3.136426
 H   -0.444487    1.147688    1.873027
 H   -1.124823    3.228767    1.796134
 H   -1.226195   -1.208892    2.256982
 H   -2.840622   -2.761226    1.860090
 H   -1.360296   -2.537840   -0.133412
 H    0.586073   -1.893676   -1.588167
 H    2.982670   -1.637024   -1.433030
 H    3.317471   -2.966776    0.476462
 H    2.546211   -0.518104    1.363054
 H    4.721207   -0.628135    1.434665
 H    3.533460    0.797280   -1.226937
 H    4.444756    1.709796    0.618469
 H    0.994465    1.020701    0.427861
 H    1.724776    3.226749   -0.630699
 H    1.411465    2.423561   -2.202196
 H   -0.541399    3.371298   -1.455232
 H   -3.097108    1.045907   -0.635151
 H   -1.490983    1.452286   -0.374419
