25 
4u43_ligand_ani.xyz
 C    2.807900   -1.365700   -0.147164
 C    4.640523   -0.025472   -0.002685
 C   -3.657757   -1.755109    0.090155
 C   -0.562254    0.221200   -0.015285
 C   -1.808541   -0.467842    0.016144
 C   -2.243956   -1.790400    0.081286
 C   -4.060003   -0.440134    0.029203
 C    1.921249   -0.292055    0.016507
 C    3.850422    1.103516    0.172710
 C    2.466180    0.979911    0.184507
 N    4.129847   -1.248649   -0.161562
 N    0.543413   -0.578079    0.015804
 N   -2.938713    0.332157   -0.016747
 N   -2.917295    1.668930   -0.089955
 C   -1.710242    2.171947   -0.116087
 N   -0.503202    1.530718   -0.073834
 H    2.421428   -2.377078   -0.279402
 H    5.725843    0.050272   -0.016318
 H   -4.321412   -2.605481    0.136803
 H   -1.630974   -2.680717    0.120143
 H   -5.029146    0.034052    0.015054
 H    4.312779    2.078722    0.298584
 H    1.818060    1.837128    0.317460
 H    0.328037   -1.565600    0.010446
 H   -1.684089    3.253983   -0.174457
