32 
4u45_ligand_ani.xyz
 C  -21.311072    8.789091  -16.348782
 C  -22.254009    7.816415  -16.041713
 C  -22.543957    6.851057  -17.008139
 C  -26.296757    2.466557  -16.609652
 C  -24.404956    5.554444  -15.872697
 C  -25.180124    4.376794  -16.084013
 C  -25.265664    3.347355  -17.021140
 C  -26.814936    2.977202  -15.434061
 N  -20.648352    8.879507  -17.503847
 C  -21.854785    6.926016  -18.224535
 C  -20.935601    7.946724  -18.413919
 N  -23.465798    5.810062  -16.831879
 N  -26.146344    4.119665  -15.121592
 N  -26.378084    4.887068  -14.054097
 C  -25.592362    5.931905  -13.980109
 N  -24.595843    6.325774  -14.828544
 C  -26.740346    1.253202  -17.289925
 C  -27.566212    0.259940  -16.797248
 N  -27.697750   -0.658490  -17.776726
 N  -27.021118   -0.350142  -18.890745
 C  -26.438449    0.802726  -18.605652
 H  -21.074224    9.551790  -15.608181
 H  -22.755384    7.802883  -15.082883
 H  -24.657003    3.214222  -17.904961
 H  -27.611934    2.643967  -14.785417
 H  -22.034306    6.203554  -19.017257
 H  -20.396042    8.016774  -19.357504
 H  -23.471845    5.136389  -17.584791
 H  -25.771822    6.559468  -13.114913
 H  -28.051220    0.131131  -15.839721
 H  -28.231908   -1.511572  -17.749366
 H  -25.822790    1.284522  -19.354990
