25 
4u4s_ligand_ani.xyz
 C   -0.978664    2.044967   -0.158741
 N   -0.149768    3.082967   -0.069302
 O   -2.352586   -0.732968    1.283332
 C    1.131484    2.788550    0.166793
 N   -0.920855   -1.863725   -0.433991
 O   -2.723505   -0.252359   -1.172444
 C    1.638232    1.502041    0.300948
 N    1.212973   -0.911274    0.244486
 C   -0.583475    0.721687   -0.012813
 C    0.250789   -1.979500    0.441310
 C    0.776872    0.399880    0.191103
 C    2.627882   -1.209232    0.410541
 C    3.443750   -1.019571   -0.867177
 S   -1.838146   -0.528877   -0.057343
 H   -2.024049    2.272037   -0.361697
 H    1.807605    3.638017    0.249178
 H   -0.659100   -1.843896   -1.415301
 H    2.697944    1.369240    0.478193
 H    0.725519   -2.929877    0.185087
 H   -0.077394   -2.029748    1.487261
 H    2.712666   -2.250146    0.739076
 H    3.039559   -0.600617    1.226644
 H    3.078925   -1.684190   -1.656756
 H    3.381708    0.007612   -1.239642
 H    4.498009   -1.252488   -0.681806
