90 
4u5s_ligand_ani.xyz
 C    8.262650    0.055014    1.120418
 C    9.273181    1.013003    1.175233
 C    9.527686    1.822476    0.073248
 C    8.766876    1.668088   -1.083696
 C    7.760536    0.708545   -1.135109
 C    7.495306   -0.111182   -0.034658
 C    6.370472   -1.121991   -0.087277
 C    4.968517   -0.485831   -0.139598
 C    4.640022    0.323774    1.132083
 O    3.960538   -0.144304    2.029994
 N    5.142226    1.588293    1.172905
 N    3.972310   -1.526988   -0.312140
 C    2.695877   -1.140538   -0.621377
 O    2.446441   -0.042113   -1.098564
 C    1.603474   -2.179517   -0.365725
 C    1.249699   -2.979249   -1.631198
 C    0.824631   -2.134596   -2.826719
 O    0.197040   -3.834135   -1.197100
 N    0.387645   -1.507507    0.141020
 C    0.447454   -0.965259    1.519639
 C   -0.489167    0.243770    1.683898
 N   -1.919415   -0.092601    1.747149
 C   -2.550143   -1.256855    1.435699
 O   -1.982456   -2.258069    1.008736
 C   -4.073371   -1.338737    1.718702
 N   -4.656513   -2.396456    0.898530
 C   -4.752432   -2.298798   -0.459809
 O   -4.687923   -1.225042   -1.050533
 C   -4.978952   -3.612665   -1.179825
 C   -4.840670   -0.010852    1.622598
 C   -6.355201   -0.162910    1.830091
 C   -7.182332    1.007185    1.272066
 C   -7.636996    0.846582   -0.185154
 N   -6.522517    0.881541   -1.168824
 C   -0.215087    1.300977    0.609498
 O   -0.702709    0.855623   -0.663930
 C   -0.918698    1.925167   -1.575155
 C   -2.100279    2.782193   -1.202559
 C   -1.986739    4.155479   -0.991899
 C   -3.104185    4.880140   -0.599643
 C   -4.304180    4.199266   -0.436781
 N   -4.434643    2.888490   -0.644957
 C   -3.345452    2.195348   -1.010051
 H    8.057926   -0.570216    1.988302
 H    9.862332    1.124230    2.082832
 H   10.315537    2.570762    0.112708
 H    8.957949    2.295268   -1.950626
 H    7.173180    0.592343   -2.046413
 H    6.422739   -1.790852    0.781082
 H    6.467834   -1.745379   -0.983701
 H    4.903906    0.176359   -1.009746
 H    5.036783    2.087607    2.043946
 H    5.896580    1.862975    0.561436
 H    4.039940   -2.275880    0.366631
 H    1.942164   -2.909859    0.377048
 H    2.131768   -3.577219   -1.903612
 H   -0.082973   -1.556983   -2.608266
 H    1.613962   -1.433501   -3.106640
 H    0.613976   -2.778902   -3.688283
 H   -0.234018   -4.207937   -1.975267
 H   -0.411236   -2.170875    0.095924
 H    0.184194   -0.709876   -0.495992
 H    0.172694   -1.737035    2.240673
 H    1.471081   -0.645235    1.738398
 H   -0.237185    0.701219    2.647610
 H   -2.512859    0.691273    1.972765
 H   -4.151324   -1.706463    2.750348
 H   -4.471494   -3.326112    1.246122
 H   -5.013973   -3.430154   -2.254210
 H   -4.168661   -4.317981   -0.961749
 H   -5.920823   -4.069266   -0.858864
 H   -4.624978    0.463839    0.666419
 H   -4.469226    0.676398    2.397422
 H   -6.541107   -0.256531    2.908492
 H   -6.714761   -1.097253    1.384893
 H   -6.636850    1.955966    1.380754
 H   -8.095864    1.113766    1.869619
 H   -8.341008    1.640850   -0.436581
 H   -8.160831   -0.105964   -0.295547
 H   -6.890884    0.936827   -2.133728
 H   -5.910286    1.718947   -0.997427
 H   -5.951402    0.016777   -1.097420
 H    0.867346    1.484920    0.527015
 H   -0.705906    2.244238    0.879504
 H   -1.066787    1.443148   -2.551391
 H   -0.012681    2.546953   -1.650144
 H   -1.023149    4.643675   -1.124629
 H   -3.048794    5.949668   -0.421297
 H   -5.202646    4.733027   -0.131976
 H   -3.476271    1.121192   -1.162677
