74 
4u7v_ligand_dft.xyz
 C   -0.993491   -3.160031    1.582328
 C   -0.011418   -2.654109    2.375975
 C   -2.219652   -1.691256    2.683047
 C    1.455492   -2.953015    2.307705
 C    1.929191   -1.406048    0.604985
 C    2.322159    0.523446   -0.908318
 C    0.867718    0.750100   -1.385554
 C   -0.028207    1.262500   -0.249631
 C   -1.461109    1.609243   -0.679735
 N   -2.242721   -2.619590    1.761802
 C   -3.147307   -0.292302   -0.522263
 C   -3.424232   -1.672423   -1.164227
 C   -1.729795    4.764777   -0.372966
 C   -1.134633    6.010750   -0.207591
 C   -0.387182    6.280904    0.936275
 C   -0.241898    5.299298    1.911522
 C   -0.838089    4.052423    1.740258
 C   -1.586858    3.768934    0.596912
 C   -2.216674    2.409942    0.392032
 N   -2.128231    0.357995   -1.079177
 O   -3.891316    0.073281    0.390103
 N   -4.245126   -2.374238   -0.134187
 C   -4.149962   -1.571650   -2.518764
 C   -5.492891   -0.842802   -2.407040
 C   -4.302381   -2.945532   -3.178991
 O    0.321211   -0.386536   -2.047485
 C    3.204802   -0.141375   -1.981178
 C    4.629081   -0.294070   -1.508107
 C    5.512865    0.786958   -1.541618
 C    6.806832    0.662052   -1.045581
 C    7.234190   -0.549065   -0.506941
 C    6.362793   -1.633918   -0.471728
 C    5.069573   -1.504516   -0.969575
 N    2.398133   -0.167877    0.382302
 O    1.302190   -2.095140   -0.195026
 O    2.191214   -1.807381    1.867077
 S   -0.686015   -1.432506    3.402695
 H   -0.837627   -3.917389    0.824621
 H   -3.087715   -1.108177    2.964644
 H    1.620296   -3.793566    1.629775
 H    1.880030   -3.187758    3.284217
 H    2.731292    1.517785   -0.702161
 H    0.919931    1.526968   -2.157949
 H    0.434143    2.161740    0.172274
 H   -0.084622    0.520015    0.556165
 H   -1.415824    2.225815   -1.587131
 H   -2.492375   -2.235184   -1.274441
 H   -2.322878    4.566675   -1.263503
 H   -1.260197    6.774986   -0.968512
 H    0.073824    7.254520    1.069342
 H    0.329925    5.505515    2.811272
 H   -0.726531    3.290438    2.508638
 H   -2.227298    1.849302    1.331576
 H   -3.260129    2.523461    0.086187
 H   -1.531301   -0.166674   -1.721381
 H   -4.797801   -3.146267   -0.506813
 H   -3.595894   -2.692866    0.642956
 H   -4.842203   -1.641982    0.286863
 H   -3.484737   -0.969359   -3.148934
 H   -5.923336   -0.703375   -3.402011
 H   -5.392164    0.141681   -1.941606
 H   -6.221984   -1.421002   -1.825182
 H   -4.724615   -2.832999   -4.181168
 H   -3.340745   -3.459736   -3.276271
 H   -4.989711   -3.601160   -2.627356
 H    0.586417   -1.166185   -1.517135
 H    2.783170   -1.114786   -2.243640
 H    3.155639    0.477608   -2.884219
 H    5.188357    1.733382   -1.969571
 H    7.485480    1.508699   -1.085168
 H    8.244199   -0.648587   -0.121762
 H    6.692450   -2.583420   -0.060795
 H    4.391998   -2.355519   -0.948537
 H    2.984486    0.224355    1.103697
