46 
4u93_ligand_xtb.xyz
 F    5.498333   -2.161973   -1.117053
 C    4.220494   -1.868821   -0.799960
 C    3.925494   -0.614319   -0.305781
 C    2.610898   -0.294248    0.020381
 C    2.339873    1.062567    0.541582
 N    1.395952    1.784062   -0.067383
 C    1.158593    3.011952    0.362499
 O    0.244367    3.770814   -0.254483
 C   -0.395365    3.234749   -1.400337
 C    1.837245    3.585199    1.449184
 C    2.804485    2.833881    2.075624
 C    3.074991    1.550803    1.612272
 C    3.242327   -2.829049   -0.980808
 C    1.940732   -2.509012   -0.643842
 C    1.610286   -1.257711   -0.136868
 C    0.178818   -0.951368    0.215343
 N   -0.490509   -2.106001    0.775513
 C   -1.838702   -2.252067    0.874744
 O   -2.317695   -3.215913    1.444919
 C   -0.583560   -0.521952   -1.040645
 C   -2.015231   -0.302008   -0.669536
 N   -2.658645    0.707865   -1.228062
 C   -3.945861    0.852946   -0.893131
 N   -4.600160    1.909263   -1.412908
 N   -4.628679    0.057462   -0.071181
 C   -3.987101   -0.947596    0.503740
 C   -2.623003   -1.170305    0.242922
 C   -4.783559   -1.804788    1.421773
 H    4.712625    0.114917   -0.193650
 H   -1.122541    2.465208   -1.127800
 H    0.341017    2.809657   -2.085256
 H   -0.903836    4.074619   -1.870159
 H    1.588935    4.587333    1.755762
 H    3.352028    3.236472    2.915039
 H    3.824451    0.935243    2.083403
 H    3.501526   -3.798172   -1.375724
 H    1.163259   -3.246211   -0.777886
 H    0.153476   -0.119963    0.937456
 H    0.062197   -2.770861    1.297499
 H   -0.145852    0.384352   -1.451514
 H   -0.525962   -1.315520   -1.790971
 H   -5.591814    1.970955   -1.271138
 H   -4.153114    2.448006   -2.131822
 H   -4.788576   -2.829130    1.055235
 H   -5.798151   -1.422820    1.486710
 H   -4.324890   -1.827202    2.408030
