66 
4ua8_ligand_xtb.xyz
 C   -5.574855    1.203660    1.295484
 C   -5.712657   -0.209870    0.701908
 C   -4.321358   -0.823498    0.509922
 C   -3.444902    0.128403   -0.322145
 C   -3.431354    1.514919    0.338365
 C   -2.710713    2.561764   -0.516539
 O   -5.078248    1.131423    2.599103
 O   -6.476479   -0.978091    1.597496
 O   -4.503078   -2.074854   -0.102383
 O   -2.123605   -0.387248   -0.373996
 O   -4.760522    2.001653    0.500177
 O   -2.659084    3.801118    0.127913
 C   -1.688124   -0.946546   -1.577511
 C   -1.006251   -2.295037   -1.288298
 C    0.229573   -2.042454   -0.426003
 C    1.157997   -1.065638   -1.159929
 C    0.390753    0.209506   -1.544253
 C    1.217690    1.111051   -2.467601
 O   -1.914880   -3.150713   -0.645829
 O    0.850647   -3.278122   -0.181780
 O    2.217395   -0.763658   -0.270936
 O   -0.806075   -0.096535   -2.256454
 O    0.664750    2.389262   -2.598160
 C    3.532164   -0.929425   -0.708733
 C    4.306508   -1.670261    0.395560
 C    4.379335   -0.770723    1.627083
 C    5.014451    0.572395    1.244108
 C    4.212463    1.190800    0.088804
 C    4.855400    2.470030   -0.454054
 O    3.639976   -2.876406    0.671241
 O    5.125742   -1.437546    2.616341
 O    5.015893    1.372655    2.398140
 O    4.140513    0.293992   -1.014086
 O    4.899220    3.438255    0.573181
 H   -6.556658    1.704792    1.285282
 H   -6.207605   -0.146349   -0.278219
 H   -3.842569   -0.944543    1.494980
 H   -3.865344    0.212889   -1.333241
 H   -2.945899    1.438542    1.319958
 H   -1.679874    2.254152   -0.695283
 H   -3.238787    2.644964   -1.478779
 H   -5.530669    0.390356    3.024913
 H   -6.402592   -1.896560    1.306742
 H   -3.631878   -2.478236   -0.259953
 H   -3.545952    3.985280    0.462761
 H   -2.525327   -1.100671   -2.271417
 H   -0.686736   -2.735301   -2.246033
 H   -0.085723   -1.574072    0.519227
 H    1.542698   -1.552359   -2.067040
 H    0.143307    0.748169   -0.619209
 H    1.295299    0.615260   -3.446034
 H    2.218440    1.242782   -2.053562
 H   -1.387481   -3.843196   -0.223687
 H    1.747518   -3.114787    0.160037
 H   -0.248711    2.290521   -2.892291
 H    3.570590   -1.509376   -1.640658
 H    5.328271   -1.871616    0.039535
 H    3.356625   -0.580033    1.987990
 H    6.049316    0.390356    0.903573
 H    3.201499    1.420473    0.454280
 H    5.866975    2.234843   -0.811803
 H    4.255641    2.816378   -1.302615
 H    3.977526   -3.189513    1.521573
 H    5.343617   -0.780765    3.289491
 H    5.063544    2.299244    2.120306
 H    5.126914    4.292456    0.192420
