24 
4uc5_ligand_xtb.xyz
 N   -0.932949    1.202126   -0.892384
 C   -1.324379   -0.167356   -0.469656
 C   -2.801269   -0.050944   -0.054433
 O   -3.375170   -1.198997    0.160532
 C   -0.478445   -0.583692    0.752401
 C    0.979150   -0.350057    0.452545
 C    1.547897    0.895945    0.723341
 C    1.747567   -1.329204   -0.163425
 C    2.870982    1.147524    0.389310
 C    3.067656   -1.074388   -0.492851
 C    3.627741    0.165210   -0.225596
 O   -3.285043    1.046332    0.064838
 H   -1.699986    1.812759   -0.507246
 H    0.002235    1.425980   -0.473512
 H   -0.897900    1.325104   -1.907690
 H   -1.200290   -0.888031   -1.278973
 H   -4.300038   -1.120400    0.455831
 H   -0.670319   -1.634326    0.965672
 H   -0.782784    0.003192    1.621421
 H    0.995490    1.642617    1.282665
 H    1.317326   -2.298047   -0.367639
 H    3.308367    2.106130    0.620280
 H    3.662051   -1.846259   -0.955210
 H    4.656792    0.359487   -0.481689
