28 
4ucd_ligand_xtb.xyz
Cl    3.417513    0.400784   -1.759276
 C    2.860568   -0.413010   -0.345455
 C    3.780176   -0.739211    0.638936
 C    3.363089   -1.406526    1.775988
 C    1.515648   -0.742091   -0.205110
 C    1.120097   -1.427138    0.936980
 C    2.032210   -1.758006    1.922452
 C    0.504843   -0.366251   -1.260298
 N   -0.761877   -0.013270   -0.679333
 N   -1.809444   -0.764590   -0.886732
 C   -2.825577   -0.220258   -0.220255
 C   -4.170230   -0.843963   -0.217846
 O   -4.369270   -2.010314   -0.383632
 O   -5.188318    0.011837    0.017582
 C   -2.386137    0.927890    0.462190
 C   -1.034012    1.028631    0.151524
 C   -0.027409    2.032087    0.542659
 O    1.042218    2.144793    0.011027
 O   -0.390874    2.844204    1.549341
 H    4.815728   -0.466332    0.509999
 H    4.079601   -1.655110    2.543536
 H    0.084012   -1.712875    1.049727
 H    1.702850   -2.289612    2.801861
 H    0.309815   -1.213296   -1.925039
 H    0.886843    0.477265   -1.841727
 H   -4.901764    0.932142    0.074310
 H   -2.967085    1.571900    1.095821
 H   -1.258105    2.630507    1.916514
