28 
4uce_ligand_xtb.xyz
 F    4.751956   -1.486317    1.322530
 C    3.709231   -1.052467    0.588651
 C    2.686530   -1.935927    0.290545
 C    3.689842    0.261736    0.158124
 C    2.615415    0.701371   -0.595045
 C    1.582299   -0.168714   -0.915561
 C    1.621765   -1.483337   -0.465613
 C    0.391068    0.306574   -1.714877
 N   -0.782631    0.325358   -0.875376
 N   -1.574203   -0.717343   -0.843066
 C   -2.513811   -0.467361    0.072917
 C   -3.586188   -1.443573    0.360038
 O   -4.436878   -1.263947    1.187010
 O   -3.523448   -2.553332   -0.385671
 C   -2.298881    0.788309    0.652625
 C   -1.162520    1.278703    0.019030
 C   -0.479230    2.577151    0.173573
 O   -0.930568    3.339701    1.175954
 O    0.411186    2.955783   -0.540141
 H    2.733329   -2.952674    0.646517
 H    4.502000    0.922580    0.414917
 H    2.573629    1.727034   -0.926197
 H    0.811064   -2.155064   -0.707010
 H    0.179519   -0.386220   -2.533184
 H    0.567724    1.311064   -2.100724
 H   -2.770099   -2.507954   -0.995911
 H   -2.915889    1.234069    1.406326
 H   -1.646507    2.927481    1.677928
