28 
4uce_ligand_ani.xyz
 F    4.649915   -1.653334    1.225483
 C    3.621110   -1.161092    0.511986
 C    2.678842   -2.041048    0.002971
 C    3.537731    0.207933    0.313986
 C    2.471154    0.705430   -0.427606
 C    1.510661   -0.152745   -0.961678
 C    1.619740   -1.523912   -0.734508
 C    0.332631    0.390945   -1.732478
 N   -0.870412    0.467149   -0.910751
 N   -1.707964   -0.574513   -0.911881
 C   -2.503432   -0.401012    0.140511
 C   -3.580582   -1.387893    0.430029
 O   -4.320388   -1.289935    1.374186
 O   -3.660931   -2.398141   -0.448586
 C   -2.150060    0.738091    0.872882
 C   -1.097448    1.278279    0.167285
 C   -0.375118    2.550461    0.419241
 O   -0.080112    3.281263   -0.687453
 O   -0.065458    2.932249    1.513061
 H    2.784282   -3.105576    0.187195
 H    4.297936    0.858638    0.733946
 H    2.379647    1.778893   -0.587696
 H    0.860763   -2.195776   -1.132072
 H    0.063052   -0.263857   -2.563348
 H    0.561003    1.380871   -2.136157
 H   -2.968690   -2.277569   -1.123471
 H   -2.605054    1.114014    1.778359
 H   -0.549820    2.917784   -1.453063
