28 
4uct_ligand_ani.xyz
 N    4.516519   -1.188004   -0.148829
 C    3.257240   -0.655514   -0.083871
 N    3.063876    0.659508    0.028219
 N    1.714260    0.721577    0.024727
 C    0.948751    1.841287    0.109735
 N    2.157732   -1.434315   -0.157997
 C    1.166730   -0.542376   -0.087283
 N   -0.159453   -0.712953   -0.099993
 C   -0.905675    0.363894   -0.028725
 C   -0.399730    1.712430    0.083696
 C   -1.340813    2.883866    0.160665
 O   -2.237672    0.256534   -0.061604
 C   -2.834688   -1.045745   -0.239977
 C   -4.236231   -0.778232   -0.757864
 C   -2.842989   -1.808664    1.074954
 H    5.259441   -0.626645    0.239983
 H    4.572683   -2.175131    0.050599
 H    1.487770    2.780553    0.192625
 H   -2.003273    2.801961    1.027444
 H   -0.786847    3.825689    0.236455
 H   -1.982476    2.930085   -0.724625
 H   -2.244719   -1.589894   -0.985145
 H   -4.813386   -0.222857   -0.011022
 H   -4.204717   -0.192945   -1.680996
 H   -4.754225   -1.720755   -0.963457
 H   -1.824520   -2.026272    1.408940
 H   -3.356181   -1.224474    1.846830
 H   -3.374275   -2.757956    0.944326
