21 
4ucu_ligand_ani.xyz
 O    3.910240   -0.487639   -0.001024
 C    2.948077    0.236232    0.001437
 O    3.038213    1.568102    0.007043
 C    1.526871   -0.291773   -0.001241
 N    0.578133    0.613135   -0.000397
 C   -0.709676    0.191602   -0.000980
 C   -1.062449   -1.182070   -0.000133
 C   -2.429701   -1.556341    0.003593
 C   -3.398424   -0.589858    0.004668
 C   -3.058691    0.783363    0.001418
 C   -1.743196    1.179994   -0.002026
 O   -1.348745    2.475983   -0.006219
 C    0.000996   -2.123976   -0.003045
 C    1.296584   -1.683487   -0.004043
 H    2.131736    1.927144    0.007977
 H   -2.684853   -2.612940    0.005872
 H   -4.449716   -0.865854    0.007721
 H   -3.851340    1.529802    0.001734
 H   -2.134978    3.038059   -0.006041
 H   -0.227643   -3.186961   -0.004322
 H    2.149850   -2.354889   -0.006461
