27 
4ucv_ligand_xtb.xyz
 O   -0.002517    3.326321    0.000189
 C    0.581801    2.104771    0.000770
 C    1.944442    1.944322    0.000795
 C    2.521665    0.667161    0.001017
 C   -0.234932    0.948234    0.001113
 C    0.340620   -0.346264    0.002140
 C    1.757260   -0.478473    0.001635
 O    2.233890   -1.749466    0.001164
 C    3.626071   -1.939933   -0.005266
 N   -0.457060   -1.430947    0.003110
 C   -1.753293   -1.261121    0.001611
 C   -2.603805   -2.488727    0.002486
 C   -2.332764    0.041822   -0.001155
 N   -1.576430    1.110036   -0.000539
 C   -3.812426    0.241051   -0.004934
 H   -0.961207    3.170977    0.000912
 H    2.577690    2.816896    0.000295
 H    3.598251    0.606340    0.000828
 H    4.088651   -1.507303   -0.898887
 H    4.096160   -1.513794    0.887565
 H    3.774796   -3.018507   -0.009867
 H   -3.234005   -2.516121   -0.885346
 H   -1.961468   -3.364164    0.015096
 H   -3.252368   -2.503284    0.877182
 H   -4.254140   -0.220639   -0.886775
 H   -4.258952   -0.219856    0.874921
 H   -4.037797    1.303927   -0.006010
