72 
4udb_ligand_xtb.xyz
 C   -0.512800   -3.094825    0.280899
 C   -0.677506   -1.594627    0.037182
 C   -0.128761   -1.195022   -1.329017
 C    1.408830   -1.307718   -1.385464
 C    2.093365   -0.554804   -0.223512
 C    1.516604   -0.906944    1.158938
 C    0.005585   -0.712118    1.095285
 C   -0.829627   -0.943900    2.352687
 C   -2.265257   -0.934149    1.805538
 C   -2.166610   -1.193798    0.271000
 O   -2.448474    0.071930   -0.299505
 C   -3.271699    0.739955    0.626008
 O   -2.824825    0.360686    1.900913
 C   -3.213504    2.256657    0.444484
 C   -1.782841    2.777054    0.575993
 C   -1.752493    4.292818    0.413785
 C   -2.334740    4.695344   -0.937533
 C   -3.759936    4.170323   -1.081114
 C   -3.795852    2.654314   -0.910876
 C   -3.157104   -2.232046   -0.211806
 O   -3.484495   -3.197986    0.439699
 C   -3.743730   -2.008375   -1.586237
 O   -4.529391   -3.089727   -1.983779
 C    2.104628    0.022070    2.222795
 C    3.635091    0.016809    2.213227
 C    4.121573    0.310185    0.830184
 C    4.854018    1.393680    0.555513
 C    5.297812    1.754350   -0.790314
 O    5.940811    2.763706   -1.024272
 C    4.914408    0.800050   -1.838343
 C    4.177768   -0.277866   -1.584822
 C    3.655041   -0.649534   -0.231810
 C    4.203641   -2.056128    0.070874
 O    1.835118   -2.651975   -1.424045
 H    0.538049   -3.359745    0.327959
 H   -0.965835   -3.656574   -0.534538
 H   -1.000907   -3.402180    1.200788
 H   -0.417452   -0.165113   -1.540968
 H   -0.549123   -1.828003   -2.116372
 H    1.720309   -0.812453   -2.321791
 H    1.867507    0.505271   -0.401367
 H    1.748562   -1.942915    1.409716
 H   -0.172762    0.325123    0.788258
 H   -0.722367   -0.146756    3.084985
 H   -0.597443   -1.896532    2.825017
 H   -2.918567   -1.660872    2.301905
 H   -4.321219    0.389939    0.493533
 H   -3.823268    2.683598    1.247042
 H   -1.385909    2.491435    1.551703
 H   -1.168775    2.315128   -0.200173
 H   -0.724900    4.651843    0.498720
 H   -2.336242    4.754333    1.213259
 H   -2.328169    5.782459   -1.036792
 H   -1.714697    4.282194   -1.736211
 H   -4.159523    4.439233   -2.060777
 H   -4.394259    4.632985   -0.321718
 H   -4.823766    2.293626   -0.992987
 H   -3.207800    2.177182   -1.697457
 H   -4.340864   -1.084565   -1.556681
 H   -2.934581   -1.844507   -2.307431
 H   -4.614732   -3.672987   -1.209786
 H    1.746951   -0.276041    3.209062
 H    1.758337    1.040954    2.032012
 H    4.010323    0.766433    2.911315
 H    3.998944   -0.958351    2.541762
 H    5.155152    2.071153    1.343283
 H    5.280890    1.014686   -2.832304
 H    3.954168   -0.980823   -2.375348
 H    3.812616   -2.450960    1.001734
 H    3.936742   -2.741065   -0.726099
 H    5.288360   -2.000784    0.144029
 H    1.320867   -3.119953   -2.090640
