72 
4udb_ligand_dft.xyz
 C   -0.731969   -3.132415    0.237983
 C   -0.812822   -1.611239    0.024908
 C   -0.231487   -1.202419   -1.330169
 C    1.298950   -1.356184   -1.398123
 C    2.015642   -0.680668   -0.214237
 C    1.425739   -1.039704    1.170859
 C   -0.080898   -0.807677    1.121525
 C   -0.938634   -1.028126    2.367531
 C   -2.363687   -0.872590    1.818122
 C   -2.277528   -1.121259    0.274400
 O   -2.458546    0.167106   -0.284730
 C   -3.197023    0.920251    0.657717
 O   -2.760853    0.487734    1.917855
 C   -2.946677    2.406049    0.470092
 C   -1.465123    2.769784    0.623091
 C   -1.243852    4.274017    0.447947
 C   -1.788112    4.761097   -0.897566
 C   -3.265934    4.394718   -1.061257
 C   -3.491915    2.890487   -0.879741
 C   -3.351484   -2.055904   -0.259133
 O   -3.747246   -3.020817    0.365990
 C   -3.931381   -1.768085   -1.631497
 O   -4.785515   -2.790170   -2.037123
 C    2.051565   -0.159073    2.261194
 C    3.585857   -0.143234    2.227859
 C    4.075479    0.156613    0.838433
 C    4.827552    1.232214    0.565976
 C    5.265773    1.581435   -0.797236
 O    5.934283    2.577056   -1.030846
 C    4.851188    0.648971   -1.866439
 C    4.095760   -0.420270   -1.604929
 C    3.586413   -0.794351   -0.239036
 C    4.127207   -2.215560    0.062915
 O    1.702874   -2.717169   -1.466672
 H    0.305858   -3.459499    0.301256
 H   -1.187839   -3.659793   -0.607513
 H   -1.266244   -3.457807    1.133994
 H   -0.478346   -0.153039   -1.522569
 H   -0.676596   -1.784258   -2.150976
 H    1.624747   -0.841126   -2.314349
 H    1.813806    0.392898   -0.357604
 H    1.630966   -2.092944    1.398581
 H   -0.212574    0.249446    0.851336
 H   -0.765744   -0.290675    3.155027
 H   -0.786828   -2.024919    2.795275
 H   -3.099100   -1.521331    2.302206
 H   -4.272270    0.688538    0.534875
 H   -3.510353    2.906220    1.271264
 H   -1.101092    2.435005    1.600106
 H   -0.888796    2.230271   -0.140587
 H   -0.176371    4.506151    0.534156
 H   -1.750732    4.812535    1.261284
 H   -1.652995    5.844176   -0.994802
 H   -1.210286    4.296090   -1.708895
 H   -3.631311    4.711160   -2.044759
 H   -3.858316    4.940783   -0.313599
 H   -4.560871    2.655739   -0.963373
 H   -2.981955    2.343779   -1.684524
 H   -4.447557   -0.796460   -1.584379
 H   -3.104831   -1.635747   -2.345768
 H   -4.871101   -3.379750   -1.269137
 H    1.707733   -0.486623    3.248615
 H    1.689138    0.869688    2.123363
 H    3.968572    0.602379    2.931753
 H    3.969333   -1.117449    2.556776
 H    5.146332    1.912247    1.352120
 H    5.208368    0.872493   -2.867386
 H    3.836049   -1.111197   -2.404676
 H    3.701173   -2.635258    0.977317
 H    3.887034   -2.898016   -0.751850
 H    5.214104   -2.165409    0.185082
 H    1.177316   -3.149470   -2.150573
