72 
4ufd_ligand_ani.xyz
 C   -2.474222   -0.211364    0.257908
 S   -0.869452   -0.281594   -0.538354
 C   -2.936881   -1.593071    0.654359
 C   -4.036821   -2.184478    0.028952
 C   -4.487772   -3.444298    0.421590
 C   -3.830933   -4.137264    1.434207
 C   -2.716695   -3.566793    2.048924
 C   -2.274682   -2.304970    1.659482
 O   -0.965945   -1.240447   -1.632944
 O    0.156558   -0.391770    0.491377
 N    2.075318    2.319544    0.530789
 C    3.543169    2.418708    0.495656
 C    4.193517    1.036794    0.274951
 O    4.762937    0.440442    1.181224
 C    3.875121    2.969595    1.879579
 C    2.809207    2.331872    2.775898
 C    1.549306    2.298632    1.903266
 N   -0.761455    1.221038   -1.266904
 C   -0.183889    2.314178   -0.487409
 C    1.347377    2.264097   -0.603927
 O    1.874001    2.202172   -1.719093
 C   -0.741643    3.647632   -1.014134
 C   -2.205110    3.804759   -0.659184
 C   -2.581416    4.546663    0.462040
 C   -3.202457    3.163272   -1.400762
 C   -3.917884    4.646073    0.839764
 C   -4.539098    3.266792   -1.030157
 C   -4.900605    4.005337    0.093842
 N    4.091907    0.539721   -0.984631
 C    4.473275   -0.839518   -1.254593
 C    3.355456   -1.824137   -0.975326
 C    2.535802   -2.292088   -2.003912
 C    1.460260   -3.127376   -1.732707
 C    1.176573   -3.511133   -0.419192
 C   -0.032886   -4.350691   -0.111535
 N   -1.118308   -4.057604   -0.897540
 N   -0.067779   -5.278186    0.771036
 C    2.020637   -3.084211    0.604850
 C    3.091179   -2.241998    0.334293
 H   -3.150270    0.260096   -0.465109
 H   -2.361052    0.451935    1.124351
 H   -4.551647   -1.658315   -0.772150
 H   -5.351121   -3.887132   -0.069048
 H   -4.180146   -5.122410    1.735523
 H   -2.180763   -4.112598    2.820370
 H   -1.394264   -1.874070    2.130523
 H    3.834125    3.084123   -0.324865
 H    3.777614    4.061113    1.870186
 H    4.891072    2.711763    2.182787
 H    3.110525    1.310944    3.020942
 H    2.655465    2.883056    3.706936
 H    0.908177    3.173299    2.074219
 H    0.955021    1.391172    2.052988
 H   -0.292981    1.117478   -2.167745
 H   -0.498458    2.191173    0.550388
 H   -0.162224    4.474261   -0.587032
 H   -0.591061    3.676895   -2.099118
 H   -1.819073    5.058558    1.046186
 H   -2.930941    2.572233   -2.272160
 H   -4.190670    5.228355    1.716931
 H   -5.303642    2.768766   -1.622036
 H   -5.945452    4.081978    0.383457
 H    3.436559    1.000873   -1.610280
 H    4.790833   -0.907506   -2.300646
 H    5.338014   -1.065623   -0.622963
 H    2.725815   -1.987761   -3.030878
 H    0.825511   -3.474083   -2.545182
 H   -1.198137   -3.095766   -1.223257
 H   -1.982892   -4.473461   -0.575665
 H    0.843624   -5.365279    1.215982
 H    1.809995   -3.376758    1.632899
 H    3.728185   -1.892652    1.143017
