68 
4ufe_ligand_xtb.xyz
 C    3.212668    2.011500   -0.961328
 C    3.625650    0.786531   -1.474071
 C    4.895697    0.139555   -0.984496
 N    4.587894   -0.578621    0.243164
 C    2.788933    0.102001   -2.347114
 C    1.551532    0.615379   -2.688971
 C    1.123063    1.827590   -2.150393
 C   -0.207600    2.394052   -2.463342
 N   -0.362523    3.650716   -2.344388
 C    1.978977    2.530858   -1.301676
 N   -1.156427    1.505237   -2.883346
 C    4.044707   -1.813191    0.200360
 C    3.352417   -2.196928    1.526595
 C    3.116787   -3.693022    1.619291
 N    2.075737   -1.492814    1.558873
 O    4.068286   -2.541520   -0.767070
 C    1.963053   -0.198292    1.871014
 C    0.526727    0.335731    1.745514
 C    0.419730    1.783832    2.243919
 N    0.068108    0.242077    0.377843
 O    2.897657    0.509147    2.214002
 S   -0.898780   -0.996497   -0.097457
 C   -2.558342   -0.459260    0.419708
 O   -0.850854   -1.045398   -1.529389
 O   -0.548906   -2.183807    0.638134
 C   -5.168787   -3.311855   -1.384127
 C   -4.982550   -2.074049   -1.975483
 C   -4.152770   -1.139491   -1.381996
 C   -3.507257   -1.430549   -0.186911
 C   -3.693118   -2.677910    0.398035
 C   -4.521196   -3.612235   -0.197321
 C   -3.671080    2.987295    1.816728
 C   -2.741182    3.328512    0.849363
 C   -1.413707    2.962199    0.994903
 C   -0.999450    2.251471    2.114016
 C   -1.938459    1.917431    3.083070
 C   -3.265031    2.283157    2.937921
 H    3.859028    2.554906   -0.287508
 H    5.668309    0.879815   -0.768362
 H    5.266635   -0.587987   -1.708794
 H    4.359985    0.000259    1.046820
 H    3.106616   -0.847540   -2.749933
 H    0.924002    0.071354   -3.376541
 H   -1.294413    3.982152   -2.583393
 H    1.653381    3.487454   -0.923869
 H   -1.064290    0.525277   -2.654488
 H   -2.092458    1.852921   -3.016721
 H    3.955364   -1.831299    2.366209
 H    2.546121   -3.934912    2.512083
 H    4.070094   -4.213149    1.651234
 H    2.572688   -4.029302    0.740108
 H    1.258819   -1.994101    1.218578
 H   -0.134058   -0.315376    2.327920
 H    0.753844    1.814618    3.281537
 H    1.090716    2.402285    1.647596
 H    0.621029    0.702784   -0.330148
 H   -2.676634    0.553987    0.049130
 H   -2.563025   -0.473667    1.504751
 H   -5.814649   -4.041733   -1.848424
 H   -5.481821   -1.837038   -2.903002
 H   -4.005482   -0.175303   -1.845559
 H   -3.176938   -2.915361    1.315699
 H   -4.659274   -4.578339    0.264248
 H   -4.705718    3.274711    1.702923
 H   -3.047769    3.889693   -0.021270
 H   -0.697664    3.236700    0.234724
 H   -1.624243    1.372957    3.962822
 H   -3.983198    2.021764    3.701253
