68 
4ufe_ligand_dft.xyz
 C    3.273770    2.121225   -0.494618
 C    3.708654    0.985788   -1.185274
 C    4.968743    0.260122   -0.759046
 N    4.682206   -0.705683    0.293073
 C    2.916557    0.485816   -2.219012
 C    1.710768    1.097649   -2.548038
 C    1.267229    2.221332   -1.843735
 C   -0.052419    2.867330   -2.124497
 N   -0.223634    4.085521   -1.757561
 C    2.073874    2.738291   -0.822569
 N   -0.964890    2.071268   -2.782179
 C    4.115577   -1.904327   -0.025267
 C    3.373805   -2.566851    1.153346
 C    3.174586   -4.054995    0.927054
 N    2.080578   -1.896744    1.280376
 O    4.132272   -2.391897   -1.143657
 C    1.939895   -0.686699    1.859255
 C    0.533297   -0.069909    1.728325
 C    0.452652    1.303019    2.409545
 N    0.147338    0.024279    0.328220
 O    2.845520   -0.097372    2.444562
 S   -0.918721   -0.986315   -0.393291
 C   -2.539954   -0.361331    0.091464
 O   -0.765092   -0.789458   -1.832297
 O   -0.755327   -2.313870    0.194859
 C   -5.657747   -2.907505   -1.401822
 C   -5.220228   -1.825775   -2.161030
 C   -4.214335   -0.996729   -1.675722
 C   -3.642842   -1.238656   -0.426098
 C   -4.081190   -2.328863    0.326817
 C   -5.085568   -3.158681   -0.157502
 C   -3.596508    2.737651    2.056203
 C   -2.609655    3.208096    1.193992
 C   -1.294184    2.771692    1.327350
 C   -0.945326    1.860406    2.325527
 C   -1.938627    1.410557    3.199952
 C   -3.255808    1.841273    3.066635
 H    3.878538    2.522400    0.315042
 H    5.712952    0.966940   -0.380769
 H    5.407209   -0.282016   -1.598752
 H    4.408490   -0.321449    1.193900
 H    3.236876   -0.403657   -2.752165
 H    1.115636    0.689469   -3.357203
 H   -1.169992    4.403901   -1.975950
 H    1.739262    3.628431   -0.299680
 H   -0.921549    1.065814   -2.645804
 H   -1.897822    2.443728   -2.882826
 H    3.922600   -2.383666    2.082513
 H    2.598949   -4.490758    1.748351
 H    4.143337   -4.557105    0.867841
 H    2.654614   -4.230351   -0.018540
 H    1.293417   -2.281371    0.764978
 H   -0.174517   -0.755005    2.209689
 H    0.775780    1.187780    3.448215
 H    1.173487    1.972373    1.929612
 H    0.676592    0.621586   -0.299912
 H   -2.579787    0.659338   -0.298363
 H   -2.529509   -0.300714    1.183018
 H   -6.441904   -3.556063   -1.780518
 H   -5.660581   -1.629226   -3.133695
 H   -3.864569   -0.158291   -2.272029
 H   -3.624414   -2.531198    1.291295
 H   -5.420062   -4.004261    0.435595
 H   -4.623014    3.075476    1.949935
 H   -2.858624    3.922095    0.413992
 H   -0.539816    3.146327    0.640656
 H   -1.677231    0.710384    3.991085
 H   -4.015086    1.480867    3.754487
