68 
4uff_ligand_ani.xyz
 O    0.168250   -2.600784    0.022066
 S    0.790517   -1.312834   -0.250556
 O    1.499586   -1.095497   -1.505125
 C    1.885114   -0.921200    1.121241
 C    3.060514   -1.862466    1.185897
 C    2.874626   -3.163079    1.661145
 C    3.947151   -4.043701    1.742104
 C    5.218261   -3.636257    1.347195
 C    5.410953   -2.344474    0.869260
 C    4.336495   -1.461056    0.790123
 N   -0.377528   -0.110826   -0.102513
 C   -1.783828   -0.549708    0.008895
 C   -2.348102   -1.105661   -1.308038
 C   -3.600912   -1.920447   -1.093613
 C   -4.862050   -1.320569   -1.103769
 C   -6.005949   -2.086777   -0.901706
 C   -5.901673   -3.457220   -0.678580
 C   -4.647220   -4.059196   -0.649644
 C   -3.502961   -3.292766   -0.851188
 C   -2.582299    0.672226    0.488320
 O   -3.265398    1.320361   -0.310176
 N   -2.465154    1.059049    1.790666
 C   -1.515770    0.452578    2.718950
 C   -2.938823    2.406530    2.115777
 C   -1.909825    3.462033    1.701051
 O   -1.164172    4.005012    2.503493
 N   -1.885586    3.712634    0.364343
 C   -0.769633    4.433351   -0.218758
 C    0.388574    3.531110   -0.599201
 C    1.403490    3.247546    0.318883
 C    2.516596    2.506095   -0.059264
 C    2.631437    1.995542   -1.354164
 C    3.888308    1.298356   -1.786433
 N    5.054345    1.595786   -1.348618
 N    3.720297    0.319440   -2.740927
 C    1.578119    2.209094   -2.248600
 C    0.471285    2.960169   -1.875216
 H    2.185895    0.124112    0.989547
 H    1.252633   -1.004619    2.014226
 H    1.880438   -3.491566    1.954339
 H    3.788928   -5.051204    2.117776
 H    6.057163   -4.325208    1.411896
 H    6.402645   -2.020938    0.562674
 H    4.498677   -0.451926    0.417505
 H   -0.224411    0.602627   -0.817081
 H   -1.796123   -1.335351    0.764816
 H   -2.544000   -0.269404   -1.988740
 H   -1.579231   -1.739207   -1.764207
 H   -4.932088   -0.247396   -1.258190
 H   -6.984238   -1.612422   -0.920165
 H   -6.796866   -4.054563   -0.523797
 H   -4.559754   -5.128311   -0.471617
 H   -2.519054   -3.760692   -0.819802
 H   -0.477912    0.607438    2.396577
 H   -1.708672   -0.619294    2.832157
 H   -1.640551    0.923434    3.697573
 H   -3.884894    2.569512    1.593531
 H   -3.095506    2.479786    3.194457
 H   -2.449740    3.116771   -0.231217
 H   -0.444995    5.170070    0.521211
 H   -1.132829    4.974857   -1.099255
 H    1.331309    3.640893    1.329663
 H    3.297396    2.318844    0.676588
 H    4.982319    2.371382   -0.688371
 H    4.568780   -0.215835   -2.880728
 H    2.885362   -0.246291   -2.627735
 H    1.649825    1.807008   -3.256292
 H   -0.340802    3.107214   -2.585174
