74 
4ufg_ligand_ani.xyz
 O   -0.267704   -0.330370    0.143011
 S   -0.323092    0.796814   -0.784075
 O   -1.205193    0.771066   -1.942570
 C   -0.641853    2.291731    0.145773
 C   -1.952358    2.209409    0.884117
 C   -2.006638    1.681410    2.174546
 C   -3.209181    1.658585    2.875102
 C   -4.372070    2.143935    2.282484
 C   -4.332080    2.637911    0.980520
 C   -3.125668    2.667940    0.284323
 N    1.235794    1.109000   -1.348626
 C    2.321360    0.543071   -0.538496
 C    3.653171    1.221579   -0.900197
 C    3.723969    2.644097   -0.386924
 C    3.141990    3.695485   -1.101156
 C    3.182549    4.996600   -0.609601
 C    3.798600    5.267017    0.609160
 C    4.375366    4.228335    1.332566
 C    4.337345    2.928812    0.835441
 C    2.380238   -0.972891   -0.809104
 O    2.228332   -1.369361   -1.956687
 N    2.619588   -1.824282    0.240763
 C    2.733581   -1.346180    1.607200
 C    2.539240   -3.264188   -0.018831
 C    3.760024   -4.048133    0.471072
 C    5.081097   -3.545192   -0.103595
 C    1.243799   -3.941765    0.489745
 O    1.209397   -5.155041    0.653877
 N    0.172177   -3.140156    0.680669
 C   -1.132042   -3.673468    1.030797
 C   -2.194060   -2.781819    0.428392
 C   -3.029812   -1.985136    1.213072
 C   -3.895077   -1.069902    0.623078
 C   -3.915998   -0.907386   -0.758951
 C   -4.757263    0.163053   -1.384156
 N   -4.148826    0.820825   -2.427221
 N   -5.949757    0.457131   -1.022292
 C   -3.116627   -1.735501   -1.550380
 C   -2.271512   -2.662750   -0.961130
 H   -0.617068    3.108816   -0.585058
 H    0.209192    2.404169    0.828980
 H   -1.105237    1.287540    2.638729
 H   -3.240370    1.261802    3.887503
 H   -5.309644    2.125743    2.835451
 H   -5.243731    2.999106    0.512116
 H   -3.089109    3.060882   -0.730870
 H    1.290458    0.730942   -2.297241
 H    2.100051    0.751696    0.508569
 H    3.769906    1.191314   -1.989580
 H    4.476551    0.631438   -0.479657
 H    2.644332    3.488574   -2.045786
 H    2.730523    5.803582   -1.181062
 H    3.828742    6.283789    0.993280
 H    4.859064    4.431099    2.285262
 H    4.798026    2.125162    1.408248
 H    3.546951   -0.615187    1.705208
 H    2.946422   -2.187875    2.268332
 H    1.801280   -0.875745    1.951496
 H    2.490692   -3.328104   -1.114490
 H    3.793875   -4.028540    1.567535
 H    3.588664   -5.095522    0.201567
 H    5.907266   -4.185601    0.220928
 H    5.296236   -2.523653    0.228930
 H    5.066314   -3.547487   -1.200191
 H    0.226687   -2.137494    0.527077
 H   -1.243331   -3.733500    2.121983
 H   -1.196279   -4.695415    0.639592
 H   -2.994969   -2.076262    2.297414
 H   -4.534410   -0.450693    1.245661
 H   -3.135082    0.885127   -2.411776
 H   -4.646320    1.641026   -2.745963
 H   -6.224912   -0.133533   -0.239431
 H   -3.139987   -1.630950   -2.632652
 H   -1.623355   -3.271192   -1.588196
