24 
4ufh_ligand_ani.xyz
 C    0.875811   -1.725096   -0.061783
 N    1.766316   -0.526679    0.034492
 O    0.529356    1.190019    1.569234
 C   -0.599488   -1.342809   -0.002421
 O   -2.236990    0.254506   -0.567130
 C   -0.922896   -0.162964   -0.930887
 O   -0.957491   -1.022230    1.346442
 C    0.096518    0.995876   -0.874096
 C    1.495503    0.420887   -1.082045
 C    0.028043    1.846793    0.406407
 H    1.054107   -2.231599   -1.016603
 H    1.099758   -2.423130    0.744088
 H    1.534735    0.009203    0.910484
 H    2.756671   -0.810055    0.069803
 H   -0.108422    0.475383    1.776092
 H   -1.194788   -2.208994   -0.327578
 H   -2.576603    0.842861   -1.252933
 H   -0.914215   -0.559403   -1.958685
 H   -1.859131   -0.663897    1.281920
 H   -0.134727    1.671595   -1.709483
 H    2.253122    1.205655   -1.091749
 H    1.543344   -0.112520   -2.036423
 H    0.663692    2.730791    0.272462
 H   -1.001702    2.186371    0.577737
