28 
4ufl_ligand_dft.xyz
 O   -3.339192   -0.002492   -0.275290
 C   -2.306070   -0.873371    0.130265
 C   -1.034920   -0.360164   -0.542143
 C    0.175222   -1.266298   -0.282608
 O    0.241581   -1.554050    1.089956
 C    1.491853   -0.601174   -0.754149
 O    2.585019   -1.219754   -0.115811
 C    1.575538    0.893777   -0.395256
 C    1.344203    1.225014    1.084365
 C   -0.194916    1.355530    1.239547
 C   -0.773761    1.105051   -0.160821
 N    0.381327    1.568396   -1.035742
 H   -4.167231   -0.284256    0.130602
 H   -2.181036   -0.888826    1.220084
 H   -2.482530   -1.907053   -0.198117
 H   -1.242903   -0.378244   -1.622660
 H    0.042110   -2.195739   -0.858531
 H    1.105318   -1.964482    1.247972
 H    1.568055   -0.693237   -1.847912
 H    3.002397   -1.855906   -0.708383
 H    2.493240    1.317992   -0.806192
 H    1.846073    2.162994    1.336312
 H    1.765890    0.445765    1.716794
 H   -0.590831    0.634560    1.952646
 H   -0.469221    2.355783    1.584712
 H   -1.655365    1.703486   -0.392172
 H    0.251015    1.322186   -2.021199
 H    0.483587    2.586377   -0.989802
