38 
4ufz_ligand_dft.xyz
 N   -5.589757    0.993027    0.001680
 C   -4.538419    0.495095    0.000873
 C   -3.255582   -0.112250    0.000140
 C   -2.105405    0.695409   -0.000230
 N   -2.249013    2.022736   -0.000037
 C   -3.144605   -1.530754   -0.000417
 N   -4.256254   -2.296631   -0.001394
 N   -1.984426   -2.162221   -0.000658
 C   -0.861798   -1.425390   -0.000564
 N    0.273500   -2.168433   -0.000507
 C    1.423589   -1.544838   -0.000212
 C    2.716249   -2.350605    0.000133
 C    2.425089   -3.853441   -0.000729
 C    3.521149   -1.975414    1.257774
 C    3.522947   -1.974300   -1.255965
 C   -0.818279    0.016846   -0.000541
 C    0.496687    0.568794   -0.000362
 N    1.570006   -0.205279   -0.000152
 C    0.938865    1.994086   -0.000329
 S    2.658827    2.270614    0.001002
 C    2.362630    3.961009    0.000229
 C    1.024429    4.209058   -0.001013
 N    0.235301    3.091780   -0.001374
 H   -3.181101    2.411082    0.000135
 H   -1.440120    2.650364   -0.000741
 H   -5.182805   -1.902957    0.003943
 H   -4.135024   -3.296456    0.002474
 H    1.847471   -4.147390    0.879948
 H    1.848465   -4.146544   -0.882350
 H    3.370605   -4.407598   -0.000481
 H    3.742639   -0.904294    1.278914
 H    2.967837   -2.232201    2.168061
 H    4.468252   -2.526357    1.270004
 H    2.971018   -2.230353   -2.167303
 H    3.744376   -0.903152   -1.275951
 H    4.470104   -2.525167   -1.267262
 H    3.168807    4.681021    0.000710
 H    0.557480    5.185499   -0.001760
