38 
4ufz_ligand_ani.xyz
 N   -5.564453    0.971068   -0.258346
 C   -4.512304    0.485643   -0.165117
 C   -3.216907   -0.109960   -0.054164
 C   -2.055953    0.663858   -0.189208
 N   -2.203479    1.965944   -0.508281
 C   -3.121712   -1.505832    0.187873
 N   -4.250515   -2.237932    0.384662
 N   -1.974388   -2.137094    0.248587
 C   -0.837812   -1.417124    0.099119
 N    0.289964   -2.163364    0.087405
 C    1.432612   -1.544660   -0.086243
 C    2.698882   -2.382068   -0.072364
 C    2.406932   -3.779684   -0.614311
 C    3.118872   -2.468751    1.401580
 C    3.802425   -1.716657   -0.894215
 C   -0.775383    0.010221   -0.038840
 C    0.545519    0.581380   -0.061741
 N    1.603588   -0.221953   -0.157993
 C    0.949555    2.008870    0.050139
 S    2.631213    2.368317   -0.124711
 C    2.314317    4.018588    0.182303
 C    0.985613    4.194436    0.403750
 N    0.219417    3.060409    0.323397
 H   -3.145387    2.332813   -0.514721
 H   -1.452290    2.606792   -0.272997
 H   -5.142266   -1.851257    0.120124
 H   -4.136956   -3.238193    0.365678
 H    1.640485   -4.273253   -0.013226
 H    2.048076   -3.728500   -1.648459
 H    3.319985   -4.384366   -0.593524
 H    3.328917   -1.471767    1.804847
 H    2.320321   -2.922564    1.999881
 H    4.021924   -3.080954    1.507646
 H    3.509513   -1.622517   -1.946155
 H    4.031909   -0.722324   -0.507152
 H    4.709078   -2.329926   -0.848398
 H    3.093806    4.767348    0.192951
 H    0.504583    5.136491    0.621494
