30 
4uhg_ligand_ani.xyz
 C   -2.216161   -1.141501   -0.514507
 C   -3.599913   -1.239147   -0.531057
 C   -4.402098   -0.230308    0.011173
 C   -5.904271   -0.344764   -0.012390
 C   -3.771174    0.876636    0.580179
 C   -2.386346    0.986097    0.587274
 C   -1.593692   -0.017293    0.028836
 C   -0.108104    0.077690    0.009737
 N    0.620713   -0.982389    0.101151
 C    1.998132   -0.806631    0.099174
 C    2.824821   -1.943284    0.236873
 C    4.195962   -1.808872    0.224858
 C    4.796882   -0.546122    0.072807
 C    4.000787    0.573322   -0.064467
 C    2.608226    0.451389   -0.049238
 C    1.764110    1.641359   -0.203844
 O    2.149524    2.781271   -0.379976
 N    0.405130    1.354555   -0.126727
 H   -1.603155   -1.938582   -0.927409
 H   -4.070565   -2.117095   -0.968891
 H   -6.275689   -0.485626   -1.033847
 H   -6.247019   -1.201407    0.579517
 H   -6.378872    0.552586    0.394465
 H   -4.373450    1.672869    1.014064
 H   -1.923528    1.846993    1.063833
 H    2.342836   -2.910034    0.350879
 H    4.822555   -2.691309    0.332632
 H    5.879443   -0.458329    0.062602
 H    4.422836    1.567292   -0.187815
 H   -0.215454    2.135883   -0.313638
