30 
4uhg_ligand_xtb.xyz
 C   -2.157071   -1.175350   -0.290998
 C   -3.526281   -1.328413   -0.298935
 C   -4.367573   -0.260361    0.003252
 C   -5.852867   -0.442369   -0.010864
 C   -3.792742    0.962249    0.324543
 C   -2.420054    1.126046    0.332053
 C   -1.581484    0.059349    0.015574
 C   -0.120530    0.172748    0.001523
 N    0.587515   -0.901491    0.075621
 C    1.950634   -0.796102    0.062638
 C    2.718275   -1.964964    0.141633
 C    4.091631   -1.889984    0.133689
 C    4.738304   -0.657095    0.048580
 C    4.002259    0.503274   -0.030700
 C    2.608210    0.446800   -0.024967
 C    1.808098    1.662580   -0.122153
 O    2.222900    2.798659   -0.219691
 N    0.440800    1.417409   -0.101616
 H   -1.502132   -1.999561   -0.523521
 H   -3.957887   -2.288135   -0.543801
 H   -6.177419   -0.832894   -0.974167
 H   -6.150840   -1.159212    0.753612
 H   -6.365560    0.497435    0.176590
 H   -4.427165    1.800340    0.575007
 H   -2.016140    2.088008    0.614748
 H    2.204441   -2.910895    0.208135
 H    4.678605   -2.794935    0.194199
 H    5.817118   -0.616412    0.044516
 H    4.474374    1.471807   -0.099078
 H   -0.151662    2.233306   -0.195952
