34 
4ui5_ligand_ani.xyz
 C    3.090110    3.485781   -0.160649
 O    2.171403    2.413581   -0.107353
 C    2.677624    1.161089   -0.064828
 C    4.025055    0.853172   -0.066780
 C    4.455770   -0.485138   -0.013149
 C    3.538255   -1.511385    0.043131
 C    2.171858   -1.213391    0.042841
 C    1.712061    0.110660   -0.014125
 N    0.376947    0.451312   -0.010991
 C   -0.480751   -0.513368    0.013320
 N   -0.129813   -1.844292    0.081744
 C    1.186150   -2.301069    0.122066
 O    1.428955   -3.488081    0.214315
 C   -1.932763   -0.200597   -0.008845
 C   -2.349651    1.050963    0.448115
 C   -3.696578    1.379822    0.459641
 C   -4.662964    0.480417   -0.000809
 C   -6.123819    0.848600    0.013098
 C   -4.234499   -0.757586   -0.481983
 C   -2.887395   -1.096919   -0.487329
 H    3.734309    3.506084    0.727934
 H    3.715200    3.433466   -1.061463
 H    2.484758    4.391715   -0.190932
 H    4.771101    1.640010   -0.108361
 H    5.521646   -0.698187   -0.013760
 H    3.837354   -2.554174    0.090326
 H   -0.839472   -2.554884    0.227764
 H   -1.600504    1.760704    0.790958
 H   -4.007556    2.355550    0.827571
 H   -6.457110    1.114238    1.022838
 H   -6.321466    1.712353   -0.632404
 H   -6.747132    0.021187   -0.337424
 H   -4.967512   -1.472106   -0.852435
 H   -2.587205   -2.055409   -0.903873
