31 
4ui7_ligand_dft.xyz
 C   -2.614662    1.153999    0.393132
 C   -3.986380    0.940132    0.389770
 C   -4.523858   -0.289440    0.000522
 C   -6.015577   -0.505239   -0.001488
 C   -3.640660   -1.303990   -0.374844
 C   -2.267588   -1.100370   -0.371252
 C   -1.738146    0.136201    0.003952
 C   -0.266968    0.312210   -0.010962
 N    0.503507   -0.720718    0.057376
 C    1.868583   -0.508173    0.038031
 C    2.727787   -1.633035    0.099276
 O    2.146677   -2.854081    0.158882
 C    4.101600   -1.448503    0.094895
 C    4.657811   -0.164189    0.028609
 C    3.840995    0.945805   -0.035916
 C    2.452451    0.768567   -0.030147
 C    1.569706    1.936666   -0.120043
 O    1.919104    3.099693   -0.212974
 N    0.219118    1.597542   -0.106772
 H   -2.240143    2.113323    0.740990
 H   -4.651691    1.740473    0.703803
 H   -6.434050   -0.366737    1.001648
 H   -6.516012    0.208878   -0.664855
 H   -6.273358   -1.513657   -0.336784
 H   -4.034590   -2.270933   -0.676643
 H   -1.583664   -1.892898   -0.655153
 H    2.839201   -3.524457    0.202611
 H    4.756273   -2.316433    0.143330
 H    5.737396   -0.052775    0.027427
 H    4.238519    1.952820   -0.092585
 H   -0.413086    2.375870   -0.236502
