31 
4ui7_ligand_ani.xyz
 C   -2.601669    1.126883    0.464708
 C   -3.972747    0.920093    0.461374
 C   -4.517767   -0.285183    0.005485
 C   -6.008605   -0.501162   -0.009437
 C   -3.642528   -1.281246   -0.426536
 C   -2.267678   -1.083368   -0.418203
 C   -1.734549    0.131795    0.010176
 C   -0.260106    0.308807   -0.013690
 N    0.507272   -0.729140    0.032158
 C    1.868335   -0.506695    0.036643
 C    2.733440   -1.633686    0.109682
 O    2.141935   -2.851359    0.168960
 C    4.100905   -1.447788    0.117558
 C    4.654886   -0.158553    0.050165
 C    3.832450    0.944844   -0.029597
 C    2.446939    0.771466   -0.038306
 C    1.560917    1.939216   -0.146509
 O    1.908391    3.098064   -0.260930
 N    0.209316    1.601873   -0.106616
 H   -2.210906    2.060660    0.861742
 H   -4.635644    1.709173    0.811703
 H   -6.439920   -0.354713    0.987358
 H   -6.505736    0.203502   -0.686111
 H   -6.261850   -1.513230   -0.337483
 H   -4.043244   -2.232654   -0.770871
 H   -1.590449   -1.870286   -0.741577
 H    2.830943   -3.527273    0.217861
 H    4.760138   -2.313469    0.175323
 H    5.734659   -0.043002    0.058492
 H    4.223469    1.956329   -0.089108
 H   -0.433518    2.369648   -0.271444
