70 
4uia_ligand_ani.xyz
 C    0.050014    3.952254   -0.790298
 C    0.945965    5.150053   -0.465423
 C    0.493981    5.859128    0.812988
 C    0.436780    4.878900    1.986775
 C   -0.460659    3.684034    1.657503
 C   -0.019054    2.961633    0.377665
 C   -0.953622    1.778978    0.100408
 C   -0.656425    1.009509   -1.199403
 C   -1.614549   -0.195908   -1.360547
 O   -1.271502   -1.369075   -1.274912
 N   -2.899064    0.173464   -1.608457
 C   -3.969442   -0.753852   -1.949874
 C   -5.083670   -0.802099   -0.901972
 C   -4.659145   -1.291808    0.488195
 C   -4.220395   -2.757124    0.468486
 C   -5.797185   -1.087864    1.487522
 N    0.743382    0.649580   -1.369879
 C    1.427255   -0.104305   -0.436235
 O    1.054425   -0.272477    0.722887
 N    2.586044   -0.653597   -0.929860
 C    3.469054   -1.396831   -0.060059
 C    4.892082   -0.945462   -0.322167
 O    5.742851   -1.399928    0.610041
 O    5.241373   -0.279009   -1.267563
 C    3.367308   -2.924956   -0.261924
 C    1.962275   -3.470238    0.000609
 C    1.549839   -3.446122    1.475770
 C    0.040294   -3.600911    1.695965
 N   -0.703609   -2.383707    1.259980
 H   -0.967408    4.307569   -1.020459
 H    0.423019    3.445938   -1.689096
 H    0.964362    5.850381   -1.309265
 H    1.977879    4.792744   -0.332232
 H   -0.506460    6.287174    0.652522
 H    1.160079    6.699507    1.043697
 H    0.084101    5.383197    2.894524
 H    1.452774    4.517121    2.203737
 H   -0.476523    2.972682    2.494032
 H   -1.495942    4.034750    1.523003
 H    0.996664    2.576505    0.544503
 H   -1.984342    2.155025    0.049646
 H   -0.910036    1.080563    0.941694
 H   -0.879381    1.678863   -2.040078
 H   -3.101792    1.158579   -1.675978
 H   -4.395459   -0.472111   -2.920208
 H   -3.504413   -1.733387   -2.073496
 H   -5.523682    0.201340   -0.806576
 H   -5.888440   -1.452230   -1.275674
 H   -3.804124   -0.684511    0.819958
 H   -5.030192   -3.402559    0.103829
 H   -3.961106   -3.102773    1.476069
 H   -3.348653   -2.916997   -0.176228
 H   -5.498760   -1.401569    2.493944
 H   -6.677594   -1.677020    1.199795
 H   -6.099821   -0.035629    1.538334
 H    0.975826    0.412510   -2.325596
 H    3.041639   -0.191206   -1.707171
 H    3.218661   -1.152214    0.978104
 H    6.627016   -1.087230    0.353836
 H    4.103724   -3.406906    0.391712
 H    3.657651   -3.152834   -1.295119
 H    1.901898   -4.502185   -0.367663
 H    1.248909   -2.894991   -0.603193
 H    2.072817   -4.242363    2.018846
 H    1.853918   -2.501683    1.946371
 H   -0.340889   -4.463931    1.142221
 H   -0.159794   -3.772800    2.756086
 H   -0.141042   -1.537110    1.441868
 H   -0.892602   -2.391793    0.244711
 H   -1.601145   -2.296724    1.754975
