49 
4uin_ligand_ani.xyz
 O   -1.041412   -2.181820   -1.598156
 C   -0.254333   -1.092475   -1.146821
 C   -1.171383   -0.134632   -0.372093
 N   -2.102522    0.630582   -1.324233
 C   -3.193975   -0.221275   -1.945824
 C   -3.968541   -0.916936   -0.823067
 C   -2.763186    1.757930   -0.576705
 C   -3.640335    1.162209    0.537143
 C   -3.314515    1.762754    1.878673
 C   -4.204899    2.207312    2.759751
 C   -3.479459   -0.372004    0.519439
 C   -2.023092   -0.795673    0.706574
 C    0.908133   -1.554920   -0.296791
 C    0.888518   -2.782423    0.316306
 C    1.953544   -3.159606    1.167212
 N    2.994762   -2.406307    1.421236
 C    3.038031   -1.180203    0.816515
 C    2.026443   -0.694498   -0.052367
 C    2.170653    0.597971   -0.618328
 C    4.155413   -0.354719    1.082811
 C    4.281633    0.889065    0.521862
 C    3.275539    1.372338   -0.344487
 O    3.324766    2.593967   -0.941246
 C    4.448286    3.406395   -0.685732
 H   -0.460633   -2.736101   -2.133942
 H    0.106501   -0.530865   -2.024649
 H   -0.536708    0.624257    0.092898
 H   -1.528463    1.027656   -2.073678
 H   -3.846507    0.441775   -2.525871
 H   -2.736053   -0.927815   -2.632793
 H   -3.806420   -1.997931   -0.861997
 H   -5.042655   -0.738147   -0.931086
 H   -1.985063    2.412382   -0.170898
 H   -3.348058    2.355731   -1.281699
 H   -4.693022    1.377899    0.317101
 H   -2.252036    1.798580    2.129831
 H   -5.272656    2.201116    2.549616
 H   -3.899685    2.604657    3.723682
 H   -4.083415   -0.799884    1.328559
 H   -1.648749   -0.523354    1.697193
 H   -1.944187   -1.882036    0.620631
 H    0.064168   -3.471215    0.156993
 H    1.930883   -4.136182    1.651013
 H    1.404309    1.013119   -1.268653
 H    4.913769   -0.749309    1.752450
 H    5.154511    1.491155    0.749509
 H    4.531912    3.652246    0.381232
 H    5.377074    2.922834   -1.016353
 H    4.293823    4.322674   -1.257319
