60 
4uit_ligand_dft.xyz
 C   -2.848434    4.425355   -1.028037
 O   -2.372139    3.521817   -0.054260
 C   -1.122559    3.015562   -0.214790
 C   -0.236178    3.375635   -1.226199
 C    1.022595    2.777136   -1.299217
 C    1.415797    1.816194   -0.374158
 C    0.519299    1.454279    0.640208
 C   -0.727021    2.048609    0.728726
 O   -1.600048    1.644380    1.706508
 C   -1.763029    2.566623    2.776537
 C    2.730978    1.134609   -0.454537
 C    3.788445    1.529459    0.262753
 N    5.006192    0.826393    0.313683
 C    6.152447    1.467914    0.935468
 C    5.054072   -0.537114    0.064300
 O    6.028209   -1.225884    0.306146
 C    3.775882   -1.058073   -0.490554
 C    3.224869   -2.209153   -0.122517
 C    1.810087   -2.441788   -0.572103
 S    1.455133   -1.084137   -1.766963
 C    2.932558   -0.114829   -1.300341
 C    0.865493   -2.381358    0.641108
 O    1.269163   -1.938043    1.707121
 N   -0.401070   -2.867576    0.479128
 C   -1.343854   -2.748273    1.586641
 C   -2.331512   -1.613742    1.334178
 N   -2.979663   -1.834341    0.036065
 C   -2.042793   -1.939170   -1.082138
 C   -1.069770   -3.083005   -0.796482
 S   -4.394748   -0.995073   -0.255953
 C   -3.910851    0.714400   -0.463379
 O   -5.190788   -1.086548    0.956069
 O   -4.902297   -1.470425   -1.532811
 H   -3.872831    4.663612   -0.740454
 H   -2.253448    5.347028   -1.047525
 H   -2.848107    3.970657   -2.026534
 H   -0.511817    4.120760   -1.963555
 H    1.704606    3.070624   -2.091836
 H    0.785558    0.685299    1.360585
 H   -0.803735    2.743959    3.277304
 H   -2.460851    2.103687    3.475871
 H   -2.176415    3.514578    2.418044
 H    3.759938    2.423394    0.878357
 H    6.997466    0.783982    0.869116
 H    6.388721    2.399809    0.414219
 H    5.953923    1.684719    1.991578
 H    3.711378   -2.913856    0.542552
 H    1.710898   -3.397526   -1.096215
 H    3.431994    0.159635   -2.239089
 H   -0.778464   -2.561929    2.498597
 H   -1.884561   -3.696946    1.678963
 H   -1.801114   -0.651488    1.363170
 H   -3.103938   -1.613082    2.104694
 H   -1.468347   -1.008119   -1.213507
 H   -2.607758   -2.149003   -1.991923
 H   -1.626190   -4.025602   -0.740683
 H   -0.350538   -3.167416   -1.611257
 H   -3.238042    0.793973   -1.320062
 H   -4.821705    1.285955   -0.651273
 H   -3.416911    1.071320    0.442396
