56 
4uiu_ligand_ani.xyz
 O    7.045833    1.061768   -1.487354
 S    6.848343   -0.080587   -0.603709
 O    7.953741   -0.985559   -0.285793
 C    6.177099    0.501971    0.954930
 C    5.655479   -0.661253    1.798906
 C    5.507564   -1.088460   -1.240747
 C    5.081330   -2.128438   -0.209885
 C    4.576296   -1.494413    1.097605
 N    3.400318   -0.672753    0.853624
 C    2.172023   -1.234522    0.683109
 O    1.983362   -2.443465    0.728676
 C    1.075483   -0.269019    0.430717
 C    1.099422    1.079901    0.228820
 S   -0.549326   -0.903323    0.339457
 C   -1.199993    0.667332    0.002012
 C   -0.185967    1.616652   -0.003119
 C   -0.450924    3.030179   -0.217096
 O    0.393142    3.911473   -0.245281
 N   -1.806650    3.332571   -0.392316
 C   -2.124309    4.748200   -0.597397
 C   -2.786865    2.385262   -0.382160
 C   -2.557520    1.044455   -0.219341
 C   -3.693700    0.086208   -0.284562
 C   -3.638327   -1.079738   -1.038871
 C   -4.737426   -1.935082   -1.098549
 C   -4.885378    0.392240    0.389459
 C   -5.984826   -0.450545    0.344261
 O   -7.163784   -0.219911    0.972037
 C   -7.288928    0.988394    1.688574
 C   -5.908740   -1.645191   -0.413829
 O   -7.017609   -2.421113   -0.411858
 C   -6.977536   -3.614143   -1.163984
 H    5.408041    1.247353    0.723506
 H    7.010936    1.015247    1.442333
 H    5.252686   -0.266793    2.738697
 H    6.497094   -1.312517    2.058237
 H    5.905638   -1.550228   -2.148635
 H    4.686130   -0.419193   -1.516379
 H    5.923987   -2.792674    0.013954
 H    4.274946   -2.738809   -0.627171
 H    4.259870   -2.309561    1.753795
 H    3.480366    0.329819    0.921418
 H    1.974355    1.728423    0.216424
 H   -1.758163    5.336173    0.245579
 H   -1.642369    5.111700   -1.506851
 H   -3.206647    4.861205   -0.683568
 H   -3.790251    2.770580   -0.537136
 H   -2.746671   -1.328553   -1.606288
 H   -4.661735   -2.837092   -1.694674
 H   -4.929049    1.306124    0.974633
 H   -6.601250    1.019577    2.543785
 H   -7.104993    1.856441    1.041589
 H   -8.316858    1.018038    2.052079
 H   -6.804934   -3.411323   -2.229391
 H   -6.198720   -4.294963   -0.795219
 H   -7.955390   -4.080624   -1.038362
