56 
4uiu_ligand_xtb.xyz
 O    7.457539    1.048648   -1.042925
 S    6.990594   -0.121414   -0.350654
 O    7.957177   -1.122256    0.005848
 C    6.105697    0.395211    1.152856
 C    5.464005   -0.833805    1.768237
 C    5.657910   -0.902228   -1.306386
 C    5.093094   -2.023342   -0.459395
 C    4.454906   -1.526037    0.847674
 N    3.311192   -0.675201    0.593111
 C    2.058329   -1.187489    0.486991
 O    1.821790   -2.376430    0.595235
 C    0.998239   -0.201515    0.243504
 C    1.032517    1.156869    0.115289
 S   -0.616749   -0.838592    0.097697
 C   -1.252292    0.749642   -0.136023
 C   -0.247196    1.713253   -0.096436
 C   -0.524987    3.125157   -0.234887
 O    0.311179    4.012256   -0.213080
 N   -1.879652    3.412740   -0.393776
 C   -2.263139    4.800580   -0.537992
 C   -2.847626    2.461120   -0.419500
 C   -2.611189    1.121430   -0.301012
 C   -3.703625    0.140855   -0.325291
 C   -3.587414   -1.045878   -1.028809
 C   -4.628126   -1.962312   -1.041382
 C   -4.887317    0.402998    0.370874
 C   -5.929966   -0.502811    0.370988
 O   -7.111415   -0.336667    1.025347
 C   -7.301687    0.834679    1.777191
 C   -5.800790   -1.713662   -0.349617
 O   -6.873164   -2.545933   -0.292049
 C   -6.795947   -3.781877   -0.958213
 H    5.401152    1.162357    0.844871
 H    6.842165    0.836640    1.819416
 H    4.968263   -0.565820    2.705183
 H    6.260251   -1.544647    1.995079
 H    6.098723   -1.272768   -2.228040
 H    4.935184   -0.124748   -1.536232
 H    5.907445   -2.705606   -0.211165
 H    4.337530   -2.578284   -1.020551
 H    4.049755   -2.405648    1.364647
 H    3.457742    0.310354    0.462216
 H    1.908460    1.778197    0.170038
 H   -2.933724    5.097943    0.269221
 H   -1.352281    5.396713   -0.491185
 H   -2.756029    4.963692   -1.497037
 H   -3.852225    2.830627   -0.562390
 H   -2.693381   -1.258953   -1.592674
 H   -4.507638   -2.875031   -1.601768
 H   -4.962274    1.318567    0.935528
 H   -6.567183    0.920494    2.585200
 H   -7.256180    1.730748    1.148522
 H   -8.298651    0.748828    2.206250
 H   -6.679577   -3.651000   -2.039283
 H   -5.973345   -4.395033   -0.575966
 H   -7.741691   -4.282275   -0.756900
