56 
4uiu_ligand_dft.xyz
 O    7.296085    0.817491   -1.437641
 S    6.951489   -0.233234   -0.485330
 O    7.972653   -1.158280    0.007479
 C    6.170044    0.520230    0.951837
 C    5.542098   -0.542719    1.858839
 C    5.586110   -1.205528   -1.131841
 C    5.026087   -2.139848   -0.061350
 C    4.472888   -1.397297    1.166713
 N    3.338065   -0.550420    0.804706
 C    2.128426   -1.101097    0.482170
 O    1.959527   -2.307588    0.370120
 C    1.023586   -0.139378    0.258172
 C    1.046334    1.215902    0.109835
 S   -0.585445   -0.796469    0.109476
 C   -1.243262    0.784580   -0.139997
 C   -0.250015    1.754467   -0.110724
 C   -0.548251    3.165548   -0.265493
 O    0.272938    4.073498   -0.246304
 N   -1.911345    3.434941   -0.439395
 C   -2.263552    4.840292   -0.603984
 C   -2.875149    2.459844   -0.466448
 C   -2.619883    1.128941   -0.323306
 C   -3.717383    0.132729   -0.346279
 C   -3.662319   -0.985845   -1.166649
 C   -4.713862   -1.905751   -1.184957
 C   -4.850055    0.324797    0.463799
 C   -5.903856   -0.576045    0.446481
 O   -7.027541   -0.471690    1.193096
 C   -7.139531    0.631704    2.060939
 C   -5.835731   -1.714976   -0.390928
 O   -6.904123   -2.541859   -0.335273
 C   -6.876715   -3.701917   -1.135161
 H    5.447084    1.246325    0.567761
 H    6.966540    1.068292    1.462814
 H    5.111653   -0.049362    2.738779
 H    6.334401   -1.205561    2.219729
 H    5.995865   -1.755942   -1.983321
 H    4.836232   -0.498624   -1.498252
 H    5.813839   -2.824883    0.269240
 H    4.223307   -2.740741   -0.494856
 H    4.122832   -2.157009    1.875583
 H    3.333105    0.398585    1.147565
 H    1.931972    1.840826    0.127228
 H   -1.954953    5.406850    0.277362
 H   -1.745296    5.254121   -1.471634
 H   -3.342165    4.925647   -0.741153
 H   -3.887884    2.813118   -0.627174
 H   -2.809846   -1.145024   -1.819628
 H   -4.644776   -2.769150   -1.836204
 H   -4.875673    1.182230    1.126959
 H   -6.341060    0.635033    2.814419
 H   -7.120239    1.581663    1.510279
 H   -8.103816    0.524400    2.558566
 H   -6.821683   -3.453718   -2.203145
 H   -6.033252   -4.352882   -0.871100
 H   -7.812313   -4.224966   -0.935143
