55 
4uiw_ligand_ani.xyz
 C    3.174140    5.157814    1.888278
 C    3.181558    4.850889    0.396060
 N    2.663448    3.509579    0.084362
 C    3.524733    2.465032   -0.105513
 C    3.124810    1.181615   -0.346900
 C    4.127730    0.094176   -0.469040
 C    5.289463    0.295225   -1.222601
 C    6.249081   -0.703335   -1.334986
 C    6.077484   -1.915538   -0.673160
 C    4.934935   -2.113437    0.091578
 C    3.964159   -1.123050    0.195503
 C    4.721954   -3.404241    0.827232
 F    5.721824   -4.279902    0.627594
 F    3.578630   -4.005937    0.444549
 F    4.624398   -3.202821    2.156067
 C    1.718713    0.981824   -0.452052
 S    0.866655   -0.473923   -0.874885
 C   -0.687264    0.315492   -0.697743
 C   -0.533367    1.627901   -0.366001
 C    0.821992    2.017693   -0.242198
 C    1.270262    3.364727    0.062774
 O    0.529132    4.312789    0.275457
 C   -1.956677   -0.426231   -0.947516
 N   -2.193490   -1.203891   -1.937463
 N   -2.905194   -0.206076    0.012689
 C   -4.252674   -0.736757   -0.079898
 C   -4.858731   -0.800091    1.326696
 C   -6.234531   -1.459457    1.358013
 S   -7.395310   -0.570405    0.319460
 O   -7.484509    0.796567    0.833521
 O   -8.590328   -1.386272    0.146341
 C   -6.511167   -0.503011   -1.240841
 C   -5.114158    0.079503   -1.059810
 H    2.150453    5.173092    2.271683
 H    3.746687    4.410851    2.447158
 H    3.621892    6.140812    2.066234
 H    4.195821    4.902817   -0.009963
 H    2.560941    5.564847   -0.146419
 H    4.577732    2.719650   -0.036338
 H    5.431970    1.238847   -1.743866
 H    7.139779   -0.531488   -1.931597
 H    6.823251   -2.701175   -0.747548
 H    3.085905   -1.294669    0.810142
 H   -1.338869    2.346918   -0.239951
 H   -1.372040   -1.269212   -2.536709
 H   -2.698987    0.488543    0.712485
 H   -4.150948   -1.752953   -0.482713
 H   -4.933791    0.217172    1.732136
 H   -4.186932   -1.371489    1.976039
 H   -6.678070   -1.441885    2.357978
 H   -6.207212   -2.497002    1.008381
 H   -7.134294    0.117670   -1.891818
 H   -6.488475   -1.519780   -1.648096
 H   -4.605286    0.086625   -2.029424
 H   -5.187095    1.116591   -0.711830
