56 
4uix_ligand_ani.xyz
 O   -7.672865   -1.267624    0.440363
 S   -6.579382   -0.391502    0.862950
 O   -6.738978    0.513469    1.994485
 C   -5.146192   -1.433525    1.145490
 C   -4.769307   -2.188240   -0.124689
 C   -6.079184    0.560088   -0.573640
 C   -5.594567   -0.355586   -1.697706
 C   -4.417590   -1.250670   -1.292330
 N   -3.263160   -0.424756   -0.970321
 C   -1.999528   -0.926553   -1.023674
 O   -1.761499   -2.094453   -1.304609
 C   -0.926371    0.047685   -0.709260
 C   -0.976668    1.373075   -0.389818
 S    0.717927   -0.536835   -0.744685
 C    1.341105    1.012273   -0.275729
 C    0.302045    1.924836   -0.154460
 C    0.536676    3.321437    0.175553
 O   -0.328623    4.172450    0.305111
 N    1.889312    3.646096    0.337662
 C    2.174445    5.049732    0.647925
 C    2.893164    2.730283    0.228213
 C    2.695060    1.403247   -0.048162
 C    3.849511    0.465995   -0.063027
 C    5.061281    0.852845   -0.626787
 C    6.164267    0.001663   -0.602975
 C    3.764303   -0.799471    0.533690
 C    4.857073   -1.651168    0.578487
 O    4.848558   -2.880038    1.146796
 C    3.630353   -3.331733    1.693490
 C    6.085197   -1.244061    0.002852
 O    7.106552   -2.127052    0.091546
 C    8.348845   -1.736853   -0.452109
 H   -5.441706   -2.110910    1.951650
 H   -4.332417   -0.794763    1.502855
 H   -5.597729   -2.840108   -0.425385
 H   -3.900554   -2.821100    0.078128
 H   -5.319585    1.277759   -0.243914
 H   -6.972926    1.120557   -0.861999
 H   -5.301488    0.258690   -2.556718
 H   -6.428763   -0.986340   -2.023098
 H   -4.128958   -1.880503   -2.138124
 H   -3.396083    0.561409   -0.810641
 H   -1.862637    2.000691   -0.306884
 H    1.831562    5.689667   -0.167104
 H    1.649885    5.341125    1.559072
 H    3.250189    5.173966    0.785328
 H    3.887490    3.127849    0.408339
 H    5.155913    1.820304   -1.111858
 H    7.091614    0.336141   -1.054065
 H    2.821840   -1.100602    0.977335
 H    3.294234   -2.683077    2.513124
 H    2.846567   -3.381512    0.926797
 H    3.824619   -4.333254    2.079559
 H    8.274345   -1.556070   -1.532744
 H    8.735110   -0.833662    0.039011
 H    9.031023   -2.568045   -0.269817
