52 
4uiy_ligand_xtb.xyz
 C    3.326450    5.057757    0.808243
 N    2.778663    3.759350    0.477927
 C    3.628850    2.729106    0.257092
 C    3.228875    1.456719   -0.039848
 C    4.204700    0.385442   -0.271999
 C    5.359126    0.627333   -1.016242
 C    6.279290   -0.378424   -1.243065
 C    6.069298   -1.648912   -0.734038
 C    4.925864   -1.891509    0.013239
 C    3.996009   -0.889322    0.244774
 C    4.652097   -3.261282    0.567334
 F    3.736796   -3.926014   -0.164675
 F    4.166151   -3.219993    1.819706
 F    5.740359   -4.042363    0.607218
 C    1.826775    1.254739   -0.121681
 S    0.992822   -0.202138   -0.527801
 C   -0.554022    0.603160   -0.411247
 C   -0.412349    1.918282   -0.082588
 C    0.938049    2.304468    0.080293
 C    1.386790    3.639239    0.406757
 O    0.663954    4.597451    0.606256
 C   -1.772150   -0.172856   -0.685843
 N   -1.807338   -1.341823   -1.194036
 N   -2.941045    0.473207   -0.409874
 C   -4.206428   -0.216188   -0.541665
 C   -4.500709   -1.067590    0.702983
 C   -5.737265   -1.921385    0.525025
 S   -7.146694   -0.796319    0.307762
 O   -8.326835   -1.551975   -0.012784
 O   -7.211160    0.091708    1.437121
 C   -6.624204    0.158685   -1.149582
 C   -5.304805    0.816376   -0.805374
 H    3.961974    5.421528    0.000166
 H    2.487846    5.739743    0.945451
 H    3.906494    5.004279    1.730063
 H    4.678095    2.965759    0.356522
 H    5.523169    1.608105   -1.436883
 H    7.164447   -0.176506   -1.826178
 H    6.781387   -2.439631   -0.909803
 H    3.125706   -1.101149    0.846481
 H   -1.216351    2.623115    0.025657
 H   -0.899749   -1.726456   -1.433845
 H   -2.912934    1.234430    0.248901
 H   -4.085939   -0.881058   -1.403973
 H   -4.655893   -0.413305    1.564065
 H   -3.631858   -1.702006    0.893328
 H   -5.943625   -2.533448    1.398917
 H   -5.696662   -2.546270   -0.362047
 H   -7.404609    0.886371   -1.355502
 H   -6.549139   -0.545703   -1.972549
 H   -4.986063    1.474408   -1.617701
 H   -5.455205    1.422763    0.091048
