58 
4uiz_ligand_xtb.xyz
 C   -7.175721   -3.159215    1.974354
 O   -6.329227   -3.030792    0.860003
 C   -5.542522   -1.925882    0.769082
 C   -5.500633   -0.893681    1.690439
 C   -4.654778    0.189797    1.505121
 C   -3.835792    0.262425    0.390019
 C   -3.878958   -0.771613   -0.548239
 C   -4.710492   -1.861001   -0.373534
 O   -4.807012   -2.910747   -1.229447
 C   -3.956462   -2.940005   -2.350512
 C   -2.930373    1.401039    0.194720
 C   -3.315106    2.678245    0.487759
 N   -2.517344    3.767222    0.344928
 C   -3.050600    5.069262    0.682982
 C   -1.202070    3.702287   -0.113355
 O   -0.517173    4.706613   -0.209641
 C   -0.768768    2.361373   -0.433562
 C    0.522381    2.013260   -0.894950
 C    0.672476    0.671845   -1.078453
 S   -0.791329   -0.203837   -0.728119
 C   -1.604679    1.258622   -0.290632
 C    1.786107   -0.088060   -1.682267
 O    1.567544   -0.941043   -2.524848
 N    3.046815    0.255273   -1.305496
 C    4.167061   -0.416294   -1.935493
 C    4.838832   -1.367166   -0.944735
 N    5.228823   -0.600543    0.217877
 C    4.096489    0.002334    0.878114
 C    3.407708    0.964106   -0.100300
 S    6.430911   -1.219595    1.206851
 C    7.625891    0.136475    1.149950
 O    7.011509   -2.361845    0.569126
 O    5.947879   -1.338397    2.551341
 H   -6.608520   -3.193677    2.910642
 H   -7.906429   -2.344710    2.022622
 H   -7.699658   -4.103722    1.837155
 H   -6.120190   -0.923905    2.572339
 H   -4.621915    0.966678    2.253535
 H   -3.266964   -0.698898   -1.431635
 H   -4.166975   -2.113988   -3.037857
 H   -2.902025   -2.909122   -2.058444
 H   -4.165787   -3.884148   -2.850507
 H   -4.314281    2.881502    0.842710
 H   -3.915530    5.301279    0.060549
 H   -3.341142    5.102689    1.733706
 H   -2.263765    5.800572    0.500212
 H    1.277002    2.750768   -1.099846
 H    4.884199    0.342198   -2.264412
 H    3.784391   -0.967265   -2.795567
 H    5.737319   -1.814832   -1.365969
 H    4.137613   -2.169019   -0.674128
 H    4.457046    0.533322    1.758148
 H    3.378404   -0.763478    1.205956
 H    2.522507    1.387505    0.370696
 H    4.100671    1.770957   -0.362476
 H    8.471642   -0.136015    1.767890
 H    7.927998    0.261508    0.119607
 H    7.144904    1.025786    1.532871
