44 
4ujb_ligand_ani.xyz
 F    1.533492    3.678460   -0.466495
 C    2.502156    2.756546   -0.307315
 C    3.791185    3.187961   -0.036519
 C    4.790673    2.233394    0.125473
 C    4.501817    0.878385    0.022631
 C    3.195474    0.464013   -0.249321
 C    2.181945    1.412269   -0.419381
 C    2.917797   -1.001644   -0.312216
 O    3.798785   -1.808326   -0.040621
 C    1.511202   -1.482730   -0.627357
 C    1.560921   -2.966072   -0.958152
 N    1.830171   -3.532219    0.384373
 C    0.888773   -2.833956    1.307761
 C    0.663102   -1.435423    0.678687
 C   -0.785989   -1.071291    0.423103
 C   -1.212870    0.229719    0.685335
 C   -2.522364    0.634482    0.402716
 C   -3.415186   -0.288580   -0.166903
 C   -2.985966   -1.586403   -0.434378
 C   -1.690834   -1.980231   -0.141034
 C   -4.803127    0.127774   -0.503694
 O   -5.615676   -0.599037   -1.049193
 N   -5.103507    1.436605   -0.178115
 C   -4.363550    2.125931    0.862394
 N   -2.943852    1.944656    0.618044
 H    3.994224    4.250797    0.042594
 H    5.807444    2.552416    0.338026
 H    5.275567    0.128728    0.153753
 H    1.155701    1.131917   -0.641155
 H    1.083559   -0.873765   -1.425374
 H    2.350357   -3.223096   -1.661046
 H    0.602593   -3.318171   -1.351433
 H    1.771402   -4.553334    0.426026
 H    2.803616   -3.220592    0.602506
 H    1.325291   -2.779701    2.306998
 H   -0.049761   -3.386005    1.389122
 H    1.061476   -0.655919    1.338264
 H   -0.519095    0.953079    1.115012
 H   -3.700489   -2.276556   -0.872810
 H   -1.396194   -3.006535   -0.343921
 H   -6.082580    1.663361   -0.298995
 H   -4.596394    3.191793    0.814699
 H   -4.647188    1.746737    1.862116
 H   -2.336475    2.459443    1.241481
