42 
4unn_ligand_ani.xyz
 C   -0.289204    1.559013    1.675345
 C   -4.516214   -2.011785   -1.643142
 C   -3.583487   -1.086269   -2.109172
 C    2.088750   -1.001024   -0.370841
 C    2.895963    1.268717   -0.258009
 C    3.378644   -1.475725   -0.196300
 C    4.188494    0.799975   -0.101022
 C   -4.697560   -2.201338   -0.283195
 C   -2.995560   -0.540648    0.169639
 C    1.827071    0.377277   -0.397239
 C   -2.830074   -0.352513   -1.200184
 C    4.437931   -0.572800   -0.065856
 C   -3.935539   -1.461813    0.627538
 C   -0.388377    0.269657   -1.453595
 C   -0.027405    1.995149    0.285146
 C    0.446123    0.866920   -0.591466
 C   -1.800127    0.686191   -1.677625
 C   -1.261989    2.713231   -0.256098
 C    5.842573   -1.016654    0.111394
 C   -3.442247   -0.936370    2.872104
 N   -0.484300    1.246718    2.771615
 N   -2.066801    1.991047   -1.076539
 O   -1.510711    3.860178    0.064116
 O    6.791804   -0.274759    0.228535
 O    5.981232   -2.358648    0.132018
 O   -4.178571   -1.701736    1.943484
 H   -5.108798   -2.585969   -2.350887
 H   -3.443340   -0.935113   -3.177264
 H    1.263713   -1.705772   -0.460959
 H    2.710083    2.339592   -0.297728
 H    3.575148   -2.542917   -0.169382
 H    5.025028    1.483918    0.002606
 H   -5.420995   -2.912200    0.105600
 H   -2.375093    0.038391    0.852785
 H   -0.063590   -0.580337   -2.044219
 H    0.735480    2.775044    0.373454
 H   -1.960897    0.781080   -2.762354
 H   -3.620753    0.137833    2.728854
 H   -2.366801   -1.136965    2.791238
 H   -3.794394   -1.235315    3.860745
 H   -2.925589    2.455236   -1.339853
 H    6.931889   -2.516276    0.252082
