45 
4uns_ligand_dft.xyz
 C   -0.166314    2.852481   -0.026579
 C   -0.819069   -0.070785    1.489593
 C   -0.958065   -0.221943   -0.907052
 C   -2.112173   -0.562567    1.594621
 C   -2.240924   -0.742402   -0.811958
 C    4.790900    0.218116    0.049116
 C   -0.235360    0.112139    0.237290
 C    2.357203    0.060954    0.137389
 C    3.535417    0.834653    0.032240
 C   -2.833628   -0.891548    0.444803
 C    4.846328   -1.153706    0.167200
 C    2.534831   -1.352552    0.246871
 C    1.077039    2.139187   -0.007787
 C    1.094678    0.775357    0.118901
 C    2.293208    2.953585   -0.123993
 C    1.406594   -2.347602    0.353268
 C    6.312588   -2.760445   -1.092423
 C   -5.282245    1.074438   -0.034079
 C    6.152430   -1.903339    0.168254
 N   -1.187916    3.399699   -0.038819
 N    3.736251   -1.912357    0.260432
 N    3.454713    2.197174   -0.087486
 N   -4.160892   -1.362885    0.564452
 O    2.327611    4.162613   -0.237655
 O   -6.621713   -1.178718    0.341911
 O   -5.177590   -0.923846   -1.726455
 S   -5.426704   -0.686173   -0.317512
 H   -0.271281    0.201365    2.386936
 H   -0.512778   -0.074746   -1.886563
 H   -2.571892   -0.669140    2.573503
 H   -2.795614   -1.013042   -1.702572
 H    5.696366    0.812258   -0.030441
 H    0.803839   -2.191035    1.251667
 H    0.726946   -2.293690   -0.500877
 H    1.852577   -3.341888    0.393392
 H    5.477362   -3.460790   -1.179444
 H    6.331673   -2.135582   -1.991496
 H    7.244441   -3.332333   -1.053524
 H   -6.051586    1.558045   -0.638822
 H   -5.448069    1.277321    1.024901
 H   -4.292202    1.414732   -0.344988
 H    6.171686   -2.551508    1.051449
 H    6.986412   -1.198850    0.257866
 H    4.307873    2.736907   -0.163456
 H   -4.470673   -1.575184    1.506138
