20 
4up5_ligand_ani.xyz
 C   -2.069156    0.307569    0.007358
 O   -3.412577    0.120070    0.008450
 C   -3.879593   -1.210822   -0.008896
 C   -1.136552   -0.725098    0.006775
 C    0.211161   -0.368912    0.001949
 C    0.644175    0.962233   -0.001208
 C   -0.315691    1.981781    0.002595
 C   -1.654852    1.654107    0.006846
 N    2.020749    1.156036   -0.011583
 C    2.626085    0.017313   -0.009096
 N    3.991234   -0.117626   -0.062739
 S    1.606610   -1.424466   -0.005664
 H   -3.538812   -1.743663   -0.905978
 H   -3.555351   -1.761344    0.883646
 H   -4.968688   -1.148490   -0.018448
 H   -1.431479   -1.768111    0.009756
 H    0.010334    3.018299    0.001309
 H   -2.422921    2.421718    0.008708
 H    4.474288    0.751693    0.119840
 H    4.390141   -0.917106    0.406506
