54 
4urk_ligand_dft.xyz
 C   -0.655971    3.235582   -0.176172
 C    0.680713    3.305865   -0.398891
 N    1.513126    2.247317   -0.126320
 C    1.049456    1.058789    0.387223
 N    1.832311    0.030052    0.645824
 C    3.162509    0.138740    0.404488
 C    3.723354    1.299761   -0.118580
 C    2.935626    2.433063   -0.413944
 O    3.293923    3.507652   -0.871044
 N    3.903841   -0.966588    0.742382
 C    5.269052   -1.160302    0.274640
 C    5.259717   -2.024128   -0.986024
 O    4.626610   -3.262973   -0.740956
 C    3.298515   -3.094078   -0.283323
 C    3.253111   -2.250587    0.988352
 C   -0.362226    0.958185    0.636320
 C   -1.169541    2.017519    0.354522
 C   -0.891481   -0.345788    1.218395
 C   -0.621507   -0.412306    2.723758
 C   -1.573146    4.386965   -0.483928
 N   -2.306820   -0.519531    0.988889
 C   -2.869111   -0.817787   -0.216447
 C   -4.818905   -1.321154   -1.605558
 C   -4.273622   -1.015918   -0.348430
 C   -4.026581   -1.432336   -2.731285
 C   -2.077634   -0.931482   -1.381537
 C   -2.648896   -1.233800   -2.602435
 C   -5.156984   -0.903251    0.819088
 O   -6.457351   -1.127272    0.544924
 O   -4.812980   -0.631328    1.961111
 H    1.200165    4.166358   -0.800959
 H    4.777381    1.414295   -0.322773
 H    5.824364   -1.680785    1.064029
 H    5.766521   -0.207743    0.098182
 H    6.277896   -2.253370   -1.311471
 H    4.742462   -1.480920   -1.794349
 H    2.903145   -4.097287   -0.103622
 H    2.686135   -2.606742   -1.060110
 H    2.227962   -2.081563    1.311892
 H    3.802243   -2.761368    1.788397
 H   -2.238008    1.919945    0.530101
 H   -0.338036   -1.166044    0.744842
 H   -1.149753    0.394580    3.243788
 H   -0.959118   -1.371656    3.127971
 H    0.449273   -0.306117    2.910487
 H   -2.095012    4.725343    0.418060
 H   -1.021616    5.236924   -0.894259
 H   -2.335620    4.092934   -1.213545
 H   -2.944720   -0.473369    1.774139
 H   -5.890133   -1.469847   -1.678804
 H   -4.466550   -1.665618   -3.694556
 H   -1.007729   -0.769718   -1.320706
 H   -2.007170   -1.311901   -3.475745
 H   -6.921612   -1.023044    1.389917
