80 
4uro_ligand_xtb.xyz
 C    8.674861   -0.144241    2.180836
 O    7.279107   -0.304052    2.100274
 N    8.703822    3.129169   -0.880375
 C    7.506740    2.565162   -0.601794
 O    6.455414    3.143908   -0.594566
 O    7.662191    1.237916   -0.353843
 C    6.787461   -0.683422    0.835546
 C    6.459078    0.517522   -0.060821
 C    5.856436    0.025572   -1.382764
 O    6.789296   -0.714491   -2.125417
 C    4.648870   -0.879160   -1.101637
 O    4.918981   -1.889200   -0.191078
 C    5.514819   -1.540421    1.062098
 C    5.926170   -2.878213    1.680328
 C    4.530851   -0.826510    1.991809
 O    3.608144   -0.014652   -0.716405
 C    2.327349   -0.488591   -0.642071
 C    1.346332    0.479285   -0.409201
 C    1.709197    1.920952   -0.237597
 C    0.016329    0.065317   -0.331605
 C   -0.341178   -1.280998   -0.484144
 C    0.668453   -2.222136   -0.700914
 C    1.985094   -1.835256   -0.777246
 O   -0.920456    1.024922   -0.111331
 C   -2.231761    0.725854   -0.043147
 O   -3.031492    1.628581    0.142892
 C   -2.649470   -0.656686   -0.195635
 C   -1.735372   -1.658998   -0.413482
 O   -2.015550   -2.941536   -0.567519
 N   -4.047054   -0.750693   -0.086751
 C   -4.920332   -1.761807   -0.254833
 O   -4.580891   -2.926139   -0.486586
 C   -6.343943   -1.383878   -0.120427
 C   -6.791638   -0.067362   -0.200562
 C   -8.126983    0.260021   -0.058181
 C   -9.052159   -0.767943    0.158602
 O  -10.365055   -0.448492    0.298710
 C   -8.616593   -2.088955    0.219875
 C   -7.279828   -2.396408    0.081624
 C   -8.545571    1.708028   -0.111610
 C   -7.716469    2.511829    0.851604
 C   -6.627715    3.224968    0.587249
 C   -5.868211    3.915277    1.681588
 C   -6.014086    3.420224   -0.766889
 H    9.195597   -1.055522    1.863139
 H    8.892831    0.050670    3.229570
 H    9.026299    0.695436    1.574576
 H    9.553408    2.604332   -0.779290
 H    8.746216    4.124528   -1.004818
 H    7.529800   -1.301201    0.307331
 H    5.759595    1.197283    0.434880
 H    5.505458    0.896421   -1.958588
 H    7.628847   -0.236196   -2.100183
 H    4.390509   -1.406877   -2.032928
 H    6.473826   -2.699358    2.600141
 H    5.040545   -3.468800    1.893510
 H    6.549703   -3.430293    0.982421
 H    5.018352   -0.647909    2.944930
 H    3.656567   -1.456013    2.140099
 H    4.206577    0.123120    1.579268
 H    2.610842    2.149403   -0.798504
 H    0.891687    2.555833   -0.566662
 H    1.901376    2.134098    0.813421
 H    0.389225   -3.257919   -0.804504
 H    2.755684   -2.574173   -0.921423
 H   -3.020228   -3.086181   -0.544357
 H   -4.416729    0.174542    0.129079
 H   -6.110941    0.746890   -0.391687
 H  -10.882510   -1.250390    0.440750
 H   -9.339011   -2.878474    0.382224
 H   -6.940003   -3.419064    0.133450
 H   -9.599742    1.782295    0.155943
 H   -8.427689    2.076864   -1.132351
 H   -8.043925    2.433333    1.880630
 H   -4.843879    3.544331    1.700288
 H   -6.323971    3.744207    2.653383
 H   -5.827458    4.988408    1.497631
 H   -4.989253    3.047823   -0.754256
 H   -5.969341    4.483865   -1.000695
 H   -6.563543    2.917081   -1.557190
