31 
4urz_ligand_ani.xyz
 C    3.619523   -0.738727   -0.256625
 N    4.832292   -1.416433   -0.331549
 O   -0.517008    2.206477   -1.184798
 S   -0.370956    1.425079    0.034839
 C    2.676463   -0.851220   -1.288853
 N   -1.534520    0.198187   -0.060311
 O   -0.433612    2.055995    1.339416
 C    1.449102   -0.215474   -1.187424
 O   -0.621779   -0.836876    1.753065
 C    1.149857    0.529866   -0.054436
 C    2.069849    0.649954    0.980043
 C    3.298508    0.017679    0.880138
 C   -2.651026    0.439982   -0.997599
 C   -3.418769   -0.842608   -1.265741
 C   -3.827722   -1.463770    0.063396
 C   -2.584623   -1.843653    0.858481
 C   -1.504908   -0.782425    0.924135
 H    5.150688   -1.624719   -1.267239
 H    5.573311   -1.033053    0.238011
 H    2.918063   -1.443190   -2.168351
 H    0.724619   -0.289025   -1.995477
 H    1.801967    1.234370    1.855267
 H    4.022688    0.099774    1.687112
 H   -2.218961    0.852527   -1.912382
 H   -3.312827    1.205593   -0.569905
 H   -2.789178   -1.534793   -1.836982
 H   -4.291913   -0.610713   -1.884468
 H   -4.451140   -2.350757   -0.091054
 H   -4.432051   -0.743691    0.631506
 H   -2.103120   -2.724635    0.412863
 H   -2.819582   -2.113622    1.892147
