31 
4uvv_ligand_dft.xyz
 C   -0.906816    0.764725    0.050342
 C   -2.332463    0.542822    0.047098
 C   -3.261199    1.608517    0.153385
 C   -2.788247    3.035423    0.267657
 C   -4.614797    1.312641    0.149579
 C   -5.086713   -0.002483    0.044412
 C   -4.189637   -1.045180   -0.058959
 C   -2.815752   -0.777634   -0.055741
 C   -1.887115   -1.913845   -0.177124
 O   -2.215419   -3.083941   -0.298010
 N   -0.544209   -1.561771   -0.161849
 C   -0.048619   -0.277451   -0.056012
 C    1.422910   -0.133502   -0.035494
 C    2.224597   -1.042199    0.663539
 C    3.606363   -0.899245    0.693462
 C    4.193193    0.164453    0.017552
Cl    5.928826    0.350516    0.048211
 C    3.418360    1.081225   -0.685124
 C    2.038807    0.924633   -0.710781
 H   -0.506417    1.761772    0.181672
 H   -2.174360    3.185761    1.163535
 H   -2.182454    3.329343   -0.597534
 H   -3.636226    3.722767    0.327820
 H   -5.330408    2.127309    0.229994
 H   -6.155086   -0.194259    0.045014
 H   -4.513478   -2.076881   -0.143677
 H    0.091055   -2.331871   -0.324215
 H    1.767514   -1.855663    1.220168
 H    4.222459   -1.600946    1.244652
 H    3.891616    1.899695   -1.216127
 H    1.431332    1.620746   -1.280606
