34 
4uvw_ligand_ani.xyz
 C   -0.308414   -1.974954    0.905730
 C    0.186463   -0.674665    0.311843
 C    1.594805   -0.397157    0.087266
 C    2.613688   -1.398149   -0.007652
 C    2.344932   -2.877613   -0.119560
 C    3.934261   -0.992038   -0.036789
 C    4.317188    0.353217   -0.057677
 C    3.340554    1.321923   -0.084374
 C    1.999026    0.959592   -0.046267
 C    1.008624    2.055423   -0.142323
 O    1.288526    3.236285   -0.265661
 N   -0.300469    1.640063   -0.097175
 C   -0.712439    0.320581    0.054962
 C   -2.171330    0.108549   -0.037419
 C   -2.700457   -0.860861   -0.895205
 C   -4.074224   -1.061754   -0.968948
 C   -4.936182   -0.307625   -0.177532
 C   -4.416264    0.658383    0.681711
 C   -3.044940    0.875100    0.741199
 H   -1.283626   -1.832959    1.384123
 H   -0.446278   -2.751467    0.144561
 H    0.376543   -2.359421    1.665186
 H    2.107126   -3.330391    0.848267
 H    1.523602   -3.096621   -0.807289
 H    3.232870   -3.396722   -0.493153
 H    4.707064   -1.758728   -0.061685
 H    5.369520    0.622589   -0.081131
 H    3.581051    2.379174   -0.142766
 H   -0.996089    2.362957   -0.233259
 H   -2.027384   -1.452352   -1.512618
 H   -4.471786   -1.815675   -1.641836
 H   -6.009243   -0.471203   -0.230273
 H   -5.082712    1.255315    1.299574
 H   -2.637339    1.627065    1.414032
