32 
4uvy_ligand_ani.xyz
 C    4.842910   -0.595817    0.026019
 C    4.496233    0.763571   -0.063832
 C    3.170822    1.146794   -0.082285
 C    2.132240    0.162251   -0.005943
 C    2.519722   -1.187164    0.075221
 C    3.863736   -1.561282    0.094077
 C    1.495414   -2.253015    0.146064
 N    0.192423   -1.797272    0.080496
 O    1.734698   -3.443596    0.248430
 C   -1.659107   -0.215053    0.021635
 C   -2.188308    0.842245    0.764575
 C   -3.552828    1.102528    0.762601
 C   -4.393542    0.308097   -0.008657
 C   -3.888961   -0.741546   -0.769925
 C   -2.525914   -1.002156   -0.743855
Cl   -6.102673    0.633774   -0.025909
 C   -0.199647   -0.468572    0.037756
 C    0.739772    0.510679   -0.006357
 C    3.737768    3.438389   -0.260880
 O    2.748835    2.432520   -0.171974
 H    5.893516   -0.874315    0.039886
 H    5.289347    1.502257   -0.118338
 H    4.100879   -2.618177    0.162345
 H   -0.512323   -2.516923    0.184536
 H   -1.527053    1.457023    1.370574
 H   -3.962938    1.919134    1.347705
 H   -4.559953   -1.352084   -1.366568
 H   -2.124296   -1.810162   -1.350197
 H    0.454515    1.552508   -0.067377
 H    4.378837    3.446620    0.629530
 H    4.360496    3.306924   -1.154680
 H    3.197320    4.382853   -0.329353
