44 
4ux6_ligand_ani.xyz
 C   -2.655338   -1.818970    0.336307
 N   -0.573611   -1.162945   -0.774332
 O   -1.759851    1.471522   -1.085527
 C   -1.931329   -0.839574   -0.326778
 N    2.497487   -1.033544    1.563233
 O    0.170975   -1.721237    0.031791
 C   -2.486418    0.423325   -0.562346
 N    2.762231   -0.912006   -1.267556
 O   -0.239790   -0.858634   -1.903711
 C   -3.811726    0.650679   -0.228373
 O    4.443980   -2.020814   -0.273023
 C   -4.572561   -0.340824    0.398174
 C   -3.974922   -1.568974    0.688692
 C   -0.562941    1.743826   -0.461339
 C    0.512669    2.132057   -1.255106
 C    1.781509    2.172012   -0.692788
 C    1.979729    1.790160    0.639877
 C    0.858945    1.664512    1.463972
 C   -0.414846    1.613952    0.917373
 C   -6.009164   -0.070237    0.763973
 C    3.331201    1.346671    1.135147
 C    3.598631   -0.168280    1.014457
 C    3.931852   -0.705018   -0.392305
 H   -2.173236   -2.765990    0.552045
 H    1.572899   -0.818282    1.143283
 H    2.760533   -2.020935    1.368555
 H    2.422074   -0.928066    2.593444
 H    3.096797   -1.271881   -2.183203
 H    2.126136   -1.634833   -0.881324
 H    2.249741   -0.030833   -1.445291
 H   -4.232740    1.629028   -0.440608
 H    5.321948   -1.982044    0.135892
 H   -4.549119   -2.341414    1.195706
 H    0.347466    2.319925   -2.311529
 H    2.633689    2.453381   -1.309322
 H    0.984899    1.523391    2.535733
 H   -1.280807    1.419452    1.540966
 H   -6.610655    0.140947   -0.127778
 H   -6.458205   -0.924080    1.278691
 H   -6.090300    0.801671    1.423436
 H    4.124529    1.857831    0.579524
 H    3.442347    1.624830    2.189913
 H    4.495552   -0.371418    1.606653
 H    4.639454   -0.039814   -0.884071
