26 
4uy1_ligand_ani.xyz
 C   -6.093911   16.893560  -32.865246
 C   -6.457264   18.334136  -32.694265
 C   -5.631999   19.393907  -32.519706
 C   -6.321814   20.650505  -32.384205
 C   -7.680111   20.501719  -32.471147
 C   -8.749107   21.546065  -32.412810
 S   -8.113447   18.845466  -32.695221
 C   -5.686563   21.943628  -32.144280
 C   -6.048656   23.036451  -31.373599
 C   -5.011916   23.981400  -31.546361
 N   -4.073490   23.520475  -32.366175
 N   -4.486272   22.296335  -32.691995
 C   -4.896542   25.347175  -30.942167
 O   -4.272639   26.256291  -31.448943
 N   -5.602747   25.488899  -29.773804
 H   -6.534815   16.276106  -32.075148
 H   -6.446202   16.506608  -33.827701
 H   -5.007436   16.772624  -32.826791
 H   -4.552867   19.286073  -32.461408
 H   -9.594270   21.281779  -33.054075
 H   -9.135499   21.651456  -31.390629
 H   -8.363605   22.522865  -32.722548
 H   -6.949150   23.145104  -30.786180
 H   -3.950316   21.770293  -33.367860
 H   -5.440316   26.349489  -29.270014
 H   -5.826047   24.675591  -29.220722
