26 
4uyd_ligand_ani.xyz
 C   -2.990985   -2.071316   -0.053092
 N   -2.115526   -0.923611   -0.017862
 C   -0.732822   -0.885263   -0.040342
 C    0.227259   -1.888217   -0.103560
 C    1.558989   -1.500816   -0.102139
 C    1.931052   -0.147419   -0.036671
 C    0.967463    0.856452   -0.005731
 C   -0.359804    0.470442    0.003636
 N   -1.522631    1.215560    0.048578
 C   -1.638647    2.653106    0.096926
 C   -2.624849    0.367817    0.038987
 O   -3.799220    0.681442    0.072789
 C    3.362818    0.287830   -0.039652
 N    4.282990   -0.648333    0.365927
 O    3.698136    1.402719   -0.399904
 H   -3.617921   -2.095713    0.841681
 H   -3.641859   -2.023161   -0.929690
 H   -2.393569   -2.983888   -0.098650
 H   -0.046708   -2.939379   -0.147144
 H    2.327379   -2.265497   -0.184873
 H    1.280007    1.897488    0.002572
 H   -1.161978    3.051350    0.997822
 H   -1.178497    3.109346   -0.784841
 H   -2.703646    2.889775    0.114437
 H    5.219735   -0.288733    0.481996
 H    4.009046   -1.385884    0.996932
