55 
4uye_ligand_xtb.xyz
 C    3.712085    1.077931   -2.074893
 O    2.999162    0.218475   -1.217074
 C    3.670366   -0.777782   -0.561003
 C    5.058102   -0.873019   -0.560384
 C    5.700496   -1.900767    0.107605
 C    4.967170   -2.861089    0.779281
 C    3.589279   -2.775745    0.777136
 C    2.916299   -1.744638    0.127684
 C    1.421803   -1.808732    0.207281
 O    0.861865   -2.858806    0.470795
 N    0.778218   -0.629463    0.026116
 C   -0.594252   -0.375586    0.051298
 C   -1.541118   -1.390837   -0.028226
 C   -2.870942   -1.022848   -0.063247
 N   -4.023048   -1.773922   -0.144633
 C   -4.108295   -3.205937   -0.203209
 C   -5.118122   -0.938662   -0.163146
 O   -6.283647   -1.268075   -0.226812
 N   -4.634798    0.353684   -0.095414
 C   -5.479293    1.513473   -0.077860
 C   -3.258325    0.325836   -0.030139
 C   -2.322171    1.336910    0.070350
 C   -0.977271    0.983214    0.124344
 N    0.061970    1.936761    0.222266
 C    0.685061    2.034629    1.534632
 C    2.054384    2.695303    1.400048
 C    1.899933    4.078009    0.773439
 C    1.149644    3.955979   -0.549310
 C   -0.188576    3.251502   -0.330824
 H    4.391258    1.733180   -1.519373
 H    4.275885    0.519343   -2.826996
 H    2.955028    1.682881   -2.572290
 H    5.653846   -0.140674   -1.082004
 H    6.779300   -1.945842    0.093292
 H    5.463138   -3.668636    1.294618
 H    2.986517   -3.517191    1.279532
 H    1.326039    0.194405   -0.191652
 H   -1.229295   -2.419504   -0.065869
 H   -3.632366   -3.582998   -1.110911
 H   -3.622357   -3.652557    0.666034
 H   -5.165509   -3.468436   -0.209770
 H   -6.508905    1.163155   -0.143426
 H   -5.344602    2.075924    0.849019
 H   -5.260392    2.163644   -0.927973
 H   -2.627795    2.369393    0.116994
 H    0.782503    1.035220    1.962254
 H    0.057888    2.634104    2.217742
 H    2.689038    2.074856    0.765376
 H    2.523096    2.770410    2.382519
 H    2.878432    4.534724    0.613212
 H    1.336156    4.722548    1.452411
 H    1.744842    3.370424   -1.251331
 H    0.977407    4.942317   -0.983346
 H   -0.812063    3.871762    0.336500
 H   -0.710066    3.132519   -1.283320
