62 
4v25_ligand_ani.xyz
 C   -4.719936    2.515613    2.313807
 C   -4.096731    3.300644    1.188774
 C   -4.606380    4.547558    0.850081
 N   -4.150457    5.302811   -0.148158
 C   -3.165314    4.757814   -0.841986
Cl   -2.556839    5.695979   -2.167788
 N   -2.595181    3.580610   -0.656015
 C   -3.018509    2.865777    0.395550
 C   -2.304803    1.587481    0.632738
 C   -1.931010    1.159961    1.910599
 C   -1.284000   -0.052003    2.090247
 C   -1.966711    0.787152   -0.460729
 C   -1.352690   -0.442741   -0.285624
 C   -1.022424   -0.880332    0.999211
 N   -0.390205   -2.137930    1.217880
 C   -0.745837   -3.307660    0.550671
 O    0.057347   -4.210517    0.403334
 C   -2.164385   -3.415680    0.085172
 C   -3.229383   -3.071116    0.918971
 C   -4.546472   -3.250543    0.538514
 C   -4.817914   -3.763985   -0.729745
 O   -6.123202   -3.924289   -1.071080
 C   -3.779141   -4.087319   -1.596992
 C   -2.455963   -3.909076   -1.190969
 O   -1.425469   -4.179599   -2.025197
 C    0.950387   -2.106110    1.816779
 C    2.019116   -1.596665    0.867486
 C    2.347892   -0.241412    0.827802
 C    3.332348    0.228862   -0.032422
 C    2.673950   -2.472628   -0.000002
 C    3.649750   -1.999456   -0.868598
 C    3.992731   -0.648206   -0.894497
 C    5.088416   -0.135210   -1.803589
 N    6.354297    0.056898   -1.108292
 C    6.631402    1.241930   -0.516118
 O    5.986031    2.265299   -0.644839
 C    7.908342    1.253365    0.330590
 F    8.350057   -0.022300    0.557021
 F    7.632474    1.829706    1.520200
 H   -4.187213    2.670779    3.258098
 H   -5.753049    2.836586    2.472210
 H   -4.715963    1.443216    2.102129
 H   -5.437288    4.967180    1.417255
 H   -2.125581    1.781012    2.781490
 H   -1.006466   -0.375489    3.089169
 H   -2.203702    1.133045   -1.462811
 H   -1.121576   -1.066097   -1.147668
 H   -3.004510   -2.652921    1.896492
 H   -5.372531   -2.997987    1.193777
 H   -6.176467   -4.283050   -1.966331
 H   -3.993243   -4.475691   -2.594328
 H   -1.779019   -4.495492   -2.867273
 H    1.174831   -3.123765    2.144560
 H    0.908121   -1.466030    2.703862
 H    1.819744    0.455302    1.476559
 H    3.601313    1.282743   -0.036613
 H    2.407094   -3.526326    0.000956
 H    4.154599   -2.693058   -1.538369
 H    4.815906    0.838791   -2.218115
 H    5.258084   -0.825479   -2.634916
 H    6.841435   -0.757683   -0.763329
 H    8.711744    1.812169   -0.159377
