45 
4v27_ligand_ani.xyz
 C   -1.314323    1.118073    0.773542
 C   -2.413518    0.417264    1.573945
 C   -2.715861   -0.959187    0.995094
 C   -2.996314   -0.829764   -0.499870
 C   -1.770707   -0.209158   -1.145562
 C   -1.858579   -0.057663   -2.648658
 O   -3.564676    1.228307    1.491543
 O   -3.856423   -1.449537    1.678500
 O   -3.252298   -2.115237   -1.051168
 O   -1.591316    1.105726   -0.605329
 O   -0.557698    0.333527   -3.098578
 O    3.138739    1.045918    2.266077
 C    2.263140    0.387558    1.357013
 C    1.088864    1.289683    0.939365
 O   -0.093747    0.486386    1.057374
 C    1.304476    1.891779   -0.458713
 N    1.548037    0.875929   -1.533916
 C    2.219934   -0.357549   -1.028424
 C    3.120211   -0.050353    0.168455
 C    3.999436   -1.231708    0.541873
 O    3.157030   -2.329474    0.855486
 H   -1.276065    2.174943    1.068391
 H   -2.072188    0.308109    2.614124
 H   -1.856288   -1.628657    1.147961
 H   -3.852149   -0.154428   -0.640783
 H   -0.896159   -0.834019   -0.914745
 H   -2.602245    0.713124   -2.888799
 H   -2.155826   -1.009594   -3.105366
 H   -4.290532    0.674397    1.814483
 H   -4.083123   -2.293260    1.263608
 H   -4.202658   -2.188582   -1.187520
 H   -0.617457    0.607436   -4.022576
 H    2.741999    0.995673    3.144170
 H    1.822331   -0.510177    1.799703
 H    1.023886    2.122955    1.654872
 H    2.169577    2.556598   -0.386252
 H    0.446175    2.497735   -0.742800
 H    2.168188    1.304151   -2.244152
 H    0.652797    0.645104   -2.020959
 H    1.453673   -1.070258   -0.716808
 H    2.790488   -0.819209   -1.838823
 H    3.793065    0.780492   -0.072119
 H    4.628500   -0.954276    1.398554
 H    4.657775   -1.478914   -0.306786
 H    3.701631   -3.029763    1.231873
