51 
4w4v_ligand_dft.xyz
 C    2.194994    3.952878   -0.346719
 C   -4.285168    1.061848    0.394311
 C    1.050241    3.162044   -0.369013
 C    1.160173    1.791812   -0.144082
 C    2.408136    1.211238    0.069674
 C   -2.035037    0.203179    0.018656
 C   -1.281516    1.351589    0.097808
 C   -6.286093   -2.859172    1.307496
 C   -7.382987   -3.118688    0.491792
 C   -5.713977   -1.593517    1.327744
 C   -6.199748   -0.570405    0.503786
 C   -7.309301   -0.850555   -0.306522
 C    8.451166   -1.203115    0.622193
 C    7.413922   -0.277231    0.591603
 N    8.397682   -2.436273    0.121627
 C   -1.105285   -0.824796   -0.254451
 C    7.207132   -4.207420   -1.016581
 C    7.247423   -2.810176   -0.457077
 C    6.146069   -1.966135   -0.541931
 C    6.219972   -0.673792   -0.011594
 N    5.082190    0.135334   -0.113124
 C    4.928985    1.445747    0.279777
 O    5.823870    2.123997    0.751305
 C    3.551952    2.006383    0.057804
 C    3.442923    3.385313   -0.129131
 N    0.010115    0.969202   -0.126581
 N   -3.410279    0.025627    0.184257
 O   -3.943003    2.229129    0.466963
 N   -5.622452    0.707615    0.519275
 C   -7.903272   -2.106828   -0.306924
Cl   -7.969011    0.400600   -1.330933
 N    0.127654   -0.352555   -0.341811
 H    2.106346    5.021538   -0.513428
 H    0.083701    3.611052   -0.570290
 H    2.444630    0.146859    0.273041
 H   -1.574462    2.362986    0.317390
 H   -5.887053   -3.635931    1.951754
 H   -7.841829   -4.101647    0.480956
 H   -4.892687   -1.372215    2.002107
 H    9.394764   -0.922548    1.086189
 H    7.527251    0.710874    1.011841
 H   -1.291880   -1.881395   -0.394910
 H    7.988632   -4.331225   -1.772736
 H    7.405989   -4.934957   -0.223478
 H    6.239437   -4.438627   -1.470720
 H    5.232564   -2.313842   -1.018500
 H    4.304320   -0.278324   -0.606076
 H    4.342046    3.990802   -0.104174
 H   -3.777793   -0.891595   -0.018928
 H   -6.233523    1.505506    0.415812
 H   -8.762801   -2.286381   -0.943350
