51 
4w4x_ligand_dft.xyz
 C    2.167381    4.010924   -0.442071
 C    6.675086   -4.454844   -0.865497
 C    6.784650   -3.056433   -0.318312
 C    5.741694   -2.146439   -0.447766
 C    5.879385   -0.854879    0.071643
 N    4.798623    0.022518   -0.075243
 C    4.716347    1.345020    0.298081
 O    5.637278    1.971686    0.790487
 C    3.385191    1.988239    0.026136
 C    3.369666    3.368802   -0.179325
 C    0.975985    3.293574   -0.491400
 C    0.991714    1.922025   -0.248390
 C    2.193523    1.266951    0.010667
 N   -0.207705    1.173752   -0.257553
 C   -1.479594    1.639044   -0.079070
 C   -2.300974    0.538774   -0.166198
 N   -3.688197    0.451958   -0.042357
 C   -4.503909    1.543984    0.129296
 O   -4.090530    2.689993    0.196956
 N   -5.855790    1.264879    0.220501
 C   -6.495893    0.003890    0.190259
 C   -7.494352   -0.248297   -0.753870
 C   -8.155564   -1.470255   -0.774102
 C   -7.786300   -2.446159    0.139884
 F   -8.408287   -3.632414    0.112498
 C   -6.793646   -2.226959    1.082915
 C   -6.162032   -0.988811    1.117284
 C   -1.429185   -0.549073   -0.395850
 N   -0.166771   -0.156068   -0.450137
 C    7.075827   -0.526351    0.709794
 C    8.051362   -1.514673    0.783838
 N    7.936857   -2.748041    0.294149
 H    2.151768    5.080841   -0.623028
 H    6.809932   -5.184197   -0.060737
 H    5.707240   -4.632922   -1.342651
 H    7.466743   -4.633172   -1.599946
 H    4.823992   -2.442240   -0.950557
 H    4.011879   -0.347871   -0.588137
 H    4.304104    3.916787   -0.132653
 H    0.046326    3.800012   -0.727157
 H    2.156092    0.205143    0.226802
 H   -1.717006    2.669558    0.117752
 H   -4.107763   -0.450948   -0.204199
 H   -6.423770    2.098642    0.195051
 H   -7.748744    0.519447   -1.478232
 H   -8.936604   -1.678589   -1.496645
 H   -6.543152   -3.008173    1.791819
 H   -5.412971   -0.781002    1.875079
 H   -1.677184   -1.594157   -0.527275
 H    7.237187    0.457767    1.123573
 H    8.995224   -1.287955    1.275903
