54 
4w4y_ligand_ani.xyz
 C    8.860872    3.622518    0.331818
 C    8.062230    2.344934    0.270523
 C    6.934345    2.159844    1.073544
 C    6.184049    0.990040    1.021093
 C    6.551920   -0.040534    0.152245
 N    5.845188   -1.261172    0.078952
 C    4.486521   -1.515684   -0.000294
 O    4.068153   -2.660241    0.018141
 N    3.673282   -0.409946   -0.101516
 C    2.281698   -0.501085   -0.265488
 C    1.423959    0.567475   -0.614941
 N    0.158022    0.180954   -0.645738
 N    0.185072   -1.128117   -0.339714
 C    1.448572   -1.577346   -0.088812
 C   -1.023276   -1.867303   -0.269672
 C   -1.019657   -3.243398   -0.495776
 C   -2.209553   -3.954500   -0.395055
 C   -3.391688   -3.297856   -0.076819
 C   -3.396400   -1.915456    0.111535
 C   -2.204655   -1.195840    0.023757
 C   -4.722329   -1.279075    0.429059
 O   -5.616435   -1.917295    0.958841
 N   -4.835298    0.035935    0.042797
 C   -5.956401    0.873703    0.143981
 C   -7.091013    0.539528    0.885788
 C   -8.126920    1.461297    0.920150
 N   -8.130973    2.642877    0.298098
 C   -7.039796    2.953190   -0.412257
 C   -7.050372    4.282420   -1.116360
 C   -5.938720    2.107548   -0.510734
 C    7.694802    0.120748   -0.631674
 C    8.427173    1.300664   -0.578444
 H    8.248971    4.489503    0.055912
 H    9.243109    3.804276    1.343341
 H    9.718474    3.591482   -0.346718
 H    6.626107    2.953120    1.750995
 H    5.329924    0.864995    1.681991
 H    6.386484   -2.110268    0.004543
 H    4.092410    0.487555   -0.300850
 H    1.675050    1.597044   -0.836626
 H    1.672710   -2.586519    0.219044
 H   -0.095036   -3.747289   -0.760862
 H   -2.207656   -5.028467   -0.559279
 H   -4.329175   -3.835544    0.029811
 H   -2.151920   -0.128936    0.221414
 H   -4.070287    0.403934   -0.503326
 H   -7.153406   -0.407802    1.403718
 H   -9.025129    1.228730    1.491107
 H   -7.889570    4.332578   -1.817053
 H   -7.176743    5.093354   -0.392510
 H   -6.121248    4.444959   -1.668422
 H   -5.074490    2.411215   -1.097050
 H    8.000100   -0.682339   -1.299180
 H    9.308353    1.406000   -1.209023
