15 
4w53_ligand_ani.xyz
 C    2.420280    0.001424    0.001316
 C    0.909712    0.003815   -0.000760
 C    0.195169   -1.197964   -0.001144
 C   -1.195240   -1.202681   -0.000196
 C   -1.899355   -0.001953    0.001315
 C   -1.200663    1.199993   -0.000043
 C    0.192606    1.199652   -0.001273
 H    2.813914   -0.511420    0.886443
 H    2.816651   -0.516670   -0.879444
 H    2.821648    1.018828   -0.000928
 H    0.739230   -2.141227   -0.001976
 H   -1.732064   -2.148847   -0.000478
 H   -2.986417   -0.004671    0.003651
 H   -1.740242    2.144586    0.000059
 H    0.732226    2.145701   -0.002612
