18 
4w54_ligand_xtb.xyz
 C   -1.913863   -0.033323   -0.598984
 C   -2.694432    0.024603    0.715610
 C   -0.435017   -0.016562   -0.334505
 C    0.245255    1.186947   -0.199161
 C    0.270314   -1.202481   -0.176796
 C    1.599438    1.205782    0.082681
 C    1.624950   -1.187416    0.104318
 C    2.293419    0.017668    0.235159
 H   -2.189034    0.823079   -1.218296
 H   -2.183399   -0.944384   -1.137326
 H   -2.437901   -0.824675    1.345191
 H   -2.454134    0.936179    1.258419
 H   -3.765116    0.005393    0.524670
 H   -0.291733    2.117479   -0.319662
 H   -0.246631   -2.146497   -0.279256
 H    2.115463    2.149866    0.182321
 H    2.160844   -2.118565    0.220492
 H    3.351264    0.030825    0.453512
