24 
4w57_ligand_ani.xyz
 C   -0.419325   -0.390478   -0.517796
 C   -1.369966   -1.243609    0.048565
 C   -2.592100   -0.755591    0.497535
 C   -2.884133    0.601234    0.392866
 C   -1.944348    1.463868   -0.162326
 C   -0.722847    0.969401   -0.610783
 C    0.919436   -0.932114   -0.971120
 C    1.917550   -1.123879    0.184291
 C    2.300570    0.159044    0.929029
 C    3.097184    1.153457    0.085519
 H   -1.147674   -2.306699    0.134960
 H   -3.320434   -1.437617    0.930429
 H   -3.839589    0.984292    0.742698
 H   -2.161740    2.525804   -0.247072
 H    0.009657    1.655046   -1.036026
 H    1.349184   -0.263889   -1.728497
 H    0.770237   -1.898863   -1.469204
 H    2.829634   -1.594836   -0.208486
 H    1.486879   -1.837955    0.898788
 H    2.897257   -0.116257    1.807728
 H    1.394874    0.642739    1.319148
 H    4.018933    0.698115   -0.296353
 H    2.523397    1.509135   -0.777533
 H    3.377261    2.032990    0.674747
