34 
4w7t_ligand_xtb.xyz
 C    3.084552    0.684221    0.083448
 C    1.681984    0.585532   -0.068025
 C    1.164662   -0.719178   -0.156180
 O    1.212004    2.904754   -0.047736
 C   -4.755246   -0.391659    1.197810
 C   -5.340794   -0.478625   -0.052658
 C   -4.554266   -0.354587   -1.185256
 C   -3.192466   -0.145491   -1.067377
 C    3.797794    1.983145    0.207583
 N    3.845900   -0.394896    0.121055
 N    1.937982   -1.788059   -0.114033
 N    4.042717   -2.670312    0.034356
 C    3.252250   -1.584691    0.014101
 C    0.809070    1.761448   -0.127584
 C   -0.668421    1.478273   -0.326714
 C   -1.108576    0.167790    0.325650
 C   -2.592715   -0.056865    0.183529
 C   -0.302546   -0.970799   -0.299601
 C   -3.392004   -0.182475    1.312221
 H   -5.360497   -0.486906    2.087462
 H   -6.404245   -0.641824   -0.145269
 H   -5.003877   -0.421010   -2.165323
 H   -2.595652   -0.050236   -1.962994
 H    3.622535    2.591485   -0.677647
 H    4.861111    1.797599    0.330669
 H    3.411145    2.544688    1.055556
 H    5.027905   -2.553367    0.182595
 H    3.624115   -3.581343    0.004129
 H   -0.844266    1.435775   -1.405928
 H   -1.235808    2.325325    0.064462
 H   -0.865706    0.215994    1.393922
 H   -0.542698   -1.931734    0.157801
 H   -0.533608   -1.050440   -1.365893
 H   -2.942339   -0.115403    2.293022
