58 
4w9d_ligand_xtb.xyz
 C    0.051725    3.540068   -2.003423
 C   -0.629004    2.649981   -0.962567
 C   -1.523489    3.509341   -0.062527
 C   -1.492703    1.597847   -1.658202
 C    0.433154    1.983919   -0.068936
 C    1.460006    1.126335   -0.775220
 O    1.375603    0.747926   -1.937846
 N    2.512179    0.761145   -0.015239
 C    2.747380    1.113132    1.367359
 C    4.052886    0.401290    1.750598
 O    4.765776    1.216414    2.646710
 C    4.753288    0.190753    0.398987
 C    3.591417   -0.074116   -0.545087
 C    3.122747   -1.541820   -0.467377
 O    3.526328   -2.314985    0.378789
 N    2.211232   -1.841126   -1.407717
 C    1.318135   -2.977403   -1.266422
 C    0.013430   -2.486498   -0.694874
 C   -1.143391   -2.433245   -1.459029
 C   -2.303761   -1.881225   -0.951785
 C   -0.014942   -1.980084    0.600766
 C   -1.165091   -1.418955    1.111978
 C   -2.326502   -1.348944    0.337226
 C   -3.508227   -0.711771    0.882209
 O   -3.537828   -0.412461    2.215551
 C   -4.714937    0.180572    2.413968
 N   -5.434206    0.298884    1.349718
 C   -4.695226   -0.261020    0.343511
 C   -5.217983   -0.276158   -1.045747
 H   -0.693828    4.050782   -2.608150
 H    0.674363    2.939237   -2.659730
 H    0.674372    4.290781   -1.520127
 H   -2.012904    2.896197    0.691895
 H   -2.294044    3.997162   -0.654423
 H   -0.943629    4.278964    0.443045
 H   -2.007142    0.981973   -0.924042
 H   -2.237099    2.082625   -2.285946
 H   -0.878030    0.954960   -2.280145
 H   -0.067419    1.337442    0.659325
 H    0.957941    2.762838    0.488638
 H    1.914458    0.808711    2.005516
 H    2.904609    2.191631    1.483366
 H    3.835964   -0.575383    2.202566
 H    5.577656    0.764238    2.898784
 H    5.283761    1.101956    0.120028
 H    5.443594   -0.650100    0.421383
 H    3.790449    0.200829   -1.584877
 H    1.864574   -1.068572   -1.974059
 H    1.169851   -3.442512   -2.243695
 H    1.803425   -3.686741   -0.590749
 H   -1.137183   -2.826642   -2.465080
 H   -3.192169   -1.860308   -1.559394
 H    0.879689   -2.024411    1.204981
 H   -1.177192   -1.023047    2.116847
 H   -4.976006    0.508825    3.399911
 H   -4.474785    0.104971   -1.743776
 H   -6.104485    0.350769   -1.083187
 H   -5.495734   -1.286661   -1.344305
