58 
4w9d_ligand_ani.xyz
 C   11.430785   51.760452   91.286949
 C   11.685035   52.657672   92.502273
 C   13.015086   52.274559   93.159660
 C   10.552643   52.471450   93.517079
 C   11.685275   54.146662   92.079231
 C   12.670164   54.481945   90.972407
 O   12.329775   54.389895   89.792927
 N   13.939302   54.845334   91.314202
 C   14.399135   55.335897   92.615220
 C   15.432462   56.406695   92.248662
 O   14.813856   57.628375   91.880883
 C   16.073111   55.836462   90.993983
 C   14.928594   55.131839   90.255583
 C   15.422371   53.841212   89.562576
 O   16.475580   53.302209   89.869903
 N   14.614116   53.363934   88.580299
 C   14.904881   52.063543   88.002217
 C   14.217651   51.881977   86.674674
 C   13.402576   50.779283   86.425492
 C   12.787520   50.613047   85.192692
 C   14.406772   52.817966   85.654842
 C   13.802638   52.654278   84.419225
 C   12.976941   51.548296   84.172504
 C   12.332174   51.384527   82.873274
 O   12.706380   52.251886   81.877218
 C   11.971726   51.890650   80.814992
 N   11.172402   50.903681   81.024578
 C   11.378727   50.554149   82.348426
 C   10.599788   49.430678   82.957315
 H   10.512934   52.059572   90.767401
 H   12.252313   51.819529   90.564955
 H   11.325048   50.713923   91.595626
 H   12.977701   51.238035   93.515189
 H   13.857391   52.354714   92.463856
 H   13.224451   52.913381   94.027512
 H    9.583379   52.732850   93.075743
 H   10.495216   51.431697   93.860637
 H   10.704163   53.108246   94.396896
 H   11.859407   54.765737   92.964359
 H   10.694864   54.396108   91.684700
 H   14.870993   54.532797   93.196173
 H   13.583179   55.769197   93.200767
 H   16.159771   56.561889   93.057025
 H   14.311027   57.952911   92.638526
 H   16.834188   55.096578   91.251361
 H   16.534675   56.621374   90.392158
 H   14.455398   55.784581   89.511901
 H   13.651191   53.689076   88.585743
 H   14.620338   51.256970   88.693817
 H   15.992787   52.003564   87.889292
 H   13.246413   50.038719   87.206589
 H   12.163079   49.741464   85.025612
 H   15.039221   53.684762   85.837360
 H   13.966270   53.389713   83.637710
 H   12.114104   52.451161   79.900546
 H    9.836086   49.106519   82.247395
 H   11.237531   48.567464   83.185141
 H   10.104417   49.737916   83.885725
