27 
4w9s_ligand_ani.xyz
 O    9.103737   19.644242   -8.609051
 C    9.719252   20.482627   -9.456365
 C   10.066463   20.173926  -10.737846
 N   10.681505   21.049836  -11.586495
 C   10.983923   22.225198  -11.117938
 C   11.699379   23.213287  -11.957969
 C   12.563479   24.162516  -11.402914
 C   13.216175   25.078787  -12.209476
 C   13.009148   25.065589  -13.591124
 C   12.162540   24.104061  -14.150906
 C   11.522042   23.182101  -13.342655
 C   13.660130   26.020942  -14.492161
 N   13.600991   26.000892  -15.808806
 N   14.333180   27.047331  -16.241101
 N   14.831788   27.704580  -15.258403
 N   14.423486   27.077325  -14.146655
 N   10.657643   22.623657   -9.839529
 C   10.000431   21.808917   -8.944781
 O    9.683157   22.165293   -7.815873
 H    8.975850   20.161826   -7.792441
 H    9.843970   19.189267  -11.139077
 H   12.761548   24.168550  -10.334450
 H   13.884090   25.802354  -11.747686
 H   12.023830   24.092558  -15.228146
 H   10.874980   22.426181  -13.776886
 H   14.688083   27.445422  -13.245946
 H   10.805200   23.585734   -9.546320
