27 
4w9s_ligand_xtb.xyz
 O    9.099225   19.589496   -8.702909
 C    9.710142   20.472806   -9.508679
 C    9.987212   20.256743  -10.826671
 N   10.612265   21.172351  -11.594362
 C   10.969076   22.304911  -11.077875
 C   11.666863   23.278853  -11.916283
 C   12.443849   24.308048  -11.382290
 C   13.096753   25.197003  -12.211916
 C   12.984094   25.079009  -13.596687
 C   12.212192   24.046317  -14.135454
 C   11.567712   23.157598  -13.305703
 C   13.649119   25.988294  -14.500644
 N   13.561685   25.983809  -15.817172
 N   14.321144   26.971185  -16.256439
 N   14.877997   27.591983  -15.305558
 N   14.486489   27.011478  -14.166708
 N   10.709967   22.611789   -9.767600
 C   10.078496   21.746723   -8.903945
 O    9.844928   22.025215   -7.738017
 H    9.026927   20.011070   -7.825875
 H    9.722829   19.332754  -11.317763
 H   12.574005   24.409594  -10.314547
 H   13.695370   25.981175  -11.771582
 H   12.138212   23.966597  -15.208231
 H   10.974409   22.351831  -13.705748
 H   14.809304   27.335714  -13.269714
 H   10.955736   23.520653   -9.392629
