37 
4wag_ligand_ani.xyz
 C    1.857347   -1.066092    0.352505
 C    0.812416   -0.384904   -0.291389
 C    1.127894    0.779358   -0.996209
 C    2.438458    1.242216   -1.052545
 C    3.462407    0.568448   -0.394937
 C    3.157134   -0.603373    0.323418
 O    4.764350    0.951387   -0.385101
 O    4.136193   -1.325254    0.949591
 C   -0.541442   -0.943939   -0.252295
 C   -0.989361   -2.251644   -0.404197
 N   -2.338752   -2.321180   -0.342575
 C   -2.747004   -1.076676   -0.152791
 N   -1.701324   -0.189067   -0.097582
 C   -4.078331   -0.586604    0.009679
 C   -4.216364    0.759035    0.242743
 C   -3.030898    1.539019    0.297267
 N   -1.799716    1.126905    0.141037
 C   -0.181630   -3.496863   -0.630313
Cl   -3.195151    3.234412    0.600497
 N   -5.080566   -1.484107   -0.116566
 C    4.627350   -0.734979    2.143464
 C    5.111882    2.110206   -1.113381
 H    1.663092   -1.978794    0.907682
 H    0.348392    1.336437   -1.505387
 H    2.651813    2.147077   -1.610734
 H   -5.184202    1.230855    0.379517
 H    0.691208   -3.293085   -1.259907
 H    0.185033   -3.923520    0.313554
 H   -0.802532   -4.256072   -1.112731
 H   -4.803058   -2.455833   -0.123477
 H   -6.000240   -1.275878    0.240748
 H    5.087884    0.238541    1.944274
 H    3.819557   -0.617112    2.878317
 H    5.378908   -1.421751    2.540183
 H    4.879968    1.996534   -2.180585
 H    4.592776    2.995676   -0.723814
 H    6.187994    2.235762   -0.988327
