36 
4wbo_ligand_ani.xyz
 N    2.200243    1.777461    0.047933
 N    4.469809    1.947197    0.111454
 C   -5.557244   -1.214759    1.254149
 C   -5.167291   -0.719119   -0.146268
 C   -6.278398    0.148022   -0.735040
 C   -3.804806   -0.039690   -0.131724
 C   -2.659344   -0.827143   -0.121472
 C   -1.378732   -0.266916   -0.078499
 C   -1.251716    1.119900   -0.037278
 C   -2.382297    1.933332   -0.031489
 C   -3.640438    1.353826   -0.079030
 C    1.111949    1.042205    0.003458
 C    3.383721    1.153891    0.062604
 C    3.508753   -0.268499   -0.001874
 C    2.331862   -1.002356   -0.031886
 C    1.096371   -0.358922   -0.030139
 C   -0.166611   -1.116564   -0.071973
 C    4.856087   -0.900395    0.013616
 O   -0.039910    1.757807   -0.000488
 O   -0.201479   -2.336928   -0.099924
 O    5.864364   -0.356182    0.410332
 O    4.933155   -2.165580   -0.439215
 H    4.302509    2.926688    0.267239
 H    5.364050    1.528717    0.329040
 H   -4.806760   -1.906569    1.651498
 H   -5.641684   -0.372667    1.950414
 H   -6.521673   -1.734261    1.226406
 H   -5.062166   -1.604946   -0.789041
 H   -6.509493    0.997625   -0.081939
 H   -6.003293    0.538728   -1.720653
 H   -7.197453   -0.437940   -0.845040
 H   -2.727562   -1.913054   -0.141623
 H   -2.251511    3.009735    0.004588
 H   -4.512927    2.001482   -0.087516
 H    2.318696   -2.092567   -0.017620
 H    4.098677   -2.427381   -0.850033
