36 
4wbo_ligand_xtb.xyz
 N    2.179202    1.764841   -0.004506
 N    4.434145    1.966050   -0.001017
 C   -5.930473   -0.370809    1.247105
 C   -5.135570   -0.771521    0.002578
 C   -5.904769   -0.418499   -1.272345
 C   -3.775653   -0.119609    0.002381
 C   -2.626665   -0.885326    0.018450
 C   -1.357729   -0.303260    0.015082
 C   -1.248107    1.090098   -0.003675
 C   -2.401312    1.871871   -0.019215
 C   -3.640814    1.270883   -0.016670
 C    1.078385    1.039376    0.000402
 C    3.370816    1.165063    0.000440
 C    3.505953   -0.265032    0.003500
 C    2.332812   -0.997341    0.017342
 C    1.088499   -0.368858    0.016325
 C   -0.151351   -1.145141    0.027768
 C    4.849260   -0.880280   -0.006157
 O   -0.054734    1.748280   -0.008447
 O   -0.173628   -2.364900    0.042649
 O    5.876475   -0.238542    0.034511
 O    4.920512   -2.214938   -0.068181
 H    4.283152    2.959432   -0.002418
 H    5.355836    1.544250    0.014103
 H   -5.373578   -0.617741    2.148092
 H   -6.135169    0.696829    1.251052
 H   -6.879528   -0.901220    1.270925
 H   -4.990186   -1.856534    0.024582
 H   -6.105404    0.648761   -1.322543
 H   -5.331174   -0.702418   -2.151724
 H   -6.854965   -0.946974   -1.293846
 H   -2.673708   -1.964528    0.033347
 H   -2.296550    2.945083   -0.034075
 H   -4.521293    1.894654   -0.030312
 H    2.304903   -2.080383    0.036390
 H    4.055540   -2.644347   -0.109042
