20 
4wcf_ligand_ani.xyz
 N   -1.552518    2.244955   -0.077176
 C   -1.916229    0.944501   -0.025070
 C   -3.277044    0.584245   -0.031883
 C   -3.622707   -0.750398    0.009128
 N   -2.741183   -1.756963    0.058231
 C   -1.458943   -1.416827    0.061622
 C   -0.964419   -0.111600    0.019435
 C    0.482569    0.138259    0.019175
 S    1.642799   -1.179184   -0.090824
 N    1.067404    1.295327    0.096944
 N    2.429519    1.248952    0.083578
 C    2.880736    0.035753   -0.001040
 N    4.219320   -0.263403   -0.077003
 H   -2.256646    2.959034   -0.022011
 H   -0.574119    2.486979    0.008773
 H   -4.044791    1.353859   -0.072267
 H   -4.672127   -1.039172    0.002757
 H   -0.750925   -2.244421    0.103587
 H    4.518365   -1.112571    0.381616
 H    4.793896    0.537556    0.150510
