20 
4wcf_ligand_dft.xyz
 N   -1.505787    2.248121    0.014425
 C   -1.895332    0.955103    0.006063
 C   -3.261182    0.605892    0.012054
 C   -3.631061   -0.721360    0.007640
 N   -2.768655   -1.750417   -0.003386
 C   -1.484374   -1.423111   -0.010170
 C   -0.967177   -0.122361   -0.005253
 C    0.474562    0.106741   -0.012250
 S    1.655590   -1.204570   -0.005150
 N    1.042280    1.277287   -0.021522
 N    2.406323    1.256873   -0.002893
 C    2.875888    0.045339    0.005363
 N    4.215106   -0.244845   -0.055753
 H   -2.193215    2.982205   -0.000530
 H   -0.516005    2.467977   -0.009728
 H   -4.016564    1.386225    0.021023
 H   -4.686074   -0.986853    0.012741
 H   -0.793097   -2.266443   -0.021331
 H    4.526881   -1.065477    0.442822
 H    4.795822    0.568896    0.100629
