55 
4wcu_ligand_xtb.xyz
 C    1.796547   -2.049957    0.385538
 C    2.980504   -2.649134   -0.039452
 C    4.179442   -2.337051    0.590683
 C    3.156944   -0.873557    1.994064
 C    1.915993   -1.125013    1.425133
 O   -0.752077    4.570859   -0.197605
 C   -0.774290    3.378494   -0.429762
 N    0.156598    2.712064   -1.120269
 C    1.394201    3.322691   -1.561105
 C    2.568732    2.630669   -0.921959
 C    3.108966    1.491332   -1.504616
 C    4.173223    0.838835   -0.909771
 C    4.704908    1.313865    0.277156
 C    4.156929    2.436540    0.873778
 C    3.092485    3.090600    0.278388
 C   -1.962231    2.509921    0.013235
 O   -1.543629    1.161978    0.098790
 C   -2.370218    0.118067   -0.119328
 C   -3.761562    0.139222    0.057066
 O   -4.342572    1.327649    0.427178
 C   -5.341526    1.305111    1.428544
 C   -4.507085   -1.029971   -0.186405
 O   -5.858973   -0.923047   -0.087277
 C   -6.652221   -2.067255   -0.298073
 C   -3.849579   -2.215517   -0.504688
 C   -2.476782   -2.245574   -0.612990
 C   -1.722666   -1.089153   -0.455264
 C   -0.259878   -1.106062   -0.668449
 O    0.349938   -0.220650   -1.224821
 C    0.452790   -2.371081   -0.189920
Cl    0.514293   -0.305881    1.997496
 N    4.254981   -1.479340    1.587442
Cl    2.980966   -3.794325   -1.329860
 H    5.106435   -2.800406    0.284065
 H    3.266400   -0.168219    2.804312
 H    0.101330    1.700688   -1.190595
 H    1.349939    4.376373   -1.274441
 H    1.458800    3.246185   -2.652394
 H    2.692469    1.116596   -2.427800
 H    4.592545   -0.042626   -1.373225
 H    5.537063    0.804499    0.739037
 H    4.563974    2.806176    1.803754
 H    2.664156    3.967369    0.742352
 H   -2.765772    2.635923   -0.718264
 H   -2.316008    2.877417    0.982085
 H   -6.318301    1.041760    1.018995
 H   -5.084315    0.608359    2.230642
 H   -5.373468    2.319684    1.825116
 H   -6.527382   -2.460829   -1.311116
 H   -6.430147   -2.851765    0.431644
 H   -7.680731   -1.734666   -0.166698
 H   -4.409525   -3.119206   -0.677372
 H   -1.993611   -3.172663   -0.877539
 H   -0.151136   -2.867188    0.571677
 H    0.573588   -3.039456   -1.045193
