35 
4wey_ligand_xtb.xyz
 O   -3.774918   -1.903646   -0.906447
 C   -3.649673   -0.739871   -0.573920
 N   -4.699778    0.075330   -0.309197
 C   -6.050014   -0.428900   -0.250934
 C   -6.533009   -0.523496    1.196880
 O   -6.490388    0.776896    1.752162
 C   -2.321177   -0.108561   -0.464887
 C   -1.895987    1.203115   -0.531879
 C   -2.732340    2.421676   -0.730915
 N   -0.562947    1.359521   -0.427887
 C    0.075137    0.239104   -0.288694
 C    1.509859    0.143111   -0.144485
 C    2.145809   -1.092463   -0.012507
 C    3.516020   -1.158171    0.129296
 C    4.264912    0.014090    0.140681
 C    5.754819   -0.094148    0.293216
 F    6.325358   -0.738257   -0.743532
 F    6.103857   -0.788138    1.392993
 F    6.370279    1.092091    0.384080
 C    3.645569    1.250334    0.006136
 C    2.274620    1.312529   -0.135067
 S   -0.966353   -1.167004   -0.288589
 H   -4.553346    0.955329    0.157852
 H   -6.055509   -1.417046   -0.713900
 H   -6.705909    0.249118   -0.804006
 H   -5.877267   -1.202863    1.758608
 H   -7.554734   -0.923527    1.212815
 H   -6.839278    0.750324    2.648232
 H   -3.523542    2.239376   -1.454305
 H   -3.177748    2.745088    0.210539
 H   -2.090557    3.222215   -1.089486
 H    1.559876   -1.999079   -0.022222
 H    4.011846   -2.111261    0.232978
 H    4.235870    2.153526    0.014508
 H    1.770763    2.259558   -0.239724
