35 
4wey_ligand_ani.xyz
 O   -3.904051   -1.427447   -1.182346
 C   -3.720858   -0.339792   -0.648683
 N   -4.749231    0.440255   -0.212385
 C   -6.128832    0.010727   -0.359675
 C   -6.543114   -1.059697    0.651118
 O   -6.467219   -0.609174    1.986376
 C   -2.354180    0.177197   -0.422122
 C   -1.859636    1.425266   -0.124538
 C   -2.612624    2.716597    0.041724
 N   -0.498160    1.476485    0.007822
 C    0.059116    0.309097   -0.176979
 C    1.516966    0.120965   -0.059915
 C    2.104015   -1.136893    0.111174
 C    3.483251   -1.258503    0.202196
 C    4.286609   -0.125264    0.124548
 C    5.780232   -0.236723    0.197720
 F    6.363396    0.204981   -0.934763
 F    6.194230   -1.500839    0.393213
 F    6.282252    0.510366    1.201179
 C    3.712083    1.134731   -0.027699
 C    2.335133    1.255389   -0.113953
 S   -1.053207   -0.949659   -0.598833
 H   -4.556622    1.303460    0.267538
 H   -6.253985   -0.392440   -1.369617
 H   -6.764018    0.894047   -0.252960
 H   -5.933128   -1.959787    0.487703
 H   -7.589726   -1.326161    0.473263
 H   -5.530724   -0.478452    2.182795
 H   -3.368460    2.850523   -0.740456
 H   -3.109315    2.774719    1.018448
 H   -1.895792    3.537852   -0.014401
 H    1.492720   -2.030092    0.184939
 H    3.936038   -2.236058    0.335269
 H    4.347025    2.013618   -0.076083
 H    1.871318    2.229948   -0.221571
