27 
4wf4_ligand_dft.xyz
 C    3.859260    2.395916    0.098575
 C    2.999135    1.164940    0.035176
 C    3.416879   -0.146176   -0.005688
 C    4.760723   -0.769070    0.013756
 O    4.927814   -1.936416    0.258455
 O    5.813050    0.029647   -0.258787
 S    2.047094   -1.201343   -0.015372
 C    1.012321    0.187504    0.002377
 C   -0.456925    0.091259   -0.011879
 C   -1.117147   -1.139630   -0.054865
 C   -2.504160   -1.193658   -0.068661
 C   -3.243371   -0.014929   -0.041755
 C   -4.747527   -0.063979   -0.001191
 F   -5.226827   -1.200434   -0.531209
 F   -5.294104    0.960684   -0.676154
 F   -5.204986    0.008744    1.261046
 C   -2.593986    1.217703    0.000408
 C   -1.209198    1.271097    0.015161
 N    1.643486    1.334134    0.034255
 H    4.698667    2.277008    0.790837
 H    4.248466    2.670254   -0.890966
 H    3.249765    3.232982    0.443117
 H    5.522176    0.892767   -0.579563
 H   -0.554398   -2.068623   -0.080566
 H   -3.009270   -2.152171   -0.106665
 H   -3.172440    2.135155    0.015641
 H   -0.690552    2.222519    0.045364
