14 
4wh7_ligand_ani.xyz
 F   -1.127763    1.959453    0.002343
 C   -0.335081    0.887747    0.001720
 C    1.032971    1.061779    0.000093
 C    1.846868   -0.070856   -0.000712
 O    3.186285    0.143183   -0.004061
 C    1.288067   -1.350587    0.001918
 C   -0.092029   -1.495110    0.003897
 C   -0.929762   -0.379429    0.002359
 C   -2.357058   -0.504807   -0.001165
 N   -3.509353   -0.615788   -0.005711
 H    1.459620    2.057922   -0.000987
 H    3.645934   -0.705719   -0.004614
 H    1.929371   -2.228930    0.001819
 H   -0.533733   -2.485707    0.006504
