14 
4whq_ligand_xtb.xyz
 C    1.125700   -0.555165   -0.000346
 C    0.704523    0.787505    0.000397
 C   -0.650710    1.073807   -0.000523
 C   -1.570433    0.038509   -0.000151
 C   -1.179235   -1.282290    0.002390
 C    0.178180   -1.565565    0.001950
 O    2.460482   -0.805298   -0.002947
 O    1.650737    1.756880    0.001875
 F   -2.886338    0.345147   -0.002149
 H   -0.997555    2.096756   -0.001976
 H   -1.914810   -2.069194    0.004209
 H    0.507392   -2.595302    0.003322
 H    2.613002   -1.757747   -0.004502
 H    1.231108    2.625703    0.004565
