14 
4whq_ligand_dft.xyz
 C    1.123872   -0.562846   -0.000072
 C    0.705361    0.780288    0.000015
 C   -0.651511    1.079751    0.000032
 C   -1.579948    0.045161   -0.000055
 C   -1.196947   -1.280056   -0.000090
 C    0.169261   -1.570348   -0.000164
 O    2.465491   -0.789349   -0.000294
 O    1.675582    1.727558    0.000344
 F   -2.886861    0.361161    0.000174
 H   -0.998671    2.108842    0.000227
 H   -1.942971   -2.065611   -0.000371
 H    0.493712   -2.608528   -0.000374
 H    2.618610   -1.741363    0.003132
 H    1.261956    2.598840   -0.002569
