14 
4whr_ligand_xtb.xyz
 C   -1.125651   -0.555304    0.000188
 C   -0.704590    0.787574   -0.000428
 C    0.650582    1.073869    0.000446
 C    1.570454    0.038517    0.000148
 C    1.179149   -1.282183   -0.002374
 C   -0.178209   -1.565665   -0.001955
 O   -2.460421   -0.805437    0.002641
 O   -1.650670    1.757114   -0.001619
 F    2.886406    0.345043    0.002242
 H    0.997233    2.096919    0.001544
 H    1.914766   -2.069032   -0.004429
 H   -0.507235   -2.595479   -0.003292
 H   -2.613256   -1.757842    0.006712
 H   -1.230846    2.625787   -0.005035
