14 
4whs_ligand_dft.xyz
 C    1.123900   -0.562616    0.000047
 C    0.705368    0.780403    0.000015
 C   -0.651817    1.080148    0.000145
 C   -1.579847    0.045769    0.000523
 C   -1.197001   -1.280089   -0.000015
 C    0.168829   -1.570170   -0.000201
 O    2.465392   -0.789575   -0.000288
 O    1.675989    1.726792   -0.000060
 F   -2.886755    0.360946   -0.000144
 H   -0.998122    2.109442    0.000079
 H   -1.943647   -2.064920   -0.000781
 H    0.493486   -2.608362   -0.000570
 H    2.617999   -1.741767    0.002919
 H    1.263435    2.598677   -0.000658
