64 
4wlb_ligand_ani.xyz
 C   -2.835472   -0.442150    1.645563
 C   -3.403773   -0.499233   -0.791819
 C   -7.164272   -0.023873   -1.209554
 C   -4.872736   -0.794260   -1.020981
 C   -5.315003   -2.098236   -1.247511
 C   -6.663972   -2.381114   -1.444607
 C   -7.568214   -1.333077   -1.416315
 C   -5.812220    0.240039   -1.017991
 C   -5.208706   -0.512732    2.524709
 C   -3.467227   -2.135195    3.361236
 C   -3.969806   -1.332012    2.159103
 N   -3.159969    0.288026    0.419179
 F   -8.876389   -1.590093   -1.600501
 S   -2.607262    1.852205    0.258541
 O   -3.221910    2.395722   -0.941290
 O   -2.760938    2.498588    1.550184
 C   -0.872968    1.715136   -0.071194
 C   -0.396484    1.666381   -1.384052
 C    0.958280    1.530191   -1.597949
 C    1.812027    1.457760   -0.474002
 N    1.353905    1.534790    0.780762
 C    0.040173    1.668568    0.969452
 N    3.164224    1.291276   -0.648597
 C    4.103922    1.476672    0.449789
 C    4.246438    0.198286    1.285218
 C    4.963794   -0.902897    0.516439
 N    6.255674   -0.401603    0.038077
 C    6.177476    0.776735   -0.829276
 C    5.472618    1.906091   -0.083567
 S    7.486255   -1.483934   -0.201414
 O    8.684711   -0.714720   -0.481248
 O    7.436167   -2.435324    0.893438
 C    7.048766   -2.358896   -1.692255
 H   -1.940726   -1.059313    1.469375
 H   -2.579410    0.296076    2.413567
 H   -2.984118    0.030788   -1.652249
 H   -2.860811   -1.444744   -0.689106
 H   -7.903602    0.770052   -1.201262
 H   -4.594056   -2.913998   -1.262876
 H   -7.017450   -3.393592   -1.612505
 H   -5.481572    1.263981   -0.851173
 H   -6.021690   -1.174497    2.842585
 H   -4.990472    0.173733    3.353987
 H   -5.567595    0.084799    1.679005
 H   -3.159777   -1.462878    4.172701
 H   -4.251900   -2.793018    3.751014
 H   -2.605502   -2.757882    3.093666
 H   -4.241200   -2.044982    1.368824
 H   -1.089710    1.753072   -2.216831
 H    1.365975    1.477910   -2.604304
 H   -0.298408    1.760225    1.998648
 H    3.505429    1.457637   -1.582488
 H    3.696665    2.254028    1.102791
 H    3.256053   -0.140912    1.598753
 H    4.818423    0.434811    2.191563
 H    4.350683   -1.237649   -0.333694
 H    5.146529   -1.761481    1.165965
 H    5.640750    0.525695   -1.757508
 H    7.192519    1.074525   -1.097459
 H    6.101566    2.212006    0.761342
 H    5.370828    2.782941   -0.733734
 H    7.006653   -1.659242   -2.531033
 H    7.832868   -3.099112   -1.870490
 H    6.089740   -2.865128   -1.553842
