18 
4wmv_ligand_ani.xyz
 C    0.751305    0.746095   -0.001066
 O    3.293748   -1.887514   -0.036878
 C    2.919312   -0.742882   -0.001661
 O    3.797526    0.269138    0.037000
 C    1.460360   -0.421769    0.003320
 S    0.400259   -1.803290    0.002348
 C   -1.003799   -0.794782    0.002990
 C   -2.341653   -1.207065    0.007558
 C   -3.301848   -0.218570    0.002761
 F   -4.594952   -0.576765    0.006784
 C   -2.999422    1.148825   -0.006628
 C   -1.679867    1.544625   -0.009377
 C   -0.669360    0.570466   -0.002621
Cl    1.407081    2.346616   -0.007305
 H    3.358355    1.132511    0.065817
 H   -2.636931   -2.251266    0.014666
 H   -3.810516    1.868217   -0.010789
 H   -1.421225    2.598942   -0.016770
