34 
4wmx_ligand_ani.xyz
 C   -1.894334   -0.565055   -0.405827
 C   -0.946885    0.390535   -0.762093
 O   -0.272898    3.945440   -0.150386
 C   -0.058057    2.827570   -0.552056
 O    1.055167    2.554102   -1.238161
 C   -1.038394    1.704047   -0.280970
 C   -2.120364    2.033934    0.538594
 C   -3.067721    1.088803    0.885484
 C   -2.967278   -0.225012    0.420858
 C   -4.005506   -1.195419    0.821302
 C   -4.086504   -2.474234    0.456065
 N    0.132024    0.018202   -1.650814
 S    1.129108   -1.329438   -1.280983
 O    0.319609   -2.527644   -1.101969
 O    2.176415   -1.282157   -2.284578
 C    1.801427   -0.875716    0.288647
 C    2.970540   -0.123418    0.324009
 C    3.480653    0.273865    1.555495
 C    2.828716   -0.089676    2.731408
 C    1.667191   -0.856941    2.681352
 C    1.149429   -1.260681    1.454972
 H   -1.768565   -1.571771   -0.787288
 H    1.065301    1.608181   -1.490402
 H   -2.181968    3.058779    0.889751
 H   -3.900001    1.371817    1.526468
 H   -4.771988   -0.793128    1.483383
 H   -3.352690   -2.933758   -0.203604
 H   -4.896904   -3.105117    0.809243
 H   -0.202535   -0.126247   -2.602767
 H    3.475250    0.131661   -0.605387
 H    4.391253    0.865110    1.597417
 H    3.230748    0.222814    3.692500
 H    1.166015   -1.145377    3.601514
 H    0.252371   -1.872905    1.397921
