62 
4wnm_ligand_ani.xyz
 C   -3.380614   -2.076459   12.996158
 C   -4.662313    0.263221   15.630325
 C   -4.384432   -1.380113   13.854364
 C   -5.729068   -1.636479   13.902919
 C   -6.556908   -0.948570   14.828334
 C   -6.047306   -0.015181   15.687781
 N   -3.906677   -0.425331   14.716083
 N   -3.890360    1.108045   16.316362
 N   -2.610021   -0.003953   14.798034
 O    8.939157    0.953317   14.550797
 C   -2.670182    0.904421   15.771557
 C   -0.262524    1.626024   15.873692
 C    0.643871    2.284120   16.751921
 C    1.994441    2.358825   16.482835
 C    2.464822    1.768558   15.300985
 C    1.553012    1.134926   14.442339
 C    0.176069    1.040482   14.698474
 C    3.733147    1.612214   14.639868
 C    6.175988    1.792841   14.427787
 O   -1.510886   -5.781270   14.133929
 C   -3.320208   -4.186082   14.434691
 C   -2.396828   -5.214712   15.076270
 C   -0.675393   -4.802654   13.551589
 C   -1.486411   -3.742997   12.815374
 C   -2.498533   -3.086684   13.757184
 N   -1.608879    1.629094   16.258771
 N    2.280690    0.672062   13.394359
 N    3.607468    0.965938   13.489960
 N    4.925921    2.108897   15.094584
 C    7.288600    2.681784   14.985550
 C    8.632345    2.320342   14.362998
 C    7.972603    0.113216   13.952152
 C    6.589409    0.319061   14.558400
 H   -2.738877   -1.331747   12.514839
 H   -3.917783   -2.606334   12.201494
 H   -6.163398   -2.376478   13.238239
 H   -7.621822   -1.173293   14.852213
 H   -6.655688    0.520858   16.403068
 H    0.254956    2.731403   17.663355
 H    2.662843    2.869040   17.172232
 H   -0.500209    0.543127   14.015715
 H    6.040545    2.014216   13.360783
 H   -3.994599   -3.764858   15.190830
 H   -3.943088   -4.691697   13.682489
 H   -2.964460   -6.044696   15.507005
 H   -1.820791   -4.737366   15.888660
 H   -0.001732   -5.334218   12.873195
 H   -0.062598   -4.322364   14.334806
 H   -0.815441   -2.989288   12.383327
 H   -2.023040   -4.220634   11.983156
 H   -1.949909   -2.530471   14.531977
 H   -1.862721    2.219026   17.036535
 H    1.923844    0.208262   12.575721
 H    4.985512    2.267431   16.089416
 H    7.348393    2.532561   16.073232
 H    7.049108    3.735336   14.802073
 H    8.618894    2.556324   13.284095
 H    9.447668    2.886224   14.822740
 H    7.935074    0.304222   12.864696
 H    8.319246   -0.913265   14.102642
 H    6.619715    0.038912   15.620291
 H    5.846357   -0.314134   14.061749
