48 
4wnp_ligand_ani.xyz
 C    2.940975    2.718183   -0.436622
 C    4.692257    1.628203    0.215395
 C    0.504990    1.692439   -0.405486
 C    0.494247   -2.228200    0.389760
 C    1.350924   -2.918034   -0.461841
 C    2.362816   -1.018333    1.377920
 C   -4.102753   -1.114337    0.015052
 C   -5.448163   -1.543388   -0.051478
 C   -6.465196   -0.631640   -0.181685
 C   -6.185032    0.749666   -0.256129
 C   -4.884924    1.194818   -0.197473
 C   -3.820546    0.270965   -0.055637
 C   -2.418392    0.605449    0.010870
 N   -2.019074    1.902556   -0.099706
 C   -0.704017    2.371926   -0.139586
 N   -0.498824    3.660664    0.052235
 N    0.858165    3.877329   -0.059399
 C    1.453973    2.733765   -0.331038
 C    3.730495    2.623062    0.900720
 C    3.664882    1.446572   -0.925330
 N   -1.483782   -0.302742    0.168123
 C   -1.893051   -1.595786    0.219229
 N   -0.885322   -2.522641    0.355445
 C    2.712747   -2.620087   -0.438636
 N    3.725841   -3.093365   -1.209952
 C    4.780208   -2.433467   -0.712266
 N    4.570965   -1.567425    0.309571
 C    3.237107   -1.673273    0.503024
 C    1.006052   -1.273841    1.298929
 N   -3.120526   -2.055384    0.140924
 H    3.248016    3.604980   -0.997851
 H    4.935563    0.714594    0.766447
 H    5.616150    2.102125   -0.129749
 H    0.626735    0.646721   -0.567736
 H    0.974469   -3.658007   -1.163215
 H    2.754507   -0.291756    2.081116
 H   -5.638443   -2.610916    0.004919
 H   -7.496019   -0.973246   -0.230146
 H   -6.999370    1.461146   -0.361147
 H   -4.691667    2.263183   -0.268681
 H   -2.699816    2.643268   -0.024652
 H    3.134738    2.134610    1.680200
 H    4.127532    3.560808    1.298324
 H    4.044986    1.437094   -1.951961
 H    3.055075    0.548595   -0.775887
 H   -1.177452   -3.476933    0.202889
 H    5.778030   -2.587931   -1.115984
 H    0.317258   -0.719257    1.926293
