49 
4wov_ligand_xtb.xyz
 C   13.122419    3.263068   -0.218880
 C   14.103204    3.705649   -1.275249
 C   11.354270    2.354809    1.642727
 C   11.663379    3.700495    1.614674
 C   15.897655    2.356456   -2.259054
 C   16.150098    1.012620   -2.955123
 C   15.598305   -0.571611   -1.296845
 C   11.960942    1.507988    0.708359
 C   13.440244   -5.131009   -2.436090
 N    9.940744   -3.935974    2.220055
 C    9.953035   -5.275719    1.962442
 N   10.691354   -5.606431    0.946703
 C   11.211767   -4.424536    0.484450
 C   10.747686   -3.365550    1.275938
 C   11.161939   -2.057600    0.978613
 C   12.038844   -1.971437   -0.137708
 N   12.352333   -0.669671   -0.303223
 C   11.728499    0.088635    0.660704
 C   10.980646   -0.749275    1.466041
 N   12.822590    1.977006   -0.203856
 C   12.565217    4.174296    0.672868
 N   14.593666    2.583557   -2.031843
 O   16.788355    3.139659   -2.000470
 O   15.269496   -0.010552   -2.549748
 N   12.503329   -2.965561   -0.900011
 C   12.096953   -4.192594   -0.605127
 N   12.516832   -5.238844   -1.342087
 C    9.236010   -3.250918    3.263541
 H   14.965454    4.204720   -0.820371
 H   13.612284    4.426689   -1.943496
 H   10.661042    1.957486    2.365783
 H   11.209005    4.379718    2.321648
 H   17.197846    0.727336   -2.796693
 H   15.984239    1.151063   -4.028219
 H   14.935392   -1.424075   -1.153779
 H   16.638036   -0.917465   -1.286638
 H   15.461291    0.150187   -0.483161
 H   13.021024   -5.581593   -3.338364
 H   13.621164   -4.072586   -2.608729
 H   14.386960   -5.626524   -2.203142
 H    9.396788   -5.973861    2.557264
 H   12.950052   -0.282454   -1.013465
 H   10.381493   -0.456509    2.305879
 H   12.833000    5.218078    0.627112
 H   13.942008    1.820591   -2.159744
 H   12.195408   -6.146801   -1.046970
 H    8.690378   -3.975573    3.866016
 H    9.938661   -2.710602    3.902044
 H    8.529665   -2.534777    2.837222
