27 
4wr7_ligand_xtb.xyz
 F   -0.751429    2.604734   -0.119307
 C   -0.257182    1.360307   -0.088198
 C    1.108900    1.165667   -0.009043
 F    1.924083    2.221878    0.035230
 C   -1.161047    0.283329   -0.137910
 S   -2.843495    0.738319   -0.227761
 C   -3.803885   -0.825514   -0.277052
 C   -5.284784   -0.480972   -0.338550
 C   -5.781840    0.159225    0.951149
 C   -0.600266   -0.996023   -0.105297
 F   -1.368962   -2.097433   -0.146778
 C    0.778867   -1.183858   -0.025681
 F    1.235060   -2.432162    0.010874
 C    1.649769   -0.111825    0.014957
 S    3.438971   -0.265442    0.197116
 O    3.845754   -1.602724   -0.070666
 O    3.771476    0.347758    1.442642
 N    3.935153    0.684152   -1.075684
 H   -3.576430   -1.395364    0.621517
 H   -3.496108   -1.378738   -1.162059
 H   -5.835179   -1.405637   -0.525869
 H   -5.465401    0.193102   -1.178210
 H   -5.626534   -0.510181    1.794306
 H   -5.251684    1.088893    1.144288
 H   -6.843579    0.378772    0.878421
 H    4.607283    0.215389   -1.659082
 H    4.236149    1.603213   -0.795438
