34 
4wr8_ligand_ani.xyz
 O   -7.380580    0.419078   -0.069671
 C   -6.028556    0.267848   -0.015355
 C   -5.494661   -0.898091   -0.566225
 C   -4.126948   -1.115446   -0.535815
 C   -5.186296    1.215980    0.561037
 C   -3.812994    0.999725    0.581057
 C   -3.283664   -0.163212    0.033690
 N   -1.875356   -0.385451    0.046152
 C   -0.866214    0.509246   -0.089664
 N   -1.382457   -1.626662    0.201062
 N   -0.096714   -1.550953    0.180847
 C    0.277939   -0.249914    0.001841
 C    1.694706    0.154598   -0.058307
 C    2.019711    1.526320   -0.273243
 N    2.600737   -0.781957    0.097560
 C    3.909954   -0.422349    0.058470
 C    4.342579    0.912442   -0.142504
 C    3.333236    1.896307   -0.313074
 C    4.880789   -1.447150    0.232233
 C    6.215287   -1.144003    0.208202
 C    6.647781    0.192381    0.009105
 C    5.732025    1.197336   -0.162815
 H   -7.619604    1.254902    0.349876
 H   -6.167569   -1.626985   -1.007843
 H   -3.697263   -2.024882   -0.946491
 H   -5.596826    2.127004    0.993506
 H   -3.156108    1.732792    1.041408
 H   -1.053699    1.560039   -0.254011
 H    1.233392    2.264851   -0.401295
 H    3.618052    2.933948   -0.472223
 H    4.512975   -2.458056    0.382559
 H    6.954849   -1.929295    0.342540
 H    7.712399    0.410438   -0.005564
 H    6.052525    2.225676   -0.316244
