38 
4wsy_ligand_ani.xyz
 C   23.021299  -40.037792   -2.442554
 C   23.199404  -40.297055   -3.820028
 C   24.448843  -40.683964   -4.380563
 C   24.560154  -40.923935   -5.722818
 C   23.431677  -40.790687   -6.571360
 C   22.217090  -40.420386   -6.058258
 C   22.072357  -40.164549   -4.669769
 N   20.839986  -39.798832   -4.203325
 C   20.726537  -39.564113   -2.924389
 C   21.782045  -39.662331   -1.973008
 C   21.476520  -39.370187   -0.571663
 C   20.599074  -38.434629    0.001502
 C   19.773033  -37.406029   -0.495797
 N   21.998661  -40.043447    0.478465
 N   21.533412  -39.677694    1.677597
 C   20.673068  -38.689788    1.395768
 C   19.876404  -37.927795    2.301388
 C   19.069764  -36.951522    1.791443
 C   19.002862  -36.668110    0.392136
 C   18.123618  -35.607148   -0.098658
 S   17.504818  -35.633549   -1.735366
 C   17.676741  -34.474093    0.508392
 N   16.878129  -33.632683   -0.228995
 C   16.699317  -34.120216   -1.419855
 N   15.978960  -33.478118   -2.398145
 H   23.873347  -40.127156   -1.770089
 H   25.310947  -40.784345   -3.723487
 H   25.514878  -41.219032   -6.150353
 H   23.538214  -40.985475   -7.635567
 H   21.335175  -40.310373   -6.681816
 H   19.738281  -39.284018   -2.555080
 H   19.750908  -37.164893   -1.551908
 H   22.637218  -40.828740    0.433474
 H   19.926431  -38.133788    3.363029
 H   18.448082  -36.377443    2.473091
 H   17.939126  -34.182129    1.518434
 H   15.492747  -34.061644   -3.063460
 H   15.419875  -32.720310   -2.030407
