47 
4wt6_ligand_xtb.xyz
 C  -40.404505   -2.876207    5.282321
 C  -39.063267   -2.176397    5.087816
 C  -39.463007   -0.714351    4.913187
 C  -40.699405   -0.788844    4.016118
 C  -41.360060   -2.159206    4.316598
 N  -42.683504   -2.054973    4.875110
 C  -43.784606   -1.789062    4.115825
 N  -43.657474   -1.831991    2.793882
 C  -45.013047   -1.523396    4.746433
 C  -46.117800   -1.311896    3.953335
 C  -45.986684   -1.358729    2.573461
 C  -44.729331   -1.621571    2.027781
 C  -44.530871   -1.665044    0.587201
 C  -43.306935   -1.942920   -0.113514
 C  -42.014378   -2.244857    0.293303
 C  -45.475608   -1.444129   -0.384407
 N  -44.921030   -1.566210   -1.624968
 C  -43.598135   -1.871420   -1.496875
 C  -42.626037   -2.092839   -2.467558
 C  -41.354586   -2.392009   -2.044600
 C  -41.043072   -2.471391   -0.671453
 C  -39.690013   -2.800732   -0.298580
 S  -39.193901   -2.995631    1.398619
 N  -38.717486   -2.993455   -1.115104
 N  -37.553449   -3.290824   -0.555825
 C  -37.598564   -3.343440    0.733377
 N  -36.558587   -3.701751    1.523157
 H  -40.748525   -2.733044    6.309202
 H  -40.353146   -3.945519    5.087811
 H  -38.591344   -2.539662    4.173954
 H  -38.381861   -2.334681    5.922974
 H  -38.669565   -0.111256    4.474091
 H  -39.719598   -0.285417    5.883656
 H  -40.409091   -0.741810    2.967733
 H  -41.397337    0.026490    4.203446
 H  -41.469543   -2.730385    3.393042
 H  -42.739628   -1.785022    5.845533
 H  -45.075374   -1.492279    5.824005
 H  -47.080168   -1.107541    4.402068
 H  -46.841845   -1.192078    1.940030
 H  -41.790312   -2.295619    1.345837
 H  -46.516632   -1.203598   -0.287640
 H  -45.411980   -1.450592   -2.495443
 H  -42.866003   -2.032867   -3.518946
 H  -40.562784   -2.575616   -2.752701
 H  -35.657259   -3.707469    1.074152
 H  -36.580662   -3.420763    2.488555
