25 
4wup_ligand_xtb.xyz
 C    0.562885   -0.693516   -0.643862
 C    1.500480    0.181799   -0.137092
 O    3.437372   -1.355737   -1.038838
 S    3.209580   -0.302325   -0.093054
 O    4.044089    0.863013   -0.115993
 N    3.299962   -0.972142    1.454676
 C    1.131018    1.416282    0.363574
 C   -0.201951    1.771381    0.366663
 C   -1.164226    0.890895   -0.133776
 C   -0.775697   -0.342117   -0.648602
 S   -2.829108    1.471508   -0.088096
 C   -3.850223    0.023686   -0.486468
 C   -3.887635   -0.977022    0.660843
 O   -4.613001   -2.099688    0.214956
 H    0.895170   -1.637880   -1.044316
 H    3.546211   -1.948071    1.419833
 H    3.934803   -0.456855    2.042716
 H    1.894943    2.080845    0.733111
 H   -0.520008    2.728293    0.750692
 H   -1.496652   -1.029648   -1.060145
 H   -3.493517   -0.443751   -1.402631
 H   -4.848322    0.420667   -0.668449
 H   -4.369361   -0.512750    1.532371
 H   -2.864008   -1.262823    0.946047
 H   -4.702140   -2.728994    0.937768
