25 
4wup_ligand_dft.xyz
 C   13.066718   36.804678   18.455939
 C   14.041191   36.032754   19.077002
 O   14.663798   38.045276   20.634099
 S   15.249149   36.819041   20.114820
 O   15.811278   35.796532   20.983940
 N   16.447809   37.291088   19.038416
 C   14.081839   34.653505   18.895732
 C   13.148197   34.049096   18.067852
 C   12.162869   34.812081   17.428055
 C   12.126688   36.194765   17.634793
 S   10.998536   33.912005   16.436610
 C   10.159848   35.190385   15.461909
 C   11.040768   35.813135   14.387870
 O   10.260270   36.806440   13.755228
 H   13.030793   37.875003   18.629283
 H   16.621130   38.286699   19.135934
 H   17.291662   36.746254   19.185642
 H   14.833438   34.061260   19.406421
 H   13.180893   32.974193   17.916876
 H   11.365705   36.810077   17.168216
 H    9.737313   35.963018   16.110223
 H    9.316120   34.675746   14.993563
 H   11.359483   35.029983   13.684775
 H   11.946376   36.239890   14.843794
 H   10.788429   37.203397   13.053709
