92 
4wvs_ligand_dft.xyz
 N   -1.087669    0.282251    1.737013
 C   -1.592838   -0.382829    2.961988
 C   -2.100811    0.462037    0.634016
 C   -3.330786    1.208688    1.120376
 C   -1.284418    1.121743   -0.485944
 O   -0.656331    0.429567   -1.266586
 C   -1.445315    5.820563    0.938580
 C   -0.823600    5.293025    0.052146
 C   -0.091781    4.598396   -1.007130
 C    0.085695    3.098034   -0.700157
 N   -1.199406    2.481112   -0.438853
 C    0.957336    2.893114    0.563271
 O    0.418434    2.655843    1.652213
 N    2.289045    3.007867    0.442045
 C    3.032112    2.930795   -0.822179
 C    2.831247    1.593788   -1.555055
 O    3.054343    1.504843   -2.751384
 C    4.492855    3.112672   -0.372537
 C    4.517207    2.494203    1.028539
 C    3.166745    2.894933    1.621747
 N    2.398101    0.565728   -0.792478
 C    2.154510   -0.746748   -1.327905
 C    1.311891   -1.491358   -0.298069
 O    1.148092   -1.053124    0.849704
 C    3.467027   -1.500555   -1.692440
 C    4.560426   -1.297437   -0.673341
 C    5.621213   -0.432511   -0.949867
 C    4.517648   -1.937791    0.567197
 C    6.622429   -0.211781   -0.007175
 C    5.509343   -1.708732    1.515892
 C    6.564414   -0.844516    1.231494
 C    1.290486   -4.687839    0.484357
 N    0.773572   -2.651662   -0.709650
 O    2.351853   -4.754478   -0.084514
 N   -6.618189    1.743101   -0.148376
 N   -6.667403    1.202379    0.959163
 N   -6.666515    0.833652    2.031752
 C    0.223732   -3.629261    0.202213
 C   -1.064300   -4.274295   -0.346327
 C   -2.234088   -3.324321   -0.435216
 O   -5.593413   -0.867973   -0.608774
 C   -4.485445   -1.648791   -0.621285
 C   -5.850484   -0.008822   -1.703997
 C   -7.001021    0.888024   -1.282285
 C   -2.473454   -2.566102   -1.578094
 C   -3.143611   -3.216630    0.625898
 C   -3.588458   -1.734974   -1.685674
 C   -4.254383   -2.390471    0.543400
 O    0.891941   -5.538735    1.435128
 H   -0.658056    1.206584    1.948499
 H   -0.296082   -0.284358    1.358957
 H   -2.287801    0.274408    3.483180
 H   -2.096254   -1.306530    2.670986
 H   -0.740647   -0.604631    3.604919
 H   -2.356273   -0.540110    0.293487
 H   -3.076167    2.107654    1.694194
 H   -3.951984    0.568876    1.751933
 H   -3.944108    1.514558    0.268103
 H   -0.630432    4.691268   -1.955829
 H    0.891707    5.060505   -1.146710
 H    0.523259    2.606136   -1.569863
 H   -1.704066    2.946384    0.306829
 H    2.731967    3.712353   -1.524370
 H    5.186985    2.640479   -1.070276
 H    4.724259    4.181512   -0.328187
 H    5.353683    2.852314    1.631640
 H    4.599478    1.405233    0.959558
 H    2.758051    2.162110    2.320934
 H    3.203347    3.863133    2.131323
 H    2.303276    0.652936    0.208844
 H    1.550618   -0.640457   -2.235607
 H    3.789730   -1.111299   -2.660830
 H    3.258148   -2.569378   -1.817166
 H    5.661820    0.067372   -1.914723
 H    3.717617   -2.641398    0.782185
 H    7.447692    0.454055   -0.241964
 H    5.467349   -2.217299    2.474377
 H    7.343650   -0.675361    1.968285
 H    1.058469   -2.998740   -1.616115
 H    0.005427   -3.115330    1.141623
 H   -0.849207   -4.702004   -1.333389
 H   -1.319921   -5.113931    0.306377
 H   -6.120112   -0.586274   -2.598011
 H   -4.965923    0.602230   -1.929557
 H   -7.257001    1.563918   -2.099895
 H   -7.882407    0.281874   -1.044419
 H   -1.787365   -2.625788   -2.417745
 H   -2.995315   -3.814004    1.523124
 H   -3.745386   -1.179390   -2.602710
 H   -4.971503   -2.321097    1.355123
 H    1.597411   -6.195920    1.557644
 H   -1.977167    6.323393    1.716003
