27 
4ww8_ligand_ani.xyz
 O   -3.560592    0.582191    1.492194
 S   -3.176146    0.481303    0.093248
 O   -3.318828    1.608769   -0.815203
 N   -4.035222   -0.816918   -0.521954
 C   -1.497969   -0.077736   -0.019598
 C   -0.550632    0.752354   -0.606366
 C    0.776024    0.344912   -0.667945
 C    1.154747   -0.893339   -0.142934
 C    0.186613   -1.719163    0.438364
 C   -1.138878   -1.315542    0.506065
 S    2.801579   -1.542069   -0.211370
 C    3.826473   -0.076298   -0.489651
 C    3.878375    0.905281    0.679069
 C    4.806634    2.081461    0.387261
 H   -4.802918   -1.029694    0.108055
 H   -4.367041   -0.615756   -1.459931
 H   -0.860783    1.710236   -1.009445
 H    1.504225    1.004939   -1.126272
 H    0.482027   -2.684836    0.837904
 H   -1.890704   -1.956875    0.958252
 H    3.514156    0.414778   -1.418261
 H    4.824325   -0.488945   -0.678630
 H    4.214990    0.370894    1.575038
 H    2.867827    1.269833    0.898771
 H    5.828328    1.738271    0.186067
 H    4.465291    2.648601   -0.486560
 H    4.846949    2.769986    1.237130
