55 
4wx4_ligand_ani.xyz
 C   -5.096235   -0.476898   -0.065232
 C   -5.399110    0.398234   -1.110020
 C   -6.742149    0.648804   -1.350747
 C    1.304029    3.310201    0.186917
 C    1.742389    1.982011    0.341315
 C    0.825699    0.948395    0.220436
 C   -0.524820    1.200291   -0.022342
 C   -0.944779    2.516994   -0.178925
 C   -0.042819    3.568758   -0.078310
 C    3.205548    1.736082    0.600098
 C    4.008595    0.947491   -0.471973
 C    3.751158   -0.552417   -0.286897
 C   -1.447492    0.027652   -0.128100
 C    3.418911   -1.386197   -1.358377
 C    3.268891   -2.753142   -1.151043
 C    3.432586   -3.328120    0.101530
 C    3.756805   -2.487238    1.158995
 C    3.918269   -1.119756    0.981895
 C    1.836762    5.612159    0.149542
 N   -7.717208    0.092050   -0.635627
 C   -7.314806   -0.736329    0.330390
 N   -6.060509   -1.052561    0.648024
 C   -3.680354   -0.844271    0.303845
 N   -2.767886    0.272931    0.151954
 C   -8.366739   -1.384190    1.150846
 N   -9.615748   -1.217532    1.024779
 O    3.738178    2.115737    1.617038
 O    2.252872    4.271176    0.275931
Cl    2.862262   -3.778208   -2.497397
Cl    3.967785   -3.175324    2.742757
 C    3.587610    1.465738   -1.851035
 C    5.501158    1.245450   -0.258314
 O   -1.040504   -1.081561   -0.434870
 H   -4.617057    0.858507   -1.702374
 H   -7.053976    1.325104   -2.146863
 H    1.147937   -0.082544    0.327201
 H   -1.983784    2.742690   -0.412839
 H   -0.402699    4.584621   -0.202657
 H    3.283350   -0.993175   -2.360759
 H    3.310256   -4.395134    0.250444
 H    4.164527   -0.500999    1.840899
 H    1.403288    5.804549   -0.840772
 H    1.102309    5.877303    0.921512
 H    2.733340    6.219887    0.277211
 H   -3.305609   -1.640732   -0.345571
 H   -3.687448   -1.240096    1.326783
 H   -2.987446    1.115148    0.663059
 H   -7.977377   -2.054932    1.920073
 H   -9.794246   -0.556156    0.255475
 H    2.552497    1.201602   -2.088451
 H    3.665750    2.557062   -1.860110
 H    4.245316    1.072637   -2.633003
 H    5.682883    2.322067   -0.337322
 H    5.842080    0.912071    0.724842
 H    6.095753    0.735305   -1.023558
