28 
4x0u_ligand_xtb.xyz
 C    3.867186   -0.317857   -0.069536
 O    4.636136    0.584585    0.174248
 C    2.418404   -0.231199   -0.050302
 C    1.777034    0.969943    0.270583
 C    0.408946    1.065978    0.286825
 C   -0.406352   -0.043974   -0.012737
 C    0.248673   -1.250527   -0.330443
 C    1.618993   -1.336489   -0.351075
 N   -1.766698    0.045605    0.003936
 C   -2.616790   -1.023233   -0.472798
 C   -2.962803   -2.030559    0.625497
 C   -2.454777    1.217112    0.501037
 C   -2.686507    2.266639   -0.587528
 H    4.249437   -1.325542   -0.339171
 H    2.388829    1.829852    0.499727
 H   -0.032004    2.020002    0.523846
 H   -0.320244   -2.138183   -0.553085
 H    2.088759   -2.278614   -0.597938
 H   -2.134523   -1.530084   -1.311750
 H   -3.538598   -0.574656   -0.853707
 H   -2.060943   -2.485809    1.025997
 H   -3.484973   -1.537128    1.441986
 H   -3.604003   -2.812292    0.226761
 H   -1.889599    1.650498    1.329206
 H   -3.419523    0.894580    0.902511
 H   -1.740771    2.601995   -1.004634
 H   -3.284923    1.850835   -1.394877
 H   -3.211176    3.123613   -0.173560
