46 
4x1f_ligand_dft.xyz
 C    2.081420   -0.392277   -2.054302
 C    2.190565   -0.436565   -0.519403
 C    1.548092   -1.721199    0.009150
 C    0.020876   -1.701080   -0.172827
 C   -0.636657   -0.439241    0.419051
 C   -2.151003   -0.385954    0.234830
 C   -2.920658   -1.551746    0.216218
 C   -4.303023   -1.526588    0.080345
 C   -4.955894   -0.302456   -0.039069
 O   -6.306756   -0.193617   -0.177550
 C   -4.211692    0.871111   -0.015905
 C   -2.824969    0.843174    0.120057
 C   -2.085966    2.166759    0.107004
 C   -0.633975    2.058713    0.563101
 C    0.033393    0.853903   -0.095581
 C    1.530175    0.772155    0.170299
 C    2.427295    1.963268   -0.202426
 C    3.842892    1.347501   -0.346415
 C    3.679359   -0.193293   -0.137085
 O    4.525448   -0.964851   -0.973179
 C    3.951016   -0.531605    1.274784
 C    4.228103   -0.780797    2.421421
 H    2.642252   -1.224546   -2.485832
 H    1.042958   -0.477557   -2.382293
 H    2.483669    0.531183   -2.480224
 H    1.973629   -2.598680   -0.491428
 H    1.774538   -1.823093    1.077661
 H   -0.382723   -2.594842    0.314151
 H   -0.247174   -1.786036   -1.233262
 H   -0.438669   -0.466350    1.504430
 H   -2.438615   -2.518964    0.311670
 H   -4.866318   -2.457549    0.068126
 H   -6.693076   -1.077331   -0.175811
 H   -4.733573    1.819807   -0.108005
 H   -2.107622    2.562493   -0.918246
 H   -2.629692    2.892889    0.722472
 H   -0.102127    2.984174    0.314107
 H   -0.582538    1.945361    1.655113
 H   -0.137218    0.932280   -1.180210
 H    1.647401    0.610362    1.253575
 H    2.100991    2.416369   -1.145649
 H    2.396225    2.748812    0.557289
 H    4.252915    1.499759   -1.348858
 H    4.556079    1.766658    0.368368
 H    5.423491   -0.890079   -0.628094
 H    4.459575   -1.010082    3.437311
