67 
4x5y_ligand_dft.xyz
 C   -5.533286   -1.564260   -0.025242
 C   -4.323024   -1.003104   -0.439670
 C   -3.203221   -1.871512   -0.365814
 N   -3.350095   -3.123590    0.073065
 N   -5.702667   -2.818885    0.410474
 F   -4.952062    3.275843    0.565673
 C   -6.197299    3.127478    0.092595
 F   -6.643958    4.343102   -0.265659
 F   -6.968242    2.692839    1.100008
 C   -6.234311    2.181818   -1.095781
 C   -5.742437    0.804872   -0.768114
 S   -6.835496   -0.413988   -0.149546
 C   -4.464508    0.358979   -0.863948
 C   -4.580730   -3.519750    0.425517
 N   -1.966821   -1.464799   -0.766405
 C   -0.770833   -2.245989   -0.502819
 C    0.296297   -1.907528   -1.543750
 C    1.596226   -2.646671   -1.251706
 C   -0.244583   -1.997278    0.915149
 C    1.088431   -2.687828    1.159710
 N    2.094182   -2.321743    0.115501
 C    3.452694   -2.951136    0.395267
 C    4.481267   -1.872151    0.576017
 C    5.235313   -1.370170   -0.480293
 C    5.367052   -2.035697   -1.827122
 C    4.435097   -1.194923    1.819023
 C    4.931837    0.074178    1.974483
 C    5.482396    0.670702    0.836291
 C    5.760697   -0.068653   -0.323429
 C    6.223302    0.878354   -1.300025
 C    6.067255    2.113865   -0.737128
 C    6.300408    3.377846   -1.349396
 N    6.477440    4.405783   -1.857054
 N    5.609054    2.026150    0.581508
 C    4.455081    2.892567    1.013266
 C    3.168375    2.124536    0.857388
 C    2.299693    1.680423    1.871503
 N    1.549045    0.656557    1.463294
 N    1.904673    0.392388    0.172375
 C    2.849112    1.273245   -0.200726
 H   -5.607370    2.623755   -1.875385
 H   -7.262286    2.167556   -1.469485
 H   -3.657512    0.986783   -1.226147
 H   -4.660150   -4.547379    0.772224
 H   -1.823032   -0.467159   -0.841638
 H   -1.059213   -3.296806   -0.602904
 H    0.502426   -0.831529   -1.524587
 H   -0.050893   -2.182008   -2.544687
 H    2.380215   -2.350356   -1.953563
 H    1.466232   -3.734450   -1.311478
 H   -0.968871   -2.379398    1.641520
 H   -0.108518   -0.924515    1.098762
 H    0.995462   -3.781170    1.152310
 H    1.504434   -2.366365    2.116932
 H    2.142666   -1.216660    0.128017
 H    3.667574   -3.634465   -0.427685
 H    3.340944   -3.551654    1.301311
 H    5.141572   -3.104574   -1.801054
 H    4.706018   -1.565831   -2.566889
 H    6.389772   -1.931859   -2.202912
 H    3.901180   -1.655520    2.646027
 H    4.791421    0.624963    2.895998
 H    6.589335    0.684508   -2.298229
 H    4.522751    3.803988    0.411960
 H    4.610394    3.182016    2.056420
 H    2.208726    2.057348    2.885291
 H    3.301543    1.212219   -1.184361
