67 
4x5y_ligand_xtb.xyz
 C   -6.401549   -1.627416   -0.382149
 C   -5.264518   -0.794419   -0.440828
 C   -4.051757   -1.436939   -0.094128
 N   -4.031563   -2.720125    0.237770
 N   -6.375203   -2.909018   -0.058253
 F   -6.305029    3.308461    0.098173
 C   -7.562809    2.959147   -0.224759
 F   -8.209411    4.100364   -0.503999
 F   -8.114811    2.464352    0.888489
 C   -7.606786    1.980500   -1.390266
 C   -6.914677    0.705831   -1.033495
 S   -7.847575   -0.755107   -0.782976
 C   -5.580493    0.529700   -0.817834
 C   -5.182119   -3.388156    0.230170
 N   -2.862343   -0.763224   -0.118946
 C   -1.668533   -1.363767    0.401134
 C   -0.461366   -1.078422   -0.498930
 C    0.772790   -1.767130    0.062432
 C   -1.347255   -0.891243    1.828993
 C   -0.082233   -1.568374    2.337131
 N    1.052761   -1.285375    1.433935
 C    2.361665   -1.802390    1.939418
 C    3.470975   -1.216751    1.107419
 C    4.331176   -2.001675    0.356911
 C    4.252699   -3.500617    0.340165
 C    3.572280    0.190111    1.109415
 C    4.513114    0.859070    0.371711
 C    5.410933    0.088857   -0.367900
 C    5.323404   -1.335924   -0.382128
 C    6.371909   -1.789558   -1.210211
 C    7.041911   -0.662327   -1.644065
 C    8.155471   -0.625243   -2.494538
 N    9.056862   -0.635414   -3.205762
 N    6.457305    0.467423   -1.137138
 C    6.954616    1.824048   -1.331270
 C    6.882206    2.603231   -0.064875
 C    7.420229    2.282460    1.187034
 N    7.021937    3.180409    2.081414
 N    6.254882    4.072627    1.488727
 C    6.142066    3.762088    0.201275
 H   -7.126008    2.472529   -2.240464
 H   -8.655172    1.795993   -1.627680
 H   -4.862916    1.323632   -0.926404
 H   -5.128445   -4.433220    0.498656
 H   -2.904259    0.240312   -0.194113
 H   -1.880980   -2.438961    0.416016
 H   -0.292983   -0.000862   -0.569616
 H   -0.656609   -1.449522   -1.504273
 H    1.652642   -1.562989   -0.552426
 H    0.614010   -2.846648    0.109073
 H   -2.177930   -1.141181    2.488697
 H   -1.224578    0.195166    1.841224
 H   -0.223008   -2.650829    2.376990
 H    0.168310   -1.212021    3.338746
 H    1.172493   -0.264318    1.368716
 H    2.342780   -2.890468    1.901259
 H    2.462120   -1.486075    2.981174
 H    4.436837   -3.907949    1.333831
 H    3.278774   -3.850299   -0.003929
 H    5.005268   -3.903256   -0.328760
 H    2.908517    0.767126    1.742184
 H    4.586064    1.933344    0.397528
 H    6.633976   -2.797851   -1.462979
 H    6.351866    2.317369   -2.105520
 H    7.982502    1.732394   -1.702970
 H    8.055170    1.457182    1.459780
 H    5.563449    4.365244   -0.478328
