67 
4x5y_ligand_ani.xyz
 C   -6.667046   -1.330062   -0.122488
 C   -5.480543   -0.627743   -0.340371
 C   -4.296723   -1.382731   -0.138961
 N   -4.360296   -2.664336    0.222447
 N   -6.753021   -2.612668    0.242159
 F   -8.019307    2.970244    1.133395
 C   -8.582136    2.926777   -0.084438
 F   -8.950654    4.177203   -0.414013
 F   -9.695910    2.183324    0.006546
 C   -7.629713    2.375597   -1.127827
 C   -7.043579    1.042743   -0.775368
 S   -8.063277   -0.317084   -0.383545
 C   -5.725507    0.732224   -0.717859
 C   -5.574782   -3.197742    0.388633
 N   -3.079350   -0.826520   -0.331963
 C   -1.843174   -1.518049    0.000042
 C   -0.675681   -0.893924   -0.762120
 C    0.632534   -1.600235   -0.439219
 C   -1.548559   -1.531230    1.507197
 C   -0.223849   -2.222555    1.792122
 N    0.892343   -1.539335    1.055561
 C    2.241403   -2.050999    1.444141
 C    3.366669   -1.285236    0.775657
 C    4.321740   -1.929643   -0.010235
 C    4.242148   -3.400359   -0.295512
 C    3.417292    0.110839    0.960804
 C    4.427111    0.882987    0.418321
 C    5.403531    0.231182   -0.339514
 C    5.376984   -1.169280   -0.556018
 C    6.536070   -1.472794   -1.332999
 C    7.202824   -0.295673   -1.556282
 C    8.424353   -0.044563   -2.256994
 N    9.413174    0.194049   -2.814712
 N    6.509649    0.747437   -0.977086
 C    6.992557    2.108396   -0.846862
 C    7.933434    2.331821    0.289258
 C    9.303580    2.681514    0.298462
 N    9.759858    2.779810    1.524369
 N    8.713412    2.499476    2.395945
 C    7.653304    2.238956    1.671660
 H   -6.830268    3.109729   -1.260864
 H   -8.193596    2.319170   -2.065196
 H   -4.956084    1.467544   -0.935275
 H   -5.593465   -4.246984    0.682197
 H   -3.054674    0.174968   -0.446353
 H   -1.978009   -2.556608   -0.321961
 H   -0.585945    0.163720   -0.473689
 H   -0.868499   -0.929537   -1.838531
 H    1.479758   -1.139028   -0.948241
 H    0.584588   -2.654623   -0.739397
 H   -2.361767   -2.038577    2.033555
 H   -1.494466   -0.499869    1.881252
 H   -0.263199   -3.268701    1.460786
 H    0.000406   -2.221900    2.863492
 H    0.854112   -0.537973    1.331223
 H    2.288700   -3.116758    1.206569
 H    2.327331   -1.964839    2.533564
 H    4.418138   -4.000649    0.604629
 H    3.258836   -3.673703   -0.696401
 H    4.993212   -3.688155   -1.034987
 H    2.636756    0.588833    1.550856
 H    4.453902    1.958078    0.572520
 H    6.870129   -2.442708   -1.683857
 H    6.109344    2.750280   -0.748769
 H    7.468942    2.389508   -1.790093
 H    9.958426    2.861011   -0.548862
 H    6.706823    1.987494    2.138774
