54 
4x5z_ligand_ani.xyz
 C    4.878788    1.504851   -0.715115
 C    3.790831    0.634877   -0.624222
 C    2.526100    1.271312   -0.539970
 N    2.431431    2.600860   -0.558450
 N    4.805981    2.838714   -0.735541
 F    7.843607   -3.547314    0.430926
 C    7.310378   -2.312944    0.429496
 F    8.313932   -1.434356    0.282401
 F    6.756333   -2.102386    1.634093
 C    6.295121   -2.190490   -0.691005
 C    5.546763   -0.893365   -0.695312
 S    6.387361    0.631598   -0.795498
 C    4.202667   -0.737108   -0.619176
 C    3.567196    3.298568   -0.657000
 N    1.386540    0.544889   -0.461925
 C    0.096686    1.156791   -0.178140
 C   -1.032708    0.232137   -0.627082
 C   -2.394217    0.853491   -0.353557
 C   -0.079376    1.528234    1.301557
 C   -1.453592    2.130234    1.547076
 N   -2.527821    1.170565    1.126285
 C   -3.897443    1.639843    1.490203
 C   -4.968768    0.644127    1.119050
 C   -6.006640    1.017242    0.277254
 C   -6.976713    0.068931   -0.082164
 C   -8.130033    0.059754   -0.887117
 C   -8.624247   -1.264233   -0.790805
 C   -9.807960   -1.732072   -1.465339
 N  -10.763166   -2.058180   -2.027609
 N   -7.906632   -2.072845   -0.017569
 C   -6.878359   -1.282157    0.437949
 C   -5.830474   -1.640897    1.290236
 C   -4.886948   -0.681332    1.614220
 H    5.594964   -3.024098   -0.588525
 H    6.847137   -2.326793   -1.626946
 H    3.532658   -1.589576   -0.553099
 H    3.455605    4.382424   -0.673402
 H    1.496891   -0.440059   -0.275283
 H    0.065446    2.083019   -0.762151
 H   -0.961741   -0.714711   -0.072106
 H   -0.930074    0.002518   -1.691740
 H   -3.209939    0.184494   -0.631225
 H   -2.515069    1.789397   -0.912431
 H    0.700421    2.235669    1.597196
 H    0.024954    0.628152    1.922576
 H   -1.572989    3.053984    0.965748
 H   -1.592418    2.381341    2.603151
 H   -2.362049    0.286581    1.648243
 H   -4.086892    2.588921    0.976573
 H   -3.915889    1.840495    2.566499
 H   -6.063662    2.028543   -0.114747
 H   -8.569470    0.865025   -1.464318
 H   -5.773317   -2.657756    1.663393
 H   -4.053825   -0.949391    2.261211
