44 
4x6j_ligand_xtb.xyz
 C   -4.162398   -2.884955    0.311966
 C   -3.422783   -2.254264   -0.836502
 C   -2.760236    0.087089   -0.909429
 C   -1.810688    1.145051   -0.290464
 C   -1.956986    2.445549   -1.088710
 C   -1.211689    3.612343   -0.448383
 C   -1.679613    3.822109    0.987326
 C   -1.473322    2.544784    1.793624
 C   -2.239082    1.382184    1.168105
 C    0.237039   -0.192157    0.363121
 N   -2.599837   -1.148542   -0.413284
 N   -4.563215   -4.066327    0.411332
 O   -3.587829    0.373294   -1.751460
 N   -0.415469    0.723135   -0.376344
 O   -0.345324   -0.963945    1.133144
 C    1.704183   -0.234872    0.164961
 C    2.413085   -1.436166    0.406715
 C    3.798747   -1.455589    0.194002
 C    4.462329   -0.318968   -0.207429
 C    3.783729    0.878608   -0.401585
 C    2.418084    0.901099   -0.214270
 N    1.770529   -2.572816    0.769841
Cl    6.170198   -0.374569   -0.451342
 H   -4.376256   -2.222690    1.146415
 H   -4.154715   -1.847151   -1.546932
 H   -2.817895   -3.007921   -1.357841
 H   -3.020647    2.678084   -1.149046
 H   -1.608694    2.278682   -2.111025
 H   -1.387054    4.514779   -1.036636
 H   -0.134762    3.424479   -0.449094
 H   -2.739647    4.084165    0.988558
 H   -1.128243    4.646245    1.443855
 H   -1.817402    2.688735    2.819229
 H   -0.408790    2.300828    1.832380
 H   -2.074721    0.478139    1.753988
 H   -3.308529    1.602495    1.170938
 H   -1.893639   -1.310396    0.303147
 H   -4.350692   -4.664264   -0.387740
 H    0.125008    1.218407   -1.067964
 H    4.342722   -2.372876    0.359475
 H    4.319134    1.768561   -0.687536
 H    1.906366    1.845142   -0.333307
 H    0.834254   -2.460644    1.134821
 H    2.319610   -3.349160    1.094537
