44 
4x6j_ligand_ani.xyz
 C   -3.961272   -3.412573   -0.098079
 C   -3.155136   -2.529519   -1.010344
 C   -2.604759   -0.160165   -1.012452
 C   -1.872666    1.012428   -0.298474
 C   -2.133599    2.288163   -1.120912
 C   -1.583642    3.556654   -0.463497
 C   -2.134682    3.723405    0.954237
 C   -1.852630    2.478942    1.795262
 C   -2.417072    1.218521    1.133253
 C    0.265091   -0.162241    0.397612
 N   -2.695550   -1.338453   -0.325173
 N   -4.513215   -3.095167    0.995422
 O   -3.087670   -0.022127   -2.127090
 N   -0.422537    0.770447   -0.308343
 O   -0.308521   -0.966811    1.143890
 C    1.743960   -0.159228    0.203727
 C    2.498139   -1.324647    0.477716
 C    3.887076   -1.309313    0.265038
 C    4.511885   -0.157511   -0.174157
 C    3.797356    1.011686   -0.415839
 C    2.425333    0.985605   -0.225146
 N    1.911189   -2.486945    0.898445
Cl    6.233969   -0.170941   -0.419641
 H   -4.090428   -4.442096   -0.447767
 H   -3.769725   -2.208641   -1.856672
 H   -2.324983   -3.111466   -1.432955
 H   -3.218674    2.378638   -1.240434
 H   -1.727088    2.153346   -2.128259
 H   -1.839084    4.426104   -1.080522
 H   -0.485657    3.512250   -0.431052
 H   -3.221873    3.879412    0.899317
 H   -1.711390    4.616063    1.430717
 H   -2.284660    2.586187    2.796560
 H   -0.769903    2.358129    1.929223
 H   -2.193588    0.346798    1.748148
 H   -3.509774    1.302173    1.051258
 H   -2.033909   -1.473440    0.435030
 H   -4.294114   -2.111039    1.195929
 H    0.081102    1.269619   -1.025106
 H    4.468426   -2.209802    0.447592
 H    4.304408    1.908314   -0.756342
 H    1.873660    1.908326   -0.392129
 H    0.984010   -2.395216    1.291291
 H    2.515796   -3.186586    1.295555
