44 
4x6j_ligand_dft.xyz
 C   -5.200010   -2.321812   -0.144609
 C   -3.726074   -2.212619   -0.451061
 C   -2.292704   -0.268591   -0.802756
 C   -1.679113    1.033618   -0.225766
 C   -2.048828    2.161333   -1.211267
 C   -1.516416    3.530077   -0.779211
 C   -1.979973    3.885732    0.634598
 C   -1.604470    2.782484    1.625478
 C   -2.154932    1.422056    1.187818
 C    0.396294   -0.156397    0.388645
 N   -3.199971   -0.930578   -0.030645
 N   -5.808359   -3.299594    0.387717
 O   -2.001345   -0.620930   -1.933592
 N   -0.223992    0.880555   -0.247154
 O   -0.244556   -0.958681    1.073057
 C    1.872783   -0.235373    0.218881
 C    2.544224   -1.473701    0.382123
 C    3.938662   -1.509944    0.192128
 C    4.631187   -0.355362   -0.114407
 C    3.994629    0.878188   -0.242496
 C    2.621556    0.910954   -0.072188
 N    1.868156   -2.627535    0.666783
Cl    6.363351   -0.443596   -0.329198
 H   -5.794700   -1.448633   -0.431594
 H   -3.566030   -2.270433   -1.532967
 H   -3.171186   -3.041165    0.010830
 H   -3.143976    2.200564   -1.270047
 H   -1.694268    1.884572   -2.209659
 H   -1.850615    4.287903   -1.496271
 H   -0.418399    3.535187   -0.811187
 H   -3.071572    4.015155    0.633633
 H   -1.547770    4.842708    0.947300
 H   -1.986571    3.020502    2.624130
 H   -0.512601    2.718943    1.710162
 H   -1.854609    0.654014    1.906456
 H   -3.252037    1.470142    1.176145
 H   -3.174475   -0.752054    0.961689
 H   -5.145685   -4.048717    0.616616
 H    0.247604    1.254660   -1.057398
 H    4.469439   -2.451299    0.291104
 H    4.560662    1.776175   -0.457286
 H    2.115067    1.869940   -0.132708
 H    0.942850   -2.509184    1.059634
 H    2.407393   -3.414766    0.989697
