69 
4x7h_ligand_ani.xyz
 N    6.719898    1.003436   -2.421867
 N   -1.531872   -0.222400   -0.509372
 C    7.074607    0.454032   -1.228450
 C    6.133992   -0.074181   -0.321169
 C    6.572302   -0.646155    0.906880
 C    5.441322    1.028163   -2.716104
 C    4.403737    0.533782   -1.892035
 C   11.131539    0.306871   -0.185393
 C    1.893514    0.800323    0.400678
 C   -0.145755   -0.191798   -0.334016
 C   -2.451900    0.731933   -0.153412
 C   -4.304049   -1.043131   -0.650593
 C   -7.218663    0.707174   -1.102683
 C   -6.470895   -2.161048   -0.162792
 C   -7.064182   -4.471998   -0.437517
 C   -8.233436   -3.120533    1.174430
 C   -5.210106    2.432331    0.373535
 O   10.160880   -0.218770    0.693178
 C    8.871502   -0.136603    0.293407
 C    8.454774    0.411582   -0.889203
 C    7.906673   -0.682506    1.217804
 O    8.430598   -1.201223    2.353536
 C    7.522303   -1.749357    3.282008
 C    4.763642   -0.010988   -0.685838
 O    3.885743   -0.541332    0.218291
 C    2.535668   -0.366944    0.004680
 C    0.524232    0.902921    0.229842
 C    1.795578   -1.381556   -0.572460
 N    0.476288   -1.301139   -0.738333
 O   -2.146851    1.840783    0.266419
 C   -3.865452    0.305055   -0.311957
 O   -3.668881   -2.047283   -0.962011
 N   -5.693277   -1.034558   -0.546799
 C   -6.265138   -3.389292   -0.787273
 C   -8.046440   -4.345228    0.540652
 C   -7.451091   -2.027700    0.823814
 N   -6.137088    0.251415   -0.222708
 C   -5.014436    1.040479   -0.062255
 C   -4.504856    3.479827   -0.207479
 C   -4.777423    4.781519    0.200995
 N   -5.674006    5.101316    1.135545
 C   -6.338617    4.088858    1.695162
 C   -6.152772    2.755433    1.352657
 H   -1.899515   -1.108615   -0.848912
 H    5.814628   -1.046554    1.572880
 H    5.181629    1.470024   -3.677904
 H    3.368959    0.594287   -2.215490
 H   11.124694   -0.218764   -1.148987
 H   10.977163    1.380303   -0.354943
 H   12.094221    0.152870    0.303513
 H    2.467884    1.612318    0.838787
 H   -6.919173    0.649123   -2.157329
 H   -8.095263    0.072353   -0.949092
 H   -7.485904    1.735913   -0.847320
 H   -6.907371   -5.428030   -0.931069
 H   -8.995891   -3.010561    1.941474
 H    9.141841    0.830920   -1.614241
 H    6.816221   -0.990786    3.643285
 H    6.963058   -2.586441    2.844887
 H    8.124008   -2.111581    4.116499
 H   -0.027887    1.784894    0.522887
 H    2.297326   -2.286713   -0.906275
 H   -5.482792   -3.485351   -1.530045
 H   -8.661487   -5.199696    0.809877
 H   -7.584353   -1.061187    1.296286
 H   -3.743457    3.294207   -0.955106
 H   -4.235821    5.610584   -0.248663
 H   -7.068486    4.357831    2.456264
 H   -6.736826    1.977167    1.832701
