57 
4x7j_ligand_ani.xyz
 C    9.549817   -2.269043   -1.221769
 N    9.034168   -1.988193    0.098773
 C    7.802329   -1.442190    0.271020
 N    7.179704   -0.965001   -0.784691
 N    7.351817   -1.443792    1.570681
 C    6.186825   -0.891397    1.767829
 C    5.399503   -0.317660    0.725210
 C    4.137242    0.294279    0.917563
 C    5.962351   -0.391225   -0.567137
 C    5.233508    0.146036   -1.658643
 C    4.008333    0.733658   -1.448824
 C    3.446380    0.816555   -0.153171
 C    2.144411    1.498900    0.049118
 C    0.953048    0.741954   -0.065948
 N    1.023191   -0.575120   -0.398986
 C    2.106388    2.856529    0.372225
 C    3.379150    3.657689    0.485569
 C    0.868359    3.455881    0.597960
 C   -0.302707    2.721788    0.484332
 C   -0.297063    1.371138    0.140008
 C   -1.568072    0.584418    0.041824
 O   -1.600543   -0.635040    0.193548
 N   -2.687428    1.317545   -0.248955
 C   -4.028170    0.885440   -0.318040
 C   -4.414673   -0.422071   -0.044920
 C   -5.000254    1.832764   -0.655465
 C   -6.341114    1.476288   -0.710632
 C   -6.730338    0.167642   -0.443035
 O   -8.033365   -0.218342   -0.573366
 C   -8.900568    0.238669    0.454774
 C   -5.759740   -0.778322   -0.105970
 C   -6.181109   -2.191601    0.199436
 F   -7.057225   -2.239414    1.223871
 F   -5.128859   -2.957817    0.546092
 F   -6.772732   -2.783096   -0.849762
 H    8.919047   -2.975783   -1.776087
 H    9.598098   -1.344313   -1.802561
 H   10.556481   -2.682650   -1.123795
 H    9.376646   -2.509654    0.889647
 H    5.810560   -0.877253    2.794760
 H    3.715325    0.349891    1.919230
 H    5.670692    0.080126   -2.649152
 H    3.448315    1.149410   -2.285300
 H    1.917321   -1.034666   -0.380617
 H    0.179130   -1.112360   -0.252187
 H    4.033489    3.243855    1.261830
 H    3.941491    3.625261   -0.454659
 H    3.166803    4.700546    0.730160
 H    0.819864    4.511885    0.857203
 H   -1.245014    3.219803    0.709683
 H   -2.538622    2.275786   -0.521263
 H   -3.664638   -1.155929    0.213780
 H   -4.712364    2.860211   -0.862721
 H   -7.099845    2.205830   -0.979822
 H   -8.619792   -0.188088    1.424939
 H   -8.904452    1.334336    0.525058
 H   -9.901109   -0.101048    0.180967
