57 
4x7j_ligand_xtb.xyz
 C    9.631172   -1.991354   -1.355104
 N    8.831948   -2.206879   -0.181171
 C    7.639779   -1.627217    0.036374
 N    7.144639   -0.799620   -0.862487
 N    7.050359   -1.975766    1.214913
 C    5.894843   -1.443233    1.477426
 C    5.248509   -0.538630    0.604574
 C    4.002526    0.058119    0.855882
 C    5.950455   -0.244406   -0.596621
 C    5.365487    0.650082   -1.518257
 C    4.153409    1.217024   -1.245877
 C    3.455060    0.932243   -0.052794
 C    2.142379    1.572528    0.202527
 C    0.974745    0.783258    0.123113
 N    1.060221   -0.517549   -0.247974
 C    2.074379    2.916986    0.533654
 C    3.318177    3.747138    0.631237
 C    0.830757    3.489363    0.798933
 C   -0.319146    2.739707    0.708238
 C   -0.282439    1.389980    0.352168
 C   -1.512115    0.576156    0.262639
 O   -1.532598   -0.635613    0.420886
 N   -2.641064    1.296678   -0.034967
 C   -3.955362    0.856183   -0.150150
 C   -4.346608   -0.453800    0.117408
 C   -4.925797    1.776527   -0.542336
 C   -6.251587    1.413909   -0.672434
 C   -6.654223    0.107297   -0.411419
 O   -7.920370   -0.357088   -0.509295
 C   -8.940226    0.526998   -0.909580
 C   -5.675034   -0.815846   -0.012705
 C   -6.111628   -2.224456    0.272443
 F   -7.029164   -2.292432    1.254161
 F   -5.102487   -3.018695    0.657313
 F   -6.663715   -2.821774   -0.799428
 H    9.792177   -2.929309   -1.891720
 H    9.092650   -1.295911   -1.994548
 H   10.601740   -1.565263   -1.090187
 H    9.160651   -2.831150    0.537542
 H    5.433958   -1.727929    2.417068
 H    3.486581   -0.169846    1.779385
 H    5.899721    0.865682   -2.430163
 H    3.700158    1.895799   -1.954023
 H    1.965883   -0.952608   -0.270016
 H    0.242703   -1.089933   -0.091147
 H    4.131384    3.179012    1.078192
 H    3.640635    4.062069   -0.361168
 H    3.137172    4.638321    1.227172
 H    0.774471    4.527704    1.089185
 H   -1.258479    3.208063    0.967564
 H   -2.506894    2.274785   -0.247033
 H   -3.611964   -1.181243    0.420978
 H   -4.639103    2.797812   -0.750575
 H   -6.969163    2.157406   -0.978721
 H   -9.054645    1.352875   -0.200807
 H   -8.754356    0.924439   -1.912065
 H   -9.851053   -0.068434   -0.920285
