19 
4x8u_ligand_xtb.xyz
 C    9.468150   34.776966   29.159167
 C    9.338908   34.412194   27.790770
 N    9.161367   36.093346   29.266622
 C    9.848528   33.848545   30.124992
 C    8.940052   35.575826   27.092225
 C    9.597035   33.095920   27.394447
 C    8.840780   36.583007   28.024535
 C   10.095858   32.559421   29.715633
 C    9.968925   32.198406   28.366083
 C    8.468711   37.984539   27.880418
Cl   10.296093   30.555067   27.926821
 O    8.179191   38.328737   26.618110
 O    8.421827   38.768066   28.801439
 H    9.154338   36.657360   30.101056
 H    9.945222   34.130198   31.161916
 H    8.748085   35.668909   26.042974
 H    9.505456   32.799002   26.362096
 H   10.390816   31.807770   30.430433
 H    7.938656   39.267722   26.581263
