22 
4xe1_ligand_ani.xyz
 C    0.420628   -0.660481    0.007141
 C   -0.882683   -0.191987    0.003951
 S   -2.365101   -1.168437   -0.006751
 O   -2.543012   -1.880807    1.244133
 O   -2.526221   -1.880745   -1.260120
 N   -3.297666    0.242435   -0.011962
 C   -2.627281    1.463559   -0.007136
 O   -3.179989    2.537802   -0.013913
 C   -1.172838    1.167745    0.006501
 C   -0.145901    2.107883    0.016665
 C    1.166829    1.666086    0.022592
 C    1.434131    0.293463    0.018296
 S    3.097995   -0.310213    0.092572
 O    3.651504   -0.076356    1.417511
 O    3.090961   -1.642530   -0.493761
 N    3.915779    0.727408   -0.935611
 H    0.677088   -1.713503   -0.004456
 H   -4.308139    0.193812   -0.039871
 H   -0.396054    3.162503    0.017072
 H    1.985593    2.379362    0.020431
 H    4.764239    1.041428   -0.474163
 H    4.120914    0.269378   -1.818001
