34 
4xh6_ligand_ani.xyz
 C    3.583288    0.491266   -0.161186
 C    2.847444   -0.695184   -0.106162
 C    1.434115   -0.669329   -0.069403
 C    0.792632    0.565376   -0.078555
 C    1.502263    1.759659   -0.129341
 C    2.891816    1.718116   -0.176267
 C    5.682567   -0.114484    0.760619
 C    0.642945   -1.900929   -0.019098
 C   -0.784513   -1.696969    0.014780
 C   -1.334616   -0.459299   -0.009820
 C   -2.780276   -0.149073    0.009887
 C   -3.730928   -1.158152   -0.183857
 C   -5.086577   -0.879312   -0.157368
 C   -5.518672    0.428387    0.066205
 C   -4.587481    1.449026    0.257840
 O    4.942763    0.527724   -0.270494
 O    3.504523   -1.857964   -0.103613
 O    3.644626    2.840794   -0.234079
 O   -0.565027    0.665291   -0.031385
 O    1.166516   -3.025158   -0.009453
 O   -6.859683    0.646423    0.083722
 C   -3.232187    1.159349    0.226807
 H    0.961718    2.700768   -0.133891
 H    5.244871    0.100459    1.743288
 H    5.730578   -1.195911    0.606649
 H    6.688395    0.310612    0.713433
 H   -1.396727   -2.585563    0.074981
 H   -3.417827   -2.180969   -0.375691
 H   -5.825071   -1.660924   -0.306545
 H   -4.922388    2.471655    0.428917
 H    2.813287   -2.569845   -0.079819
 H    3.056414    3.606350   -0.237502
 H   -7.027132    1.583347    0.245669
 H   -2.506786    1.952437    0.372446
