47 
4xiq_ligand_ani.xyz
 N    5.770165   -1.544844   -0.990294
 C   -2.560567    0.520406   -0.361423
 C   -3.912526   -0.050983   -0.271722
 C   -3.953252   -1.571003   -0.257934
 C   -2.742315   -2.263292    0.405187
 C   -1.448115   -1.766129   -0.270752
 C   -2.709865   -1.949897    1.906977
 C    2.890869   -1.195365   -1.007164
 C    3.218783    0.496682    0.673317
 C    1.008307    3.097048    0.827865
 O    5.799371   -0.577508    1.058846
 C    5.183656   -0.865007    0.047741
 C    3.736845   -0.521768   -0.123913
 C    1.554138   -0.840936   -1.098876
 C    1.892526    0.876924    0.565296
 O    1.415657    1.853817    1.399603
 C    0.214461    2.972679   -0.477624
 C   -0.795292    1.869983   -0.439870
 C    1.031306    0.186645   -0.312277
 N   -0.338170    0.555112   -0.389790
 C   -1.434484   -0.274252   -0.337317
 C   -2.862819   -3.773284    0.202323
 O   -4.930714    0.616278   -0.239183
 C   -2.164594    1.886371   -0.429093
 C   -3.095225    3.065708   -0.461115
 H    6.771261   -1.651819   -0.910069
 H    5.403175   -1.456101   -1.925321
 H   -4.011779   -1.892157   -1.308100
 H   -4.884534   -1.880907    0.223843
 H   -1.419452   -2.174355   -1.293295
 H   -0.567688   -2.156731    0.256734
 H   -3.624904   -2.308142    2.392964
 H   -1.856232   -2.447494    2.381916
 H   -2.625204   -0.874550    2.097119
 H    3.259327   -2.025376   -1.602816
 H    3.863862    0.997624    1.388151
 H    1.886577    3.738708    0.666436
 H    0.385653    3.547024    1.605543
 H    0.912988   -1.359419   -1.804544
 H    0.910958    2.805252   -1.310638
 H   -0.273714    3.933460   -0.676696
 H   -2.007495   -4.295766    0.646149
 H   -3.774517   -4.162162    0.671112
 H   -2.897086   -4.029388   -0.863310
 H   -3.789268    2.974029   -1.303469
 H   -3.715295    3.086522    0.442171
 H   -2.556124    4.016003   -0.545169
