45 
4xjt_ligand_ani.xyz
 C   -3.903195    1.304226   -2.264134
 C   -5.131606   -1.199492    1.014029
 C   -3.165107   -0.548690    2.424877
 C    1.021646   -1.898951   -0.205645
 C    3.665442   -0.976988   -0.145492
 C    5.096207   -0.524624   -0.066252
 C    2.609302   -0.043993    0.023290
 C    2.359937    3.575515    0.551477
 C    1.969262    2.133314    0.351438
 C    0.601555    1.781369    0.339676
 C    0.228613    0.469929    0.133975
 N   -1.086149    0.055178    0.089146
 C   -2.177980    1.020815    0.141096
 C   -3.519813    0.319166    0.054611
 C   -4.304492    0.417767   -1.107383
 C   -5.480923   -0.324066   -1.196138
 C   -5.893533   -1.135489   -0.146166
 C   -3.947053   -0.473150    1.134984
 C    1.270189   -0.515381   -0.017566
 C    2.064051   -2.774391   -0.386708
 C    3.388360   -2.301835   -0.371057
 O    5.679568   -0.308410    0.977892
 N    5.718928   -0.457713   -1.283957
 N    2.940841    1.267254    0.194034
 H   -3.861959    2.360040   -1.970860
 H   -2.919369    1.029998   -2.662405
 H   -4.626413    1.217588   -3.079571
 H   -5.455750   -1.822654    1.845540
 H   -3.020868    0.442194    2.870029
 H   -3.696494   -1.163263    3.155819
 H   -2.173970   -0.983896    2.268287
 H    0.003292   -2.283620   -0.192444
 H    1.907832    4.213889   -0.216903
 H    2.011989    3.942860    1.524324
 H    3.446549    3.676851    0.503083
 H   -0.139808    2.565566    0.472733
 H   -1.239837   -0.727469   -0.530886
 H   -2.084998    1.778896   -0.650043
 H   -2.098893    1.557831    1.093419
 H   -6.078616   -0.260866   -2.103564
 H   -6.813092   -1.710930   -0.228702
 H    1.868543   -3.831361   -0.549410
 H    4.208898   -2.996053   -0.529249
 H    6.632492   -0.026363   -1.284319
 H    5.173418   -0.395309   -2.130041
