66 
4xkb_ligand_xtb.xyz
 C    1.655547    0.538231   -0.634681
 C   -2.473808    2.980432   -0.427504
 C   -4.852219   -1.111515    0.381547
 C   -0.767559   -3.569697   -0.180181
 N   -0.589032    1.460759   -0.563626
 C    0.776667    1.579457   -0.563306
 C    1.146066    2.997032   -0.456658
 C   -0.022841    3.678472   -0.339887
 C   -1.084642    2.663692   -0.429507
 C   -0.260822    5.137260   -0.179246
 C    2.535612    3.537145   -0.407461
 C    3.118126    3.542723    1.025708
 C    3.414737    2.133337    1.472655
 O    4.467530    1.586822    1.255576
 O    2.445357    1.477689    2.111612
 N   -3.349004    0.775271    0.085776
 C   -3.494044    2.103587   -0.228247
 C   -4.925697    2.430134   -0.345384
 C   -5.573116    1.259019   -0.171974
 C   -4.547455    0.251467    0.098297
 C   -5.477091    3.773014   -0.659152
 N   -2.664833   -2.048679   -0.072477
 C   -3.974945   -2.149443    0.321880
 C   -4.272725   -3.542157    0.699072
 C   -3.100201   -4.199555    0.584400
 C   -2.121194   -3.227258    0.095907
 C   -5.592296   -4.042471    1.161020
 N    0.159636   -1.334091   -0.300367
 C    0.264189   -2.700415   -0.368050
 C    1.651338   -3.078427   -0.669234
 C    2.323892   -1.914211   -0.837920
 C    1.337695   -0.845533   -0.599355
 C    2.141116   -4.476664   -0.781969
 C    3.777180   -1.702700   -1.084759
 C    4.528361   -1.596934    0.257776
 C    6.005269   -1.365483   -0.016126
 O    6.712461   -2.211231   -0.493603
 O    6.477820   -0.152414    0.269680
 H    2.707508    0.776690   -0.721905
 H   -2.727772    4.018108   -0.602044
 H   -5.881026   -1.324168    0.644496
 H   -0.547756   -4.629700   -0.211401
 H   -0.838271    5.332287    0.724908
 H    0.676935    5.684597   -0.116779
 H   -0.826960    5.523860   -1.027236
 H    2.534590    4.565788   -0.773304
 H    3.196246    2.956485   -1.054004
 H    2.416571    4.027872    1.707744
 H    4.058113    4.096314    1.019864
 H    1.602516    1.951315    2.134201
 H   -6.630158    1.071176   -0.197604
 H   -6.564091    3.743396   -0.663231
 H   -5.149146    4.505211    0.078731
 H   -5.136012    4.105099   -1.639946
 H   -2.894516   -5.235065    0.781250
 H   -5.543773   -5.111155    1.356401
 H   -5.892864   -3.535270    2.078028
 H   -6.357163   -3.857884    0.406868
 H    3.197827   -4.495520   -1.035645
 H    2.002711   -5.004474    0.161753
 H    1.588742   -5.013687   -1.553138
 H    3.938861   -0.793754   -1.669067
 H    4.194771   -2.537934   -1.650060
 H    4.419781   -2.541642    0.793292
 H    4.107377   -0.796660    0.867635
 H    5.813407    0.443723    0.662959
