54 
4xnv_ligand_xtb.xyz
 F   -7.220768   -1.311765   -1.506969
 C   -7.563645   -0.545714   -0.450687
 F   -8.836322   -0.815605   -0.181159
 F   -7.523660    0.718820   -0.913560
 O   -6.828205   -0.750008    0.618062
 C   -5.438955   -0.497523    0.452860
 C   -4.607173   -1.524565    0.039708
 C   -3.253827   -1.283885   -0.084283
 C   -4.934390    0.760711    0.732544
 C   -3.579274    0.998991    0.607362
 C   -2.724567   -0.022661    0.196355
 N   -1.352036    0.149516    0.050337
 C   -0.608698    1.299929    0.245670
 O   -1.071012    2.360726    0.591498
 N    0.722272    1.078566   -0.004513
 C    1.774779    1.986854    0.114470
 C    1.643826    3.325471    0.442069
 C    2.788509    4.109308    0.536693
 C    4.016394    3.525245    0.305140
 N    4.156928    2.244063   -0.013164
 C    3.082588    1.498332   -0.113833
 O    3.183185    0.174908   -0.406495
 C    4.424489   -0.374238   -0.715000
 C    5.210402    0.236406   -1.680760
 C    6.423763   -0.312860   -2.044702
 C    6.841533   -1.483042   -1.441249
 C    6.043840   -2.096726   -0.491877
 C    4.817724   -1.570172   -0.099636
 C    3.941530   -2.262938    0.937814
 C    2.618942   -2.680243    0.277881
 C    4.591956   -3.528654    1.506909
 C    3.678678   -1.313652    2.116348
 H   -5.018141   -2.497043   -0.180207
 H   -2.600507   -2.082371   -0.405681
 H   -5.600285    1.548088    1.047722
 H   -3.176916    1.974012    0.822719
 H   -0.858817   -0.680990   -0.246276
 H    1.029094    0.154201   -0.275136
 H    0.665588    3.738150    0.622985
 H    2.712778    5.154191    0.789993
 H    4.940477    4.081495    0.370224
 H    4.862071    1.148178   -2.139142
 H    7.031676    0.170220   -2.793959
 H    7.788864   -1.926527   -1.708879
 H    6.401162   -3.010081   -0.047215
 H    2.118462   -1.825680   -0.166042
 H    2.808062   -3.408782   -0.508187
 H    1.957510   -3.129421    1.016202
 H    4.775417   -4.265479    0.728532
 H    5.527130   -3.296733    2.010476
 H    3.920728   -3.976686    2.237015
 H    4.622366   -0.968945    2.533716
 H    3.101251   -0.445047    1.818105
 H    3.126348   -1.834063    2.896317
