54 
4xsz_ligand_dft.xyz
 C   35.027100  -96.518092   -6.326742
 F   35.276091  -95.302080   -5.813694
 C   34.741888  -97.566685   -5.465667
 C   34.477337  -98.819540   -6.004811
 C   34.501454  -99.027556   -7.387756
 C   34.805442  -97.949460   -8.225735
 C   35.064652  -96.688678   -7.701885
 C   34.230811 -100.371243   -7.934886
 C   33.567375 -100.732808   -9.144811
 C   32.925388  -99.874935  -10.155315
 C   33.124323 -100.084130  -11.521317
 C   32.515904  -99.287908  -12.479547
 C   31.671477  -98.226293  -12.112520
 N   31.036698  -97.446759  -13.054561
 C   31.382407  -97.472716  -14.461077
 C   32.751827  -96.850343  -14.764030
 N   33.219571  -97.202949  -16.100365
 C   34.624660  -96.862045  -16.346640
 C   34.799513  -95.500684  -17.060998
 N   33.684608  -94.642227  -16.691416
 C   32.421069  -95.124658  -17.246492
 C   32.402637  -96.669335  -17.180250
 C   31.468127  -98.013973  -10.726945
 C   32.080763  -98.827978   -9.784414
 C   30.548426  -96.925056  -10.258815
 F   29.276846  -97.125752  -10.658421
 F   30.529310  -96.796509   -8.927509
 F   30.905124  -95.713327  -10.762539
 C   33.614264 -102.111878   -9.153232
 N   34.252261 -102.484961   -8.022356
 N   34.637582 -101.449119   -7.267010
 H   34.723232  -97.393408   -4.395313
 H   34.249692  -99.654864   -5.350895
 H   34.844694  -98.096663   -9.299992
 H   35.299931  -95.846071   -8.342524
 H   33.790270 -100.879588  -11.845657
 H   32.715177  -99.483822  -13.526937
 H   30.673459  -96.567705  -12.722620
 H   30.584829  -96.939021  -14.987423
 H   31.360873  -98.503694  -14.830720
 H   33.472877  -97.261043  -14.048980
 H   32.713019  -95.763221  -14.588689
 H   35.084497  -97.651997  -16.956407
 H   35.145368  -96.847975  -15.384997
 H   34.874824  -95.656430  -18.153988
 H   35.733676  -95.027681  -16.743188
 H   33.854357  -93.684519  -16.975934
 H   31.600704  -94.702410  -16.653091
 H   32.258420  -94.815396  -18.294396
 H   31.374244  -97.033273  -17.096482
 H   32.796417  -97.085435  -18.115430
 H   31.898424  -98.640098   -8.732484
 H   33.218500 -102.830492   -9.856150
 H   34.464582 -103.418512   -7.710947
