54 
4xsz_ligand_xtb.xyz
 C   34.737729  -96.668006   -6.017834
 F   34.895074  -95.481382   -5.391619
 C   34.468858  -97.795609   -5.263217
 C   34.308900  -99.004928   -5.911068
 C   34.411131  -99.087661   -7.298573
 C   34.699850  -97.937498   -8.030907
 C   34.860962  -96.721955   -7.394441
 C   34.249336 -100.381063   -7.953330
 C   33.706077 -100.679969   -9.235560
 C   33.068507  -99.788185  -10.194538
 C   33.234657  -99.971385  -11.567996
 C   32.627977  -99.142135  -12.482530
 C   31.809307  -98.077996  -12.073907
 N   31.154477  -97.280882  -12.964191
 C   31.365868  -97.312992  -14.389703
 C   32.699138  -96.668039  -14.813643
 N   33.145008  -97.210488  -16.087512
 C   34.539345  -96.933862  -16.397755
 C   34.735758  -95.598691  -17.152576
 N   33.575801  -94.763137  -16.905910
 C   32.378859  -95.315135  -17.519795
 C   32.319986  -96.829270  -17.216650
 C   31.642729  -97.902703  -10.683771
 C   32.255443  -98.745455   -9.770215
 C   30.788569  -96.786022  -10.173619
 F   29.510478  -96.847833  -10.614399
 F   30.713975  -96.727954   -8.840597
 F   31.233159  -95.566449  -10.570925
 C   33.856018 -102.047702   -9.355411
 N   34.432082 -102.480415   -8.216097
 N   34.673472 -101.491343   -7.365571
 H   34.387600  -97.716137   -4.190635
 H   34.102951  -99.902936   -5.350571
 H   34.809628  -97.996640   -9.103052
 H   35.082063  -95.823561   -7.948774
 H   33.868740 -100.771486  -11.920591
 H   32.795873  -99.310867  -13.532972
 H   30.760460  -96.423374  -12.615175
 H   30.523785  -96.792005  -14.848620
 H   31.350576  -98.349797  -14.734187
 H   33.452155  -96.936971  -14.068027
 H   32.606196  -95.574324  -14.822479
 H   34.909640  -97.759319  -17.016228
 H   35.105884  -96.930797  -15.466606
 H   34.880760  -95.793753  -18.230191
 H   35.622199  -95.081879  -16.781570
 H   33.734396  -93.815636  -17.230510
 H   31.517150  -94.798054  -17.088185
 H   32.352077  -95.164697  -18.612962
 H   31.291181  -97.140842  -17.035937
 H   32.692075  -97.392839  -18.076963
 H   32.093102  -98.589473   -8.715051
 H   33.576194 -102.717160  -10.143172
 H   34.683789 -103.424308   -7.968684
