54 
4xt9_ligand_ani.xyz
 N    0.631479   -0.690210   -2.061602
 C    4.846984    1.090083   -0.724721
 C    3.914522    0.582139   -1.618081
 C    3.911072   -0.772892   -1.953784
 C    2.850624   -1.336858   -2.872779
 C    1.595938   -1.675426   -2.079853
 C   -2.486019   -0.036169   -0.581582
 C   -3.832954   -0.782465    2.130372
 C   -4.998907   -2.570124    3.250312
 C   -3.617395   -3.045362    1.331400
 C   -4.290290    3.230709   -0.238668
 C   -5.623507    2.877127   -0.412816
 C   -5.938799    1.557515   -0.700119
 C    4.870313   -1.612072   -1.385268
 C    4.841249    1.215166    2.825667
 C    6.190239    0.542005    2.632461
 S    6.944414    0.862668    1.030752
 O    8.145367    0.035874    0.966211
 O    7.012719    2.312052    0.861462
 C    5.779958    0.229132   -0.156664
 C    5.813021   -1.119370   -0.492829
 O    1.462446   -2.717896   -1.471651
 C   -0.547926   -0.747145   -1.334860
 N   -1.397985    0.233215   -1.377414
 S   -0.963802   -2.081320   -0.313005
 C   -2.407804   -1.212911    0.141453
 C   -3.292708   -1.687735    1.208072
 C   -4.467071   -3.479922    2.341102
 C   -4.677538   -1.220670    3.144017
 C   -3.592743    0.939266   -0.574032
 C   -3.287278    2.282247   -0.333437
Cl   -3.881799    4.889106    0.095010
 C   -4.934569    0.599304   -0.793540
Cl   -5.398547   -1.017217   -1.225212
 H    0.747249    0.159697   -2.594877
 H    4.863448    2.145673   -0.468001
 H    3.179278    1.250153   -2.060931
 H    3.200313   -2.266016   -3.330483
 H    2.611823   -0.635610   -3.679566
 H   -3.585933    0.272401    2.044977
 H   -5.661358   -2.912562    4.041404
 H   -3.210415   -3.758959    0.619240
 H   -6.401619    3.628618   -0.335880
 H   -6.971996    1.263714   -0.857709
 H    4.878142   -2.667511   -1.648044
 H    4.923276    2.290778    2.649159
 H    4.084661    0.805065    2.148372
 H    4.498851    1.051727    3.851979
 H    6.140502   -0.546128    2.742140
 H    6.940094    0.920387    3.335694
 H    6.577602   -1.766037   -0.071070
 H   -4.712081   -4.535855    2.417956
 H   -5.088010   -0.505425    3.851725
 H   -2.246911    2.567517   -0.212619
