30 
4xta_ligand_xtb.xyz
 C   -3.642195    1.068007    0.371206
 C   -2.269253    1.196631    0.290402
Cl   -1.528709    2.717873    0.676939
 C   -1.442376    0.129791   -0.098177
 C   -2.085627   -1.065105   -0.451708
Cl   -1.163504   -2.387634   -1.087783
 C   -3.458070   -1.208276   -0.351615
 C   -4.237042   -0.144870    0.067761
 N   -0.081748    0.310659   -0.212159
 C    2.179418   -0.516518   -0.311867
 C    0.885116   -0.588109    0.223614
 C    0.607053   -1.550238    1.193922
 C    1.585317   -2.427565    1.617427
 C    2.863300   -2.355088    1.090152
 C    3.153469   -1.394144    0.137595
 C    2.505915    0.536440   -1.345151
 C    2.674943    1.835799   -0.580250
 O    3.885345    2.040155   -0.046772
 O    1.779264    2.613837   -0.397652
 H   -4.237011    1.912843    0.678966
 H   -3.909955   -2.148918   -0.623037
 H   -5.306531   -0.256136    0.143537
 H    0.212145    1.282133   -0.271676
 H   -0.381499   -1.590093    1.626398
 H    1.350955   -3.164804    2.370183
 H    3.630761   -3.038335    1.419154
 H    4.150422   -1.344463   -0.280308
 H    1.680357    0.639193   -2.050795
 H    3.417511    0.275814   -1.885449
 H    4.496025    1.311608   -0.221991
