66 
4xu2_ligand_xtb.xyz
 C    3.321259    2.856903    0.934035
 C    2.923193    1.319107   -0.602688
 C    1.826451    2.047660   -1.087531
 N    0.378527    3.929615   -0.662438
 C    1.983928    0.325480   -2.300908
 C   -4.291050    0.322764    1.040270
 N   -2.875899    0.492622    0.866264
 C   -2.577159    1.372154   -0.111111
 O   -1.473719    1.616769   -0.575117
 N   -3.746273    1.931244   -0.548541
 C   -4.886817    1.500043    0.219876
 C   -6.035506    0.997811   -0.659931
 S   -6.553391   -0.602150    0.030204
 C   -4.827535   -1.004167    0.456881
 C   -4.052725   -1.516365   -0.759399
 C   -2.978470   -2.530718   -0.363002
 C   -2.031572   -2.874487   -1.516720
 C   -0.937471   -1.819852   -1.719017
 C   -0.087771   -1.753676   -0.467054
 O    0.289738   -2.744140    0.123803
 N    0.226549   -0.507794   -0.018789
 S    0.479164   -0.348310    1.647649
 O   -0.763739   -0.764938    2.239686
 O    0.901413    0.990069    1.874644
 N    1.635580   -1.390524    2.126226
 C    3.012155   -0.949914    2.066556
 C    3.864452   -1.693483    1.026052
 O    3.197240   -1.823699   -0.224841
 C    5.188640   -0.955019    0.760845
 C    5.236567   -0.751723   -0.761058
 C    3.776531   -0.999138   -1.201067
 N    3.010242    0.202892   -1.395828
 N    1.273271    1.395369   -2.162076
 N    3.700317    1.701971    0.411871
 N    2.283097    3.603210    0.616369
 C    1.474554    3.202272   -0.367174
 O    6.119073   -1.622589   -1.413880
 H    3.938119    3.227347    1.742437
 H   -0.351617    3.414079   -1.132224
 H    0.104575    4.599980    0.038173
 H    1.823812   -0.413832   -3.061519
 H   -4.569348    0.386377    2.096044
 H   -2.176378   -0.009154    1.406320
 H   -3.757449    2.757058   -1.119699
 H   -5.245441    2.300073    0.880816
 H   -5.699042    0.842252   -1.685283
 H   -6.895252    1.662483   -0.656839
 H   -4.869519   -1.778028    1.223781
 H   -4.754775   -1.999348   -1.443580
 H   -3.599958   -0.677319   -1.288905
 H   -3.476312   -3.444077   -0.029809
 H   -2.394075   -2.154039    0.478434
 H   -1.536982   -3.820213   -1.290498
 H   -2.600407   -2.996908   -2.440461
 H   -1.347094   -0.836059   -1.943270
 H   -0.297236   -2.121961   -2.550377
 H   -0.228981    0.322971   -0.421819
 H    1.445973   -2.311083    1.745907
 H    2.990580    0.120057    1.851952
 H    3.468066   -1.097978    3.052026
 H    4.019631   -2.722151    1.377982
 H    5.182166    0.013844    1.254416
 H    6.054058   -1.526930    1.091556
 H    5.560057    0.253984   -1.031990
 H    3.743828   -1.547317   -2.153305
 H    5.888779   -2.532671   -1.188818
