66 
4xu2_ligand_ani.xyz
 C    7.430444    1.743792   -0.111959
 C    5.358146    0.999094   -0.245888
 C    4.856127    2.141180    0.359461
 N    5.420225    4.271332    1.316595
 C    3.165596    0.949197   -0.070481
 C   -5.487855   -0.226236   -0.669402
 N   -4.332430   -0.676468    0.076835
 C   -4.486167   -0.532239    1.427537
 O   -3.680488   -0.818927    2.304014
 N   -5.723038    0.051406    1.649571
 C   -6.548876    0.003152    0.451503
 C   -7.325160    1.300708    0.188722
 S   -7.011891    1.756195   -1.537931
 C   -5.311201    1.100565   -1.451779
 C   -4.326436    2.076363   -0.795661
 C   -2.880089    1.843031   -1.253195
 C   -1.830446    2.430057   -0.304984
 C   -1.532857    1.521773    0.895054
 C   -0.861988    0.248437    0.441419
 O   -0.136772    0.214943   -0.547266
 N   -1.087326   -0.884029    1.202659
 S   -1.112729   -2.378460    0.409202
 O   -2.109971   -2.335188   -0.657433
 O   -1.177448   -3.388279    1.440061
 N    0.359825   -2.458386   -0.333558
 C    1.527830   -2.392685    0.553101
 C    2.773768   -2.646828   -0.271081
 O    2.905747   -1.578270   -1.240045
 C    4.087746   -2.658742    0.504957
 C    5.073824   -2.138000   -0.541415
 C    4.228549   -1.056545   -1.233068
 N    4.251769    0.217838   -0.516369
 N    3.481103    2.094137    0.467320
 N    6.645209    0.744038   -0.503816
 N    7.099771    2.895819    0.485972
 C    5.802124    3.116328    0.733050
 O    5.429887   -3.130994   -1.480964
 H    8.493033    1.607253   -0.293233
 H    4.456369    4.388255    1.586963
 H    6.123961    4.902656    1.663321
 H    2.157436    0.572123   -0.187920
 H   -5.829311   -0.989404   -1.375447
 H   -3.585977   -1.269591   -0.290465
 H   -6.133435   -0.112136    2.558151
 H   -7.231536   -0.855818    0.474226
 H   -6.957740    2.085453    0.855573
 H   -8.400900    1.185689    0.342966
 H   -5.006192    0.897089   -2.484495
 H   -4.618906    3.104995   -1.031104
 H   -4.411251    1.981419    0.295321
 H   -2.760144    2.275782   -2.255314
 H   -2.688748    0.766874   -1.367928
 H   -0.892176    2.569828   -0.849584
 H   -2.151893    3.417574    0.048315
 H   -2.435852    1.286278    1.471392
 H   -0.841573    2.026226    1.582424
 H   -1.840868   -0.849939    1.898615
 H    0.376818   -1.736595   -1.055636
 H    1.601637   -1.406464    1.037616
 H    1.412960   -3.152049    1.331581
 H    2.634983   -3.582533   -0.831057
 H    4.041827   -1.958295    1.347713
 H    4.356460   -3.653126    0.871963
 H    5.999353   -1.746263   -0.122792
 H    4.554481   -0.886995   -2.263604
 H    4.639229   -3.342549   -1.996652
