45 
4xua_ligand_ani.xyz
 C   -3.990320    0.573777    1.863814
 C   -3.125696   -0.582172    1.465131
 C   -3.023234   -1.241326    0.262194
 N   -2.243371   -1.167021    2.326880
 N   -1.626570   -2.133497    1.719395
 N   -2.084330   -2.196332    0.471435
 C   -1.588972   -3.191705   -0.469799
 C   -0.754347   -2.586581   -1.602185
 N    0.537779   -2.086423   -1.159583
 C    1.609169   -2.883626   -0.895135
 N    2.620000   -2.225372   -0.404719
 C    2.219600   -0.917441   -0.351014
 C    3.146930    0.133861    0.086416
 C    4.241265   -0.208321    0.885347
 C    5.124276    0.768479    1.322912
 C    4.935061    2.097587    0.954869
 C    3.859704    2.443283    0.141463
 C    2.971256    1.468166   -0.294456
 C    0.904218   -0.808611   -0.789077
 C   -0.037803    0.323770   -0.783807
 C   -0.308408    0.996345    0.412292
 C   -1.238230    2.022264    0.450801
 C   -1.894676    2.417004   -0.717728
 C   -2.901731    3.450231   -0.660483
 N   -3.716933    4.271689   -0.600250
 C   -1.580828    1.800955   -1.930401
 C   -0.660837    0.762707   -1.956891
 H   -4.078020    1.300628    1.047976
 H   -5.001904    0.250974    2.133917
 H   -3.555258    1.077618    2.731122
 H   -3.516720   -1.124594   -0.695962
 H   -2.449258   -3.713522   -0.902872
 H   -0.998171   -3.905622    0.107296
 H   -1.312795   -1.782534   -2.083432
 H   -0.566636   -3.353454   -2.357863
 H    1.578671   -3.949958   -1.092891
 H    4.384185   -1.252794    1.149875
 H    5.966928    0.491543    1.951782
 H    5.627681    2.861501    1.298442
 H    3.712047    3.478452   -0.154126
 H    2.134506    1.736953   -0.936184
 H    0.192497    0.688974    1.327081
 H   -1.478907    2.517649    1.386275
 H   -2.064476    2.123736   -2.846147
 H   -0.418773    0.281273   -2.901977
