41 
4xuh_ligand_ani.xyz
 F    5.904085   -1.968699    0.578646
 S   -6.298635   -0.025242    0.604861
 C    2.123188    0.887419   -0.755169
 O    2.665875    2.496572    1.459193
 C    2.846636   -0.281036   -0.340384
 O    3.590693    4.111839    0.253385
 C    0.778150    0.574379   -0.842772
 C    1.927355   -1.347106   -0.186188
 C    0.581316   -0.814788   -0.484886
 C    2.769074    2.225793   -0.975773
 C    4.211247   -0.484039   -0.076691
 C    2.364542   -2.611581    0.227147
 C   -0.544862   -1.585023   -0.457411
 C   -0.283661    1.558863   -1.270239
 C    4.603307   -1.744421    0.321851
 C    3.710758   -2.811531    0.478769
 C   -1.922194   -1.178726   -0.182094
 C    3.053172    3.038080    0.291635
 C   -2.232964   -0.096520    0.655121
 C   -2.981937   -1.908332   -0.740737
 C   -3.551355    0.267266    0.887383
 C   -4.299511   -1.541588   -0.514100
 C   -4.597214   -0.442857    0.296272
 C   -6.368451    1.642986   -0.096371
 H    2.258372    1.631465    1.289446
 H    2.154743    2.860730   -1.625922
 H    3.727923    2.108755   -1.492817
 H    4.948535    0.308629   -0.161365
 H    1.667495   -3.437164    0.364909
 H   -0.410902   -2.649558   -0.658568
 H   -0.590797    2.204206   -0.436288
 H    0.084151    2.214844   -2.066354
 H   -1.176235    1.044832   -1.637082
 H    4.093670   -3.774798    0.799473
 H   -1.430591    0.458751    1.130780
 H   -2.755958   -2.761666   -1.375011
 H   -3.770754    1.106446    1.540132
 H   -5.112968   -2.102386   -0.967293
 H   -5.707590    2.331346    0.437660
 H   -6.110400    1.638564   -1.157907
 H   -7.399422    1.988464    0.017801
