41 
4xum_ligand_ani.xyz
 C    0.426048    0.173191    0.395175
 C    1.731262    0.294936   -0.089254
 C    2.365940    1.547209   -0.106311
 C    1.652825    2.641153    0.344770
 C    0.338178    2.502896    0.840594
 C   -0.280379    1.273984    0.883186
 C    3.455806    4.089423   -0.116552
 C    2.173323   -1.016855   -0.474247
 C    1.173741   -1.892525   -0.175288
 C   -1.154080   -1.766261    0.711696
 C   -2.398242   -1.039747    0.317713
 C   -3.507610   -1.111473    1.157963
 C   -4.689551   -0.467131    0.819723
 C   -4.759222    0.232008   -0.381390
 C   -3.669609    0.296360   -1.244178
 C   -2.489710   -0.342078   -0.888244
 C    1.125734   -3.382074   -0.309088
 C    3.493394   -1.325072   -1.115481
 C    4.709165   -1.084230   -0.222522
 N    0.068777   -1.184917    0.324926
 O    2.142949    3.910914    0.362458
 O   -1.187508   -2.809134    1.334076
 O    5.879025   -1.540573   -0.727283
 O    4.694040   -0.526658    0.840023
Cl   -6.239856    1.035762   -0.817166
 H    3.399584    1.625572   -0.432851
 H   -0.163915    3.399680    1.189037
 H   -1.291291    1.166084    1.266080
 H    4.178807    3.517861    0.480614
 H    3.540705    3.785795   -1.168000
 H    3.671942    5.155333   -0.027704
 H   -3.435423   -1.682271    2.079326
 H   -5.554314   -0.510102    1.475018
 H   -3.749733    0.843032   -2.177957
 H   -1.615911   -0.286157   -1.531627
 H    2.051591   -3.768371   -0.746019
 H    0.973336   -3.857111    0.664644
 H    0.292663   -3.688731   -0.950683
 H    3.631191   -0.701861   -2.013271
 H    3.516741   -2.368032   -1.467566
 H    5.740013   -1.962918   -1.585497
