58 
4xv1_ligand_xtb.xyz
 S   -4.801817   -3.659309  -20.534859
 C    2.293628   -1.658523  -19.393136
 C    1.528311   -2.202142  -20.499544
 C    0.050237   -1.900440  -20.471699
 C    3.725304   -1.691333  -19.282339
 N   -3.138028   -3.754543  -20.613145
 C    1.834672   -1.032852  -18.252742
 C   -2.262769   -2.691691  -20.583596
 C   -0.884028   -2.922746  -20.521676
 C    4.044507   -1.061791  -18.056056
 N    2.874780   -0.679995  -17.460388
 C    9.349813   -3.282613  -21.751574
 C    4.771285   -2.154819  -20.067462
 N    5.264444   -0.883474  -17.575932
 N    9.468409   -2.137318  -21.081882
 N    8.252121   -4.035626  -21.770265
 C   10.498632   -3.759924  -22.526846
 C    6.062278   -1.969667  -19.580479
 N   -4.981057   -2.936084  -19.057924
 C   11.890756   -3.509618  -21.999171
 C   11.408887   -2.749068  -23.181123
 C    7.221968   -2.429184  -20.342420
 C   -0.441981   -0.598208  -20.487919
 O   -5.220891   -5.023495  -20.534760
 O   -5.290590   -2.765822  -21.530883
 O    2.010661   -2.847165  -21.403788
 C    7.213861   -3.618958  -21.075814
 C    8.423755   -1.719115  -20.398991
 C    6.240939   -1.336698  -18.336707
 C   -2.703468   -1.371190  -20.606164
 C   -1.795630   -0.328968  -20.557733
 F   -0.464194   -4.204864  -20.466856
 F    0.425382    0.435560  -20.449458
 C   -4.674528   -3.783912  -17.924944
 C   -6.039813   -1.968604  -18.901256
 C   -3.535345   -3.204309  -17.092030
 H   -2.742608   -4.679868  -20.649396
 H    0.823170   -0.826878  -17.957008
 H    2.814762   -0.202585  -16.575808
 H    4.582679   -2.620747  -21.021899
 H   10.303137   -4.689042  -23.044238
 H   12.624385   -4.288551  -22.138879
 H   11.963740   -2.984215  -21.060038
 H   11.802170   -2.989726  -24.156715
 H   11.155875   -1.710121  -23.039939
 H    6.345047   -4.265316  -21.090764
 H    8.542460   -0.769648  -19.890554
 H    7.234806   -1.206440  -17.930841
 H   -3.758773   -1.180840  -20.686390
 H   -2.128355    0.696170  -20.584201
 H   -5.567875   -3.914519  -17.303988
 H   -4.394145   -4.761256  -18.321763
 H   -5.721152   -1.185435  -18.211900
 H   -6.233898   -1.536425  -19.879168
 H   -6.960493   -2.427867  -18.525794
 H   -3.306146   -3.872071  -16.266091
 H   -2.645891   -3.081023  -17.704324
 H   -3.814385   -2.234091  -16.689742
