58 
4xv1_ligand_ani.xyz
 S   -4.278169   -3.978221  -20.580089
 C    2.623802   -1.215122  -19.139370
 C    1.744736   -1.833541  -20.147526
 C    0.252588   -1.636050  -20.043121
 C    4.065400   -1.320522  -19.149794
 N   -2.713883   -3.861282  -19.994095
 C    2.295867   -0.521645  -18.002335
 C   -1.991685   -2.646380  -20.023577
 C   -0.598036   -2.732938  -20.066348
 C    4.524248   -0.664210  -17.990585
 N    3.428581   -0.192375  -17.313464
 C    9.379637   -3.440912  -21.949391
 C    5.015182   -1.893252  -19.983072
 N    5.792737   -0.524088  -17.612410
 N    9.614140   -2.235604  -21.414867
 N    8.249205   -4.145880  -21.804286
 C   10.445048   -4.058251  -22.772754
 C    6.357411   -1.761305  -19.627644
 N   -5.112085   -3.177083  -19.370177
 C   11.896975   -3.841723  -22.413283
 C   11.333483   -3.186804  -23.630062
 C    7.426577   -2.348205  -20.455205
 C   -0.380411   -0.389814  -20.003045
 O   -4.580581   -5.398092  -20.582963
 O   -4.447591   -3.196419  -21.789986
 O    2.205000   -2.521031  -21.041254
 C    7.292839   -3.592239  -21.075600
 C    8.648955   -1.713747  -20.674137
 C    6.676546   -1.068335  -18.442698
 C   -2.564537   -1.382928  -19.956132
 C   -1.756580   -0.252662  -19.953996
 F   -0.068307   -3.971442  -20.122536
 F    0.368561    0.727758  -20.020557
 C   -4.987695   -3.788813  -18.036029
 C   -6.483358   -2.825542  -19.751323
 C   -5.475605   -2.847193  -16.941472
 H   -2.154381   -4.667010  -20.252777
 H    1.318563   -0.234121  -17.633944
 H    3.467773    0.309765  -16.442219
 H    4.720488   -2.404927  -20.895708
 H   10.156058   -5.031204  -23.161861
 H   12.572410   -4.683302  -22.536349
 H   12.092095   -3.205485  -21.553343
 H   11.613376   -3.567758  -24.607873
 H   11.153412   -2.115759  -23.577183
 H    6.377459   -4.172866  -20.951883
 H    8.841287   -0.725945  -20.254256
 H    7.720248   -0.981253  -18.144201
 H   -3.640903   -1.275957  -19.906770
 H   -2.181619    0.742744  -19.914023
 H   -5.524727   -4.749010  -18.002291
 H   -3.926815   -3.999480  -17.879321
 H   -6.838889   -2.048009  -19.070804
 H   -6.479190   -2.411965  -20.760976
 H   -7.173444   -3.681838  -19.710823
 H   -5.170979   -3.224098  -15.960428
 H   -5.036008   -1.853761  -17.078586
 H   -6.566210   -2.751867  -16.930197
