55 
4xv2_ligand_ani.xyz
 C   -4.279752    3.922162   -0.090811
 C   -3.124558    1.954930   -0.104752
 N   -4.292824    2.594954    0.054310
 C   -1.970184    2.651594   -0.466994
 N   -3.225345    4.691238   -0.419266
 C   -2.088478    4.030460   -0.603966
 N   -5.460056    4.568851    0.130120
 C   -3.145507    0.502332    0.060784
 S   -4.646832   -0.307250   -0.201394
 C   -3.818722   -1.831136   -0.158295
 N   -2.549050   -1.729866    0.096565
 C   -2.145572   -0.434384    0.274703
 C   -4.470357   -3.186529   -0.316877
 C   -4.600854   -3.797988    1.089001
 C   -3.545096   -4.063375   -1.169911
 C   -5.846927   -3.115517   -0.974713
 C   -0.772756   -0.180322    0.761270
 C    1.614278   -0.733101    0.740600
 C    0.307747   -0.905317    0.282516
 C    1.846022    0.212974    1.734494
 C   -0.510738    0.769926    1.752753
 C    0.779265    0.958794    2.226895
 F    0.132054   -1.822562   -0.692044
 N    2.601574   -1.540226    0.153330
 S    4.237866   -1.503781    0.472125
 C    4.744824    0.024955   -0.271028
 C    5.562961    2.313317   -0.149434
 C    5.119277    1.149117    0.461969
 C    5.616446    2.364234   -1.537185
 C    4.788860    0.124457   -1.658831
 C    5.223047    1.272283   -2.303807
 F    4.395961   -0.912942   -2.403129
 F    5.051137    1.136895    1.798660
 O    4.425182   -1.401839    1.901507
 O    4.796077   -2.601225   -0.285454
 H   -1.030158    2.141710   -0.632422
 H   -1.221788    4.632610   -0.877568
 H   -6.293668    4.001857    0.119550
 H   -5.530046    5.511548   -0.218702
 H   -3.619624   -3.877957    1.567560
 H   -5.245631   -3.178554    1.721058
 H   -5.039519   -4.800006    1.024817
 H   -3.444814   -3.657680   -2.182985
 H   -2.551804   -4.113185   -0.717357
 H   -3.954469   -5.076313   -1.245875
 H   -6.563185   -2.556947   -0.365066
 H   -5.788229   -2.650107   -1.963842
 H   -6.235286   -4.132358   -1.100891
 H    2.839783    0.363916    2.138572
 H   -1.330479    1.366122    2.142305
 H    0.964388    1.693949    3.001988
 H    2.325121   -2.108858   -0.635878
 H    5.852943    3.152518    0.474043
 H    5.962219    3.268566   -2.028372
 H    5.245806    1.289798   -3.388136
