56 
4xv3_ligand_dft.xyz
 C   -4.090134   -2.533890   -0.164119
 C   -3.645560    0.007578    1.568121
 C   -3.482733   -1.205134   -0.593488
 O   -4.899592    1.047149   -1.908898
 O   -4.686918    2.334628    0.271715
 N   -4.043490   -0.077803    0.165854
 S   -4.212640    1.346008   -0.671792
 N    0.132273   -4.944491   -0.708867
 C    0.036357   -3.790999   -0.000717
 N    0.974953   -2.860745   -0.237466
 C    0.889257   -1.734978    0.472457
 C    1.926864   -0.723930    0.235375
 C    1.850126    0.644513    0.293612
 C    0.619381    1.446377    0.473290
 C    0.537402    2.441981    1.450009
 C   -0.614776    3.208520    1.586486
 C   -1.695335    3.025251    0.730445
 C   -1.635755    2.044160   -0.258775
 N   -2.684146    1.849786   -1.188346
 C   -0.481811    1.269230   -0.356643
 F   -0.451705    0.325222   -1.320013
 N    3.037106    1.308850    0.115132
 C    4.020769    0.483470   -0.103090
 C    5.438487    0.956005   -0.364891
 C    5.852235    1.890948    0.784445
 C    5.437630    1.735176   -1.693248
 C    6.419240   -0.219131   -0.455341
 S    3.553336   -1.191719   -0.115882
 C   -0.104486   -1.543751    1.437707
 C   -1.012764   -2.580695    1.590175
 N   -0.976424   -3.703716    0.879211
 H   -3.868651   -2.775148    0.879065
 H   -5.175096   -2.513841   -0.298459
 H   -3.668403   -3.340062   -0.771119
 H   -2.553924    0.046555    1.683648
 H   -4.090644    0.894703    2.016072
 H   -4.029840   -0.871987    2.091409
 H   -3.713956   -1.039839   -1.647874
 H   -2.388893   -1.222902   -0.483117
 H    0.764063   -4.972424   -1.491785
 H   -0.639341   -5.589601   -0.672711
 H    1.394577    2.608659    2.093882
 H   -0.664944    3.975321    2.352364
 H   -2.590584    3.630673    0.810426
 H   -2.413369    1.327796   -2.014857
 H    5.151848    2.725574    0.871739
 H    5.869252    1.354195    1.739191
 H    6.855280    2.290017    0.597146
 H    5.145652    1.088036   -2.527535
 H    4.735742    2.572266   -1.645709
 H    6.440370    2.127068   -1.897604
 H    6.444444   -0.797411    0.475050
 H    6.166452   -0.896799   -1.279149
 H    7.429595    0.159941   -0.640059
 H   -0.147814   -0.650299    2.047072
 H   -1.813808   -2.507700    2.323795
