45 
4xx9_ligand_xtb.xyz
 C   -4.716680   -0.557489    0.682780
 C   -5.492245    0.548038    1.005721
 C   -5.240393    1.779240    0.430957
 C   -4.216226    1.916711   -0.488126
 C   -3.423463    0.833468   -0.839687
 C   -3.680559   -0.400640   -0.237559
 O   -2.911323   -1.508891   -0.585517
 C   -1.691936   -1.613875    0.119224
 C   -4.979695   -1.891940    1.313956
 C   -2.324177    0.972887   -1.847104
 C   -0.629173   -2.119973   -0.846394
 S    0.980022   -2.273497   -0.031650
 C    1.421052   -0.583956    0.057387
 N    2.624297   -0.197058    0.580479
 C    2.655873    1.177669    0.458201
 C    1.421359    1.533607   -0.129245
 N    0.681524    0.399009   -0.365285
 C    3.609329    2.123722    0.790568
 C    3.292264    3.442764    0.530150
 C    2.071377    3.805146   -0.040908
 C    1.119963    2.865908   -0.380672
 C    3.663994   -1.043111    1.096276
 C    4.679252   -1.403675   -0.005863
 O    5.834064   -1.107041    0.056741
 O    4.165135   -2.060477   -1.043994
 H   -6.298281    0.436169    1.716389
 H   -5.848464    2.632396    0.693148
 H   -4.028832    2.877212   -0.946050
 H   -1.802704   -2.319482    0.957374
 H   -1.387463   -0.640126    0.519262
 H   -4.431553   -1.978900    2.253241
 H   -6.038809   -2.011242    1.529277
 H   -4.655765   -2.691675    0.652505
 H   -2.427760    1.904176   -2.398262
 H   -1.348654    0.963934   -1.358542
 H   -2.356607    0.140356   -2.548168
 H   -0.505281   -1.429583   -1.678820
 H   -0.878379   -3.114488   -1.214143
 H    4.558931    1.845266    1.220163
 H    4.008003    4.213518    0.772225
 H    1.871524    4.850308   -0.223120
 H    0.177700    3.142724   -0.824781
 H    3.216282   -1.962457    1.490371
 H    4.192136   -0.521310    1.897985
 H    3.220376   -2.270235   -0.945823
