36 
4xyc_ligand_ani.xyz
 O    5.049097    1.283201    0.070033
 C    3.956846    0.758032    0.043058
 C    3.722083   -0.711424    0.081951
 N    4.606956   -1.675497    0.134590
 C    3.879047   -2.829343    0.148640
 C    2.533028   -2.573335    0.104776
 N    2.433110   -1.206914    0.062368
 C    1.333556   -0.378270    0.005873
 N    2.797756    1.515604   -0.030030
 C    1.517900    0.971975   -0.048840
 C    0.246714    1.630329   -0.107517
 C   -0.094260    2.985863   -0.151690
 C   -1.439278    3.324466   -0.147415
 C   -2.424152    2.336617   -0.092286
 C   -2.098874    0.977175   -0.076322
 C   -0.757097    0.624129   -0.091348
 C   -0.100219   -0.763147   -0.018036
 C   -3.179283   -0.043135   -0.033842
 C   -4.181859    0.041937    0.934678
 C   -5.194170   -0.908861    0.994919
 C   -5.234400   -1.945418    0.066625
 C   -4.254634   -2.022905   -0.919002
 C   -3.236197   -1.079352   -0.967707
 H    4.363027   -3.794684    0.189623
 H    1.654629   -3.199117    0.098355
 H    2.949032    2.516899   -0.056645
 H    0.673401    3.755873   -0.183193
 H   -1.731702    4.370462   -0.173812
 H   -3.472765    2.623825   -0.082263
 H   -0.415976   -1.321106    0.874923
 H   -0.341420   -1.397249   -0.884498
 H   -4.156404    0.853883    1.659529
 H   -5.959382   -0.834051    1.763377
 H   -6.028227   -2.686563    0.108615
 H   -4.279647   -2.822620   -1.653554
 H   -2.480604   -1.135502   -1.748303
