45 
4y29_ligand_dft.xyz
 C   -2.961754    1.003708    0.040708
 C   -2.116342   -0.149271    0.058759
 C   -2.684347   -1.455312    0.047020
 C   -4.102312   -1.622808   -0.014403
 C   -0.700267   -0.013773    0.103051
 C    0.125824   -1.129314    0.151782
 C   -0.463093   -2.416441    0.192711
 C   -1.821080   -2.575314    0.128093
 N   -0.141306    1.298954    0.078363
 C    1.589979   -0.932616    0.115182
 C    2.089755    0.335975    0.458967
 C    1.078912    1.377932    0.872540
 C    0.020407    1.815960   -1.279669
 C    4.352625   -0.409595    0.019815
 C    3.859174   -1.663482   -0.330981
 C    2.489145   -1.914758   -0.289309
 C    3.449603    0.598131    0.408654
 O    3.910972    1.832144    0.787120
 C    4.342613    2.643830   -0.293731
 O    5.664869   -0.061624    0.019108
 C    6.606308   -1.049683   -0.332191
 C   -4.300652    0.792471   -0.022769
 C   -4.864713   -0.500417   -0.055429
 O   -5.305954    1.715233   -0.072230
 C   -6.517180    0.985196    0.050838
 O   -6.222341   -0.392930   -0.132379
 H   -2.532294    1.995814    0.100004
 H   -4.543965   -2.613290   -0.024615
 H    0.172630   -3.292289    0.280306
 H   -2.256144   -3.570857    0.152204
 H    0.806133    1.228711    1.925376
 H    1.496189    2.383826    0.786739
 H    0.329644    2.865323   -1.229146
 H    0.764603    1.255583   -1.868628
 H   -0.938381    1.764906   -1.802405
 H    4.531024   -2.453455   -0.646364
 H    2.131930   -2.890996   -0.601549
 H    5.194204    2.193551   -0.814021
 H    3.523955    2.809046   -1.007665
 H    4.643799    3.599438    0.139588
 H    6.559808   -1.908107    0.349935
 H    6.460426   -1.398902   -1.362745
 H    7.584804   -0.575518   -0.247847
 H   -7.217197    1.310894   -0.721834
 H   -6.938010    1.138556    1.053343
