45 
4y29_ligand_ani.xyz
 C   -2.971698    1.007273    0.081455
 C   -2.123081   -0.143546    0.025873
 C   -2.682128   -1.441236    0.017006
 C   -4.099068   -1.615369    0.048183
 C   -0.703559    0.000725   -0.016775
 C    0.126806   -1.115296   -0.021531
 C   -0.459377   -2.413475   -0.030606
 C   -1.809448   -2.567694   -0.018147
 N   -0.176234    1.306946   -0.152548
 C    1.586715   -0.908224   -0.003682
 C    2.060587    0.374142    0.304930
 C    1.068321    1.491723    0.581690
 C   -0.045161    1.668486   -1.566038
 C    4.346280   -0.404648    0.117550
 C    3.870756   -1.673698   -0.217876
 C    2.512500   -1.924823   -0.276519
 C    3.426976    0.622733    0.373794
 O    3.844557    1.871157    0.764695
 C    4.521932    2.636244   -0.221779
 O    5.660776   -0.078723    0.228501
 C    6.611516   -1.093752   -0.018065
 C   -4.311218    0.796192    0.115908
 C   -4.866824   -0.500798    0.096094
 O   -5.319942    1.711733    0.208240
 C   -6.530303    0.980412    0.051097
 O   -6.229277   -0.403570    0.174379
 H   -2.528552    1.996144    0.102950
 H   -4.529840   -2.612499    0.041183
 H    0.175799   -3.296293   -0.032191
 H   -2.245501   -3.565134   -0.027154
 H    0.828334    1.545501    1.655829
 H    1.505012    2.457242    0.309939
 H    0.270021    2.714030   -1.649848
 H    0.685018    1.032330   -2.094306
 H   -1.014015    1.560979   -2.064588
 H    4.567684   -2.477642   -0.429145
 H    2.179368   -2.922273   -0.553217
 H    4.721813    3.607681    0.235459
 H    5.464566    2.166275   -0.515461
 H    3.889145    2.775504   -1.110988
 H    6.498403   -1.927442    0.687315
 H    6.528330   -1.474754   -1.044266
 H    7.590382   -0.633454    0.120166
 H   -6.953123    1.178563   -0.943733
 H   -7.231263    1.269611    0.838001
