23 
4y2s_ligand_ani.xyz
 C   -0.971069    2.485446    0.178027
 C   -2.065166    1.633093    0.069965
 C    0.320627    1.973234    0.192698
 C   -0.573109   -0.267879    0.001138
 C    3.287386   -1.454405    0.374218
 C    2.980116    0.631767   -0.292072
 C   -1.856433    0.258654   -0.015165
 C    0.512356    0.596073    0.096985
 C    3.959471   -0.315911   -0.120413
 C   -3.046409   -0.656732   -0.099419
 N    1.988517   -1.228289    0.491142
 N    1.811657    0.041108    0.099827
 O    5.295621   -0.252165   -0.358157
 F   -3.871107   -0.298886   -1.102045
 F   -2.692280   -1.936654   -0.304590
 F   -3.776663   -0.619613    1.031771
 H   -1.122733    3.558259    0.249751
 H   -3.077478    2.023241    0.053726
 H    1.173628    2.636710    0.299912
 H   -0.397341   -1.336253   -0.057376
 H    3.708767   -2.416776    0.635702
 H    3.012560    1.636712   -0.689227
 H    5.510245    0.622042   -0.706006
