36 
4y2t_ligand_ani.xyz
 C    6.143660    0.078684    0.612512
 C    5.212653   -0.879340    1.003966
 C    5.733043    1.167845   -0.151964
 C    3.876433   -0.753082    0.634582
 C    4.398350    1.293077   -0.519940
 C   -2.202583   -1.652971    0.061122
 C   -2.110551    0.328509   -1.268699
 C   -0.837618   -1.576850    0.292943
 C   -0.736639    0.422288   -1.053315
 C   -2.867758   -0.705965   -0.722410
 C    3.461988    0.335683   -0.129665
 C   -0.096291   -0.532369   -0.266419
 C   -4.363353   -0.779014   -0.935570
 C    2.022824    0.503355   -0.550654
 C   -5.121602    0.406466   -0.319481
 C   -4.876433    0.560183    1.173016
 O   -5.625380    1.677538    1.617353
 O    1.236910   -0.530334    0.010327
 H    7.186350   -0.023573    0.902292
 H    5.527378   -1.732026    1.602251
 H    6.454686    1.920935   -0.460581
 H    3.148446   -1.498859    0.939205
 H    4.079261    2.145444   -1.117701
 H   -2.773286   -2.468710    0.502501
 H   -2.595339    1.085511   -1.884909
 H   -0.328169   -2.317520    0.903496
 H   -0.187998    1.243935   -1.502397
 H   -4.741836   -1.715528   -0.503192
 H   -4.587061   -0.824415   -2.010489
 H    1.944481    0.479732   -1.647859
 H    1.647646    1.483149   -0.219678
 H   -6.198226    0.287506   -0.489326
 H   -4.824381    1.338085   -0.816519
 H   -3.798180    0.699780    1.359034
 H   -5.189649   -0.358474    1.698541
 H   -5.473092    1.778399    2.563762
