38 
4y2u_ligand_ani.xyz
 C  -15.784041  -12.923697   68.962237
 C  -17.017020  -13.534648   69.182526
 C  -15.733695  -11.744501   68.226790
 C  -18.176050  -12.967145   68.674342
 C  -16.884394  -11.155292   67.704236
 C  -18.121663  -11.777752   67.936541
 C  -17.838717   -8.125147   64.548811
 C  -16.803565   -9.897880   66.862376
 C  -19.229952  -10.200681   66.421710
 C  -18.153953   -9.174990   66.781297
 C  -17.458782   -5.190309   62.441220
 C  -16.055697   -7.261464   62.318740
 C  -18.514909   -7.350331   61.740729
 C  -17.445513   -6.705303   62.618508
 N  -19.305760  -11.184989   67.488644
 N  -18.147589   -8.039289   65.871303
 O  -17.659237   -9.157476   63.928427
 O  -17.771136   -6.883427   64.026229
 H  -14.871795  -13.361506   69.358199
 H  -17.077995  -14.457647   69.753404
 H  -14.772619  -11.263870   68.048924
 H  -19.143233  -13.436552   68.851263
 H  -16.486651  -10.148008   65.840549
 H  -16.048527   -9.209984   67.261436
 H  -20.197659   -9.697680   66.333965
 H  -18.986495  -10.638289   65.439576
 H  -18.393188   -8.772823   67.772666
 H  -16.715602   -4.721100   63.093746
 H  -17.224734   -4.925396   61.405151
 H  -18.445089   -4.784174   62.687103
 H  -15.320603   -6.836275   63.009999
 H  -16.043698   -8.349469   62.413177
 H  -15.769796   -6.990047   61.296867
 H  -19.507548   -6.987945   62.027487
 H  -18.335178   -7.081926   60.694150
 H  -18.492985   -8.438045   61.836253
 H  -20.068329  -11.840376   67.392550
 H  -18.121602   -7.107567   66.252872
