58 
4y5h_ligand_xtb.xyz
 C   -7.429468    0.155350    1.251495
 C   -7.107832   -0.763842    0.072945
 C   -7.345125   -0.056640   -1.259325
 N   -5.734554   -1.254209    0.139927
 C   -4.645546   -0.424430    0.145066
 O   -4.704851    0.770141   -0.067563
 N   -3.472825   -1.084997    0.418262
 C   -2.165332   -0.461481    0.267258
 C   -2.010766    0.701352    1.250256
 C   -0.628710    1.330937    1.127473
 C   -0.381182    1.806675   -0.308253
 C   -0.535923    0.645450   -1.288833
 C   -1.924725    0.031212   -1.163674
 N    0.910484    2.455002   -0.434282
 C    2.137420    1.940318   -0.239202
 N    3.095614    2.890577   -0.139703
 C    4.317395    2.478183    0.066974
 C    4.660427    1.125577    0.170703
 C    5.972885    0.649580    0.417226
 C    6.195289   -0.676089    0.484880
 C    5.139348   -1.643767    0.283850
 O    5.329172   -2.847553    0.318704
 N    3.856033   -1.134105    0.032540
 C    2.819346   -2.131401   -0.246696
 C    2.337778   -2.001394   -1.689070
 C    1.690690   -2.073179    0.775778
 C    3.596793    0.202699    0.000323
 N    2.345500    0.627298   -0.190714
 H   -7.259350   -0.359100    2.195331
 H   -6.789553    1.031918    1.208567
 H   -8.468020    0.471218    1.207017
 H   -7.747162   -1.653493    0.122955
 H   -6.699903    0.813694   -1.326110
 H   -7.119515   -0.725826   -2.086204
 H   -8.382045    0.258996   -1.333505
 H   -5.611118   -2.176864    0.522901
 H   -3.490784   -2.090265    0.367010
 H   -1.425492   -1.232075    0.511747
 H   -2.168302    0.338833    2.267659
 H   -2.780527    1.440361    1.029095
 H    0.142075    0.608090    1.398830
 H   -0.546891    2.178789    1.810943
 H   -1.129035    2.567953   -0.555270
 H    0.221681   -0.102628   -1.068043
 H   -0.375972    1.006545   -2.306256
 H   -2.688931    0.771333   -1.403404
 H   -2.026190   -0.803030   -1.861502
 H    0.921270    3.463603   -0.403604
 H    5.076337    3.245657    0.160240
 H    6.768705    1.368889    0.549716
 H    7.171995   -1.091352    0.675844
 H    3.332190   -3.094126   -0.136591
 H    1.948107   -1.005891   -1.877076
 H    3.163082   -2.187515   -2.373110
 H    1.557380   -2.732469   -1.882249
 H    2.092989   -2.179924    1.780948
 H    1.162530   -1.129135    0.705167
 H    0.997545   -2.890518    0.592572
