16 
4y5s_ligand_dft.xyz
 C    2.541221    0.210777   -0.000025
 O    2.500470    1.556355   -0.000007
 O    3.576947   -0.385663   -0.000081
 C    1.175839   -0.541640    0.000057
 O    1.190784   -1.745518    0.000208
 C   -0.104861    0.267819   -0.000113
 C   -1.343650   -0.613603   -0.000106
 C   -2.613751    0.220577    0.000005
 O   -3.765897   -0.478013   -0.000042
 O   -2.628649    1.422623    0.000158
 H    1.596386    1.896736    0.000130
 H   -0.123967    0.928754   -0.877647
 H   -0.124104    0.928913    0.877301
 H   -1.338541   -1.273892    0.875341
 H   -1.338611   -1.273818   -0.875606
 H   -3.589186   -1.428541   -0.000318
