55 
4y62_ligand_ani.xyz
 O   17.739741   23.193247    9.521321
 C   17.621963   21.986220    9.427507
 N   18.494871   21.090441    9.991499
 C   18.458236   19.689659    9.914492
 O   19.313765   19.022294   10.457878
 C   17.327585   19.184050    9.145734
 C   16.444478   20.031783    8.592515
 N   16.568413   21.405320    8.721391
 C   15.602797   22.355054    8.172736
 O   14.451455   21.677164    7.734930
 C   16.159847   23.145539    6.971379
 O   15.706372   24.472902    7.035758
 C   15.522942   22.427264    5.785381
 O   15.422673   23.262121    4.665039
 C   14.178421   21.961985    6.355762
 C   13.626860   20.697888    5.706518
 N   12.453318   20.211017    6.394407
 C   12.558213   19.302609    7.391435
 O   13.587302   18.686950    7.640985
 C   11.276090   19.055334    8.218679
 C   11.628055   18.241053    9.458016
 O   10.451153   18.087568   10.217880
 N   10.599418   20.305293    8.542627
 C   10.826307   21.171941    9.558559
 N    9.684566   20.794352    7.702858
 N    9.305200   21.945460    8.151004
 C    9.987346   22.233231    9.298027
 C    9.776511   23.484861   10.033511
 C    8.753115   24.359096    9.657325
 C    8.551500   25.540578   10.358775
 C    9.369178   25.862971   11.439595
 C   10.392208   24.996773   11.815461
 C   10.595281   23.813585   11.115786
 H   19.263463   21.499102   10.507814
 H   17.227593   18.111369    9.046121
 H   15.581415   19.694796    8.025655
 H   15.333625   23.043367    8.981803
 H   17.254251   23.101803    6.900278
 H   16.205029   24.890214    7.752118
 H   16.136707   21.531861    5.576834
 H   15.078451   22.735471    3.932871
 H   13.443744   22.779667    6.296321
 H   13.374908   20.884338    4.655733
 H   14.380440   19.904800    5.758827
 H   11.605249   20.757223    6.325511
 H   10.563642   18.492480    7.604299
 H   12.036797   17.280059    9.122954
 H   12.423609   18.754960   10.018217
 H   10.673407   17.598628   11.018071
 H   11.532608   20.936732   10.343200
 H    8.125507   24.096388    8.809741
 H    7.752443   26.214419   10.060218
 H    9.209099   26.788350   11.986437
 H   11.034243   25.243482   12.656642
 H   11.399592   23.143888   11.411564
