34 
4y83_ligand_dft.xyz
 C    0.350770    2.415934    0.287882
 C    0.448405    1.019785    0.206406
 C   -0.752503    0.327298    0.101180
 C    6.470094   -1.335601   -0.145829
 C    6.428422   -0.144964   -0.911072
 C    5.265337    0.573147   -1.013699
 C    4.090670    0.131641   -0.352531
 C    2.857800    0.821341   -0.426283
 S   -4.930717   -3.087425   -0.323827
 C   -4.462498   -1.521332   -0.212868
 N   -5.184303   -0.382185   -0.194613
 N   -4.416417    0.746995   -0.089308
 O   -3.169845   -1.076601   -0.112888
 C   -3.208737    0.281710   -0.042817
 C   -1.965846    1.013622    0.071961
 C   -1.938624    2.433151    0.146371
 N   -3.058317    3.187292    0.111409
 N   -0.779569    3.104023    0.256662
 C    1.757048    0.335398    0.238410
 C    4.132943   -1.063653    0.413213
 N    3.040262   -1.545236    1.072467
 C    1.924301   -0.868942    0.982452
 C    5.349055   -1.786385    0.502173
 H    1.256170    3.010214    0.402836
 H   -0.757732   -0.755705    0.022323
 H    7.399513   -1.892510   -0.075590
 H    7.325321    0.197282   -1.418282
 H    5.227545    1.487233   -1.600735
 H    2.788588    1.723725   -1.029997
 H   -6.188167   -0.322677   -0.250679
 H   -3.975347    2.771736    0.049519
 H   -2.946199    4.185351    0.186162
 H    1.075251   -1.266688    1.538376
 H    5.353866   -2.695477    1.094382
