34 
4y85_ligand_ani.xyz
 C   -3.724123   -0.015900   -0.135393
 C   -2.787822    1.051628    0.001640
 C   -3.143976    2.461041    0.040796
 C    4.110106   -1.348012    0.312977
 C    5.460667   -1.508864    0.037695
 C    6.117533   -0.518782   -0.673482
 C    5.428600    0.629042   -1.118618
 C    4.083479    0.805812   -0.849710
 C    3.409535   -0.177616   -0.105371
 N   -4.385397   -3.352215   -0.419861
 C   -4.460355   -1.995557   -0.307667
 O   -3.295060   -1.323934   -0.176104
 N   -5.009872    0.066276   -0.233611
 N   -5.501811   -1.229750   -0.347791
 C   -1.372795    1.032214    0.130671
 C   -1.015339    2.419433    0.236012
 N   -2.134259    3.259483    0.174993
 C   -0.346632    0.091131    0.178355
 C    0.964674    0.552096    0.311537
 C    1.173632    1.949832    0.426593
 N    0.221369    2.868532    0.387276
 C    2.076087   -0.364160    0.366975
 N    3.281870   -2.239246    0.987866
 C    2.109164   -1.650116    0.993924
 H   -4.162443    2.849696   -0.032808
 H    5.975478   -2.403801    0.377808
 H    7.174994   -0.628462   -0.898508
 H    5.964142    1.387260   -1.681932
 H    3.559265    1.681346   -1.224421
 H   -3.594610   -3.777925    0.040951
 H   -5.263397   -3.825125   -0.258062
 H   -0.531849   -0.975345    0.098250
 H    2.185056    2.318958    0.576848
 H    1.255924   -2.126021    1.486993
