42 
4y8d_ligand_dft.xyz
 C    5.260291    0.534955   -0.170600
 C    6.369628   -0.469390    0.132790
 O    6.066078   -1.204198    1.290783
 C    4.882113   -1.985569    1.181391
 C    4.008458   -1.595659   -0.011119
 N    3.973010   -0.145268   -0.135270
 C    2.836244    0.565251   -0.285930
 S    2.855360    2.275194   -0.545823
 N    1.206615    2.496463   -0.626093
 C    0.636214    1.308351   -0.466600
 C   -0.771989    1.083199   -0.480955
 C    1.482490    0.168184   -0.271508
 N    1.008278   -1.096961   -0.084096
 C   -0.286540   -1.248867   -0.094148
 C   -1.241877   -0.188611   -0.293885
 C   -2.688809   -0.500072   -0.281144
 C   -3.595169    0.384156    0.327307
 C   -3.187589   -1.659299   -0.870275
 C   -4.553334   -1.930445   -0.865104
 C   -5.458722   -1.056477   -0.269920
 N   -6.830999   -1.269840   -0.289979
 C   -4.953457    0.115718    0.333543
 O   -5.905093    0.901639    0.915804
 C   -5.485854    2.096123    1.534426
 H    5.428201    1.007543   -1.151323
 H    5.268569    1.325709    0.592289
 H    7.300178    0.065679    0.334367
 H    6.546523   -1.127379   -0.731676
 H    4.325344   -1.839085    2.112376
 H    5.146885   -3.049150    1.100492
 H    2.991498   -1.964205    0.127016
 H    4.395534   -2.032761   -0.941452
 H   -1.438528    1.920815   -0.662001
 H   -0.657467   -2.256938    0.081839
 H   -3.210577    1.270570    0.819629
 H   -2.513874   -2.349446   -1.369319
 H   -4.928517   -2.830223   -1.345804
 H   -7.112856   -2.238217   -0.335219
 H   -7.339065   -0.743580    0.406717
 H   -4.802936    1.897497    2.370528
 H   -4.993745    2.765456    0.817514
 H   -6.389715    2.575026    1.912946
