59 
4yay_ligand_dft.xyz
 C  -16.581903   13.891172   41.752934
 C  -18.147955   14.623615   40.236619
 C  -19.164173   15.693370   39.910369
 C  -20.551794   15.336949   40.458036
 O  -17.438700    9.985527   37.384399
 N  -17.482871   14.804513   41.383400
 C  -18.688436   13.286655   38.112621
 C  -18.925794   11.791784   37.922490
 C  -17.648385   10.991313   38.039518
 C  -15.487615   10.703771   39.124136
 C  -15.494487    9.681313   40.242582
 C  -16.539457    8.764425   40.368390
 C  -16.530915    7.821145   41.390347
 C  -14.438185    9.623310   41.152653
 C  -14.423371    8.677291   42.170994
 C  -15.471965    7.762691   42.302198
 N  -16.734292   11.451390   38.974623
 C  -15.464715    6.747034   43.392030
 C  -16.434757    6.828117   44.393755
 C  -16.446497    5.934702   45.458048
 C  -15.476606    4.939483   45.537037
 C  -14.515457    4.832290   44.542181
 C  -14.504749    5.721814   43.462204
 C  -13.482178    5.496612   42.428929
 N  -13.525348    5.858416   41.132006
 N  -12.422534    5.415331   40.511187
 C  -15.902943   14.121794   43.080500
 N  -11.734983    4.797869   41.407994
 C  -16.858427   13.863263   44.250515
 N  -12.357468    4.825965   42.604808
 C  -16.303718   12.760768   40.990622
 C  -16.998199   12.565989   39.798157
 C  -17.953879   13.514596   39.408022
 H  -19.217453   15.868935   38.830452
 H  -18.819614   16.621211   40.374567
 H  -21.272435   16.133164   40.246780
 H  -20.931906   14.408520   40.016389
 H  -20.502347   15.195574   41.542125
 H  -18.097223   13.676597   37.272022
 H  -19.645021   13.813231   38.096149
 H  -19.614952   11.425423   38.695406
 H  -19.364574   11.557137   36.951072
 H  -15.323950   10.198219   38.169980
 H  -14.675854   11.421992   39.272579
 H  -17.354066    8.777107   39.651204
 H  -17.346900    7.108830   41.476654
 H  -13.615884   10.330344   41.069018
 H  -13.593331    8.643974   42.870870
 H  -17.174858    7.621134   44.338303
 H  -17.207162    6.021115   46.227796
 H  -15.473154    4.240907   46.367581
 H  -13.761792    4.052924   44.578459
 H  -14.218087    6.393241   40.628411
 H  -15.020948   13.477131   43.166225
 H  -15.557914   15.160560   43.116288
 H  -16.369403   14.070594   45.207547
 H  -17.739265   14.506247   44.163736
 H  -17.195287   12.820930   44.256711
 H  -15.579860   12.039688   41.348372
