23 
4yc0_ligand_ani.xyz
 C    1.733996    0.270822    0.001858
 C    2.147639   -2.468514   -0.012938
 C    0.621850   -0.584045    0.001072
 O   -3.540260    0.962524   -0.048891
 C   -3.338610   -0.348109    0.000167
 O   -4.251483   -1.134330    0.021855
 C   -1.902088   -0.898140    0.026456
 C   -0.708297    0.015400    0.008177
 N   -0.878717    1.295023    0.002959
 N    0.220419    2.103718    0.001877
 C    1.540976    1.730457    0.006711
 O    2.432890    2.564047    0.012650
 C    3.030738   -0.236711   -0.002452
 C    3.246996   -1.600128   -0.010655
 C    0.859495   -1.976542   -0.006204
 H    2.309327   -3.543791   -0.020299
 H   -2.674579    1.428352   -0.046953
 H   -1.850924   -1.595483   -0.820445
 H   -1.862813   -1.545594    0.912668
 H    0.029668    3.095694    0.004125
 H    3.851019    0.474913    0.000395
 H    4.257557   -1.998024   -0.015353
 H    0.023480   -2.672118   -0.006058
