41 
4ycu_ligand_ani.xyz
 O  128.424080  -57.836980    7.091550
 C  127.459102  -57.410397    7.704921
 C  126.256675  -58.209069    7.997569
 C  125.123879  -57.618495    8.571673
 C  124.004440  -58.385197    8.861515
 C  124.012085  -59.751374    8.561595
 O  122.949928  -60.558399    8.824378
 C  125.115349  -60.351225    7.970903
 C  126.241482  -59.584800    7.673173
 O  127.274151  -60.197627    7.090580
 O  127.469019  -56.133970    8.109090
 C  126.592400  -55.733995    9.181390
 C  125.170080  -56.139800    8.832086
 C  126.775280  -54.234691    9.350589
 C  128.209824  -53.874532    9.747599
 O  128.648876  -54.600526   10.888636
 C  128.028679  -54.236951   12.115524
 C  128.602131  -55.156668   13.178585
 C  128.270524  -52.761204   12.417775
 C  127.784802  -51.893241   11.261486
 C  128.416912  -52.372295    9.956285
 H  123.128227  -57.928263    9.317369
 H  122.249587  -60.034906    9.233709
 H  125.105960  -61.408648    7.735412
 H  127.966514  -59.520532    6.917415
 H  126.911582  -56.258160   10.092371
 H  124.859480  -55.596097    7.931097
 H  124.489005  -55.868196    9.644257
 H  126.537434  -53.730920    8.405295
 H  126.061443  -53.863110   10.097140
 H  128.875122  -54.213756    8.946035
 H  126.939728  -54.407446   12.046020
 H  128.172883  -54.938719   14.163551
 H  128.392709  -56.201637   12.930971
 H  129.688032  -55.026976   13.232813
 H  129.347737  -52.610936   12.570723
 H  127.764846  -52.496135   13.355681
 H  128.032410  -50.841048   11.439678
 H  126.689552  -51.946326   11.192957
 H  129.498004  -52.190382    9.985250
 H  128.020045  -51.828373    9.090353
