41 
4ycv_ligand_xtb.xyz
 O    1.156856    2.415262   -1.107958
 C    1.094138    1.231052   -0.813887
 C    2.244210    0.475215   -0.316604
 C    2.200275   -0.924511   -0.252151
 C    3.282453   -1.635278    0.212230
 C    4.433603   -0.957904    0.625868
 O    5.467952   -1.696635    1.084917
 C    4.497098    0.423510    0.550756
 C    3.417175    1.157636    0.065434
 O    3.531557    2.483888   -0.016350
 O   -0.075457    0.603983   -0.956211
 C   -0.247759   -0.706898   -0.414345
 C    0.949614   -1.592806   -0.741874
 C   -1.559214   -1.251758   -0.975513
 C   -2.749504   -0.420706   -0.492872
 O   -2.816328   -0.587860    0.914127
 C   -3.849785    0.148583    1.546383
 C   -3.578385    1.656405    1.560236
 C   -5.221278   -0.194626    0.946277
 C   -5.213652   -0.045955   -0.573591
 C   -4.058936   -0.858892   -1.153515
 H    3.266092   -2.711488    0.263897
 H    6.201656   -1.121128    1.335617
 H    5.386334    0.958387    0.850892
 H    2.711409    2.836058   -0.438999
 H   -0.346137   -0.610803    0.676303
 H    1.013178   -1.730117   -1.826485
 H    0.825155   -2.571299   -0.279916
 H   -1.685387   -2.279982   -0.636560
 H   -1.522478   -1.230320   -2.064824
 H   -2.555375    0.633310   -0.737927
 H   -3.814299   -0.211939    2.582522
 H   -3.715478    2.101323    0.579089
 H   -2.555815    1.839366    1.881507
 H   -4.256843    2.140749    2.257287
 H   -5.457488   -1.231299    1.196492
 H   -5.981601    0.447155    1.392639
 H   -5.095083    1.003584   -0.849798
 H   -6.164203   -0.392033   -0.984282
 H   -3.991590   -0.716963   -2.232673
 H   -4.219003   -1.920071   -0.949965
