32 
4ydn_ligand_ani.xyz
 O    6.634091    1.548925    0.162995
 C    5.488524    0.853107    0.095678
 C    4.287098    1.547820   -0.114390
 C    3.079141    0.878074   -0.184100
 C    3.046910   -0.510155   -0.047380
 C    4.224818   -1.224737    0.152499
 C    5.424570   -0.540581    0.224187
Cl    6.913792   -1.411799    0.484556
Cl    4.335178    3.270333   -0.283825
 C    1.778706   -1.230781   -0.103412
 O    0.628727   -0.523815   -0.224439
 C   -0.322833   -1.491257   -0.230318
 N    0.191060   -2.674472   -0.127899
 N    1.562102   -2.504310   -0.044226
 C   -1.726226   -1.102245   -0.339622
 C   -2.082835    0.244969   -0.457939
 C   -3.420688    0.603375   -0.560124
 C   -4.374523   -0.405906   -0.554377
 C   -4.047497   -1.749241   -0.426571
 C   -2.708358   -2.095719   -0.318309
 O   -5.728942   -0.088483   -0.746506
 S   -6.526798    0.659563    0.413804
 O   -6.219932    0.132597    1.706862
 O   -7.849287    0.879863   -0.066676
 F   -5.790497    2.083823    0.356322
 H    7.367937    0.935225    0.316100
 H    2.168565    1.445351   -0.345226
 H    4.194174   -2.304937    0.252483
 H   -1.315084    1.011270   -0.463079
 H   -3.738033    1.637294   -0.639963
 H   -4.834707   -2.495198   -0.410223
 H   -2.402311   -3.133051   -0.218206
