32 
4ydn_ligand_xtb.xyz
 O    7.002216    0.976866    0.119065
 C    5.747167    0.516596    0.075818
 C    4.674029    1.415819    0.032974
 C    3.368615    0.968166   -0.012801
 C    3.102761   -0.400006   -0.016504
 C    4.152418   -1.317839    0.026096
 C    5.448084   -0.852343    0.070944
Cl    6.781078   -1.965709    0.123354
Cl    5.017240    3.101111    0.038117
 C    1.745576   -0.885582   -0.063124
 O    0.689552   -0.041055   -0.123988
 C   -0.368285   -0.887661   -0.147928
 N    0.021855   -2.129480   -0.105960
 N    1.355596   -2.129176   -0.053037
 C   -1.726599   -0.400929   -0.214010
 C   -1.987391    0.966006   -0.305488
 C   -3.289889    1.420413   -0.364254
 C   -4.336995    0.506541   -0.336476
 C   -4.089826   -0.857226   -0.251389
 C   -2.785503   -1.309642   -0.189084
 O   -5.625721    0.995463   -0.411107
 S   -6.717705    0.048362    0.217216
 O   -6.390684   -0.313853    1.538875
 O   -7.206706   -0.897492   -0.705077
 F   -7.816435    1.212868    0.302681
 H    7.616026    0.223406    0.144242
 H    2.560108    1.680374   -0.044580
 H    3.931518   -2.372462    0.022834
 H   -1.168206    1.668013   -0.326970
 H   -3.511772    2.472859   -0.434468
 H   -4.920548   -1.544003   -0.241540
 H   -2.563713   -2.362336   -0.121921
