32 
4ydn_ligand_dft.xyz
 O    6.788005    1.372025    0.153422
 C    5.604885    0.748623    0.103177
 C    4.441714    1.515749   -0.050086
 C    3.192262    0.921211   -0.107860
 C    3.074259   -0.466081   -0.013484
 C    4.215780   -1.254131    0.139556
 C    5.454627   -0.643729    0.195580
Cl    6.896922   -1.613166    0.387187
Cl    4.584950    3.241366   -0.168197
 C    1.772873   -1.117932   -0.072009
 O    0.654529   -0.367034   -0.216466
 C   -0.330975   -1.298846   -0.229221
 N    0.133725   -2.500489   -0.105759
 N    1.506266   -2.383412   -0.002963
 C   -1.721097   -0.878083   -0.371380
 C   -2.054097    0.472370   -0.503173
 C   -3.383630    0.850634   -0.639003
 C   -4.355561   -0.137728   -0.639807
 C   -4.052327   -1.485687   -0.507726
 C   -2.722547   -1.855276   -0.373093
 O   -5.697893    0.235078   -0.837901
 S   -6.517274    0.569070    0.504778
 O   -6.049503    1.791502    1.086773
 O   -6.731251   -0.621385    1.271680
 F   -7.846218    0.885245   -0.279969
 H    7.493117    0.716262    0.260980
 H    2.313551    1.544318   -0.226413
 H    4.127168   -2.332071    0.213362
 H   -1.276328    1.227937   -0.499784
 H   -3.669999    1.891076   -0.739618
 H   -4.848398   -2.221238   -0.508168
 H   -2.446629   -2.898765   -0.267728
