81 
4yec_ligand_xtb.xyz
 C    3.540180    2.655195   -0.584873
 O    2.739243    2.729958   -1.504246
 C    4.013183    3.855281    0.198067
 N    4.078309    1.490092   -0.185454
 C    3.752338    0.215560   -0.781754
 C    2.478454   -0.346355   -0.125977
 O    1.790887    0.363639    0.597694
 C    4.970093   -0.727046   -0.753775
 C    6.150619   -0.088625   -1.484396
 C    5.352694   -1.112833    0.675314
 N    2.196169   -1.627249   -0.410745
 C    0.880308   -2.210737   -0.209544
 C   -0.125411   -1.373711   -1.019670
 O    0.215367   -0.355060   -1.589946
 C    0.503887   -2.259919    1.277943
 C    1.419781   -3.182285    2.094574
 C    1.212888   -2.911477    3.583164
 C    1.156251   -4.654823    1.790565
 N   -1.379341   -1.845261   -1.057977
 C   -2.438214   -1.067416   -1.677041
 C   -2.637956    0.224256   -0.864506
 O   -2.267148    1.300904   -1.303315
 C   -3.721454   -1.905353   -1.768938
 O   -3.900902   -2.526858   -0.498921
 C   -3.628652   -2.942498   -2.883605
 C   -5.784582    2.518451    1.401124
 C   -5.055790    1.438134    0.663950
 O   -5.491882    0.870762   -0.303063
 C   -3.667848    1.058544    1.218305
 N   -3.117826    0.014055    0.369563
 C   -2.739640    2.275782    1.330389
 C   -1.334446    1.860587    1.768781
 C   -0.292421    2.967657    1.603326
 C   -0.061877    3.399178    0.156305
 N    0.245286    2.239111   -0.703345
 H    3.705998    3.768697    1.238459
 H    5.097687    3.924411    0.162715
 H    3.589652    4.759903   -0.228615
 H    4.651607    1.472202    0.642655
 H    3.469403    0.427926   -1.823445
 H    4.706243   -1.640038   -1.297637
 H    6.990302   -0.777895   -1.504848
 H    6.472095    0.823959   -0.989515
 H    5.881793    0.154822   -2.509279
 H    4.486584   -1.464761    1.231521
 H    5.788790   -0.272285    1.210407
 H    6.094266   -1.907032    0.657411
 H    2.782180   -2.085956   -1.089635
 H    0.902405   -3.224267   -0.618760
 H   -0.527620   -2.600611    1.381386
 H    0.569484   -1.247552    1.677431
 H    2.459997   -2.951024    1.841248
 H    1.436114   -1.874261    3.821688
 H    1.863618   -3.546575    4.177985
 H    0.183420   -3.117469    3.867186
 H    1.347007   -4.893012    0.746814
 H    1.804744   -5.281684    2.396534
 H    0.125007   -4.912257    2.022532
 H   -1.671738   -2.647317   -0.520595
 H   -2.110753   -0.760987   -2.676608
 H   -4.559726   -1.221608   -1.965052
 H   -4.717761   -3.036970   -0.522304
 H   -3.519842   -2.448901   -3.844184
 H   -4.532134   -3.547777   -2.910545
 H   -2.775198   -3.597514   -2.723866
 H   -5.430543    3.484309    1.043089
 H   -6.848442    2.452440    1.188339
 H   -5.609809    2.460431    2.471359
 H   -3.809063    0.618921    2.212873
 H   -3.500634   -0.913122    0.526345
 H   -3.157602    2.973138    2.055676
 H   -2.703750    2.765217    0.359583
 H   -1.016832    0.984911    1.202843
 H   -1.361286    1.569149    2.820328
 H   -0.588257    3.843530    2.181401
 H    0.651664    2.599750    2.008226
 H    0.781455    4.090507    0.124920
 H   -0.935431    3.911873   -0.245939
 H    0.736951    1.500203   -0.153919
 H    0.918363    2.485021   -1.449097
 H   -0.617421    1.824294   -1.113405
