81 
4yec_ligand_ani.xyz
 C   -1.401965    0.094059    4.148298
 O   -1.359089   -1.093332    3.846776
 C   -0.567625    0.696596    5.258328
 N   -2.227939    0.972549    3.502676
 C   -2.947350    0.569806    2.314139
 C   -2.034014    0.634098    1.064717
 O   -0.866548    1.009948    1.123251
 C   -4.253176    1.378315    2.143388
 C   -5.214655    1.102466    3.298956
 C   -3.989838    2.878256    1.985401
 N   -2.632322    0.265565   -0.104827
 C   -1.905695    0.035664   -1.347907
 C   -1.021326   -1.230509   -1.246668
 O   -1.014319   -1.952184   -0.258057
 C   -1.102905    1.265801   -1.818804
 C   -1.842060    2.607044   -1.727958
 C   -0.933625    3.726773   -2.236886
 C   -3.162950    2.592908   -2.497679
 N   -0.265701   -1.511387   -2.346923
 C    0.818282   -2.479044   -2.266187
 C    1.937286   -1.957455   -1.336995
 O    2.103019   -2.452281   -0.224920
 C    1.329493   -2.826560   -3.670654
 O    1.457738   -1.583267   -4.375381
 C    0.387263   -3.759488   -4.415704
 C    6.392346   -1.454109   -1.184852
 C    4.982545   -1.594664   -1.706383
 O    4.660967   -2.504304   -2.440392
 C    3.946881   -0.527619   -1.282894
 N    2.640595   -0.892215   -1.804685
 C    3.956515   -0.272186    0.232494
 C    2.842401    0.672483    0.700886
 C    2.532871    0.599098    2.200742
 C    2.017690   -0.767234    2.677179
 N    0.793489   -1.177358    1.950725
 H    0.169280    1.398854    4.848532
 H   -1.192993    1.244999    5.969917
 H   -0.045732   -0.102524    5.786408
 H   -1.986626    1.952592    3.563144
 H   -3.212424   -0.483697    2.466252
 H   -4.727989    1.023363    1.219337
 H   -6.152420    1.649400    3.154375
 H   -4.776322    1.419769    4.250337
 H   -5.455712    0.035894    3.375729
 H   -3.249904    3.080186    1.201927
 H   -3.623993    3.325860    2.917631
 H   -4.915097    3.400000    1.717679
 H   -3.483269   -0.267531   -0.004062
 H   -2.672046   -0.179199   -2.103742
 H   -0.816493    1.115176   -2.870486
 H   -0.172932    1.328862   -1.243228
 H   -2.059967    2.805763   -0.670730
 H    0.008524    3.760165   -1.677753
 H   -1.418544    4.704799   -2.141120
 H   -0.691157    3.575456   -3.296506
 H   -3.856409    1.841468   -2.107020
 H   -3.657915    3.568652   -2.434586
 H   -2.989039    2.375232   -3.560104
 H   -0.181859   -0.831169   -3.089048
 H    0.439040   -3.369358   -1.765500
 H    2.321706   -3.291366   -3.567039
 H    1.883991   -1.768276   -5.222138
 H    0.279757   -4.703813   -3.872706
 H    0.778203   -3.988133   -5.413063
 H   -0.600659   -3.301949   -4.525093
 H    6.406792   -1.669305   -0.111017
 H    7.044082   -2.157637   -1.702965
 H    6.757754   -0.431187   -1.323692
 H    4.229944    0.406373   -1.789841
 H    2.508611   -0.714749   -2.794005
 H    4.930671    0.147300    0.509630
 H    3.880423   -1.240549    0.729735
 H    1.916309    0.459664    0.151901
 H    3.109159    1.705703    0.441245
 H    3.418292    0.866017    2.791251
 H    1.760654    1.347246    2.436062
 H    1.795065   -0.719060    3.748754
 H    2.775847   -1.546666    2.538063
 H    0.345965   -0.361564    1.512020
 H    0.097069   -1.580315    2.590018
 H    1.025784   -1.855871    1.212197
