33 
4yfi_ligand_xtb.xyz
 N   11.858277   20.093759   10.774264
 C   11.804514   18.850446   11.378715
 C   10.724984   17.420766   13.003511
 C   12.541813   16.603212   11.704528
 C   11.589151   16.385221   12.679046
 C   12.722680   20.583116    9.849060
 C   11.970439   23.865422    8.856156
 C   13.468961   22.342475    8.407581
 C   12.670529   17.808266   11.048588
 C   15.502412   16.078931   12.953243
 N   15.145620   16.038040   11.552916
 S   13.667462   15.290389   11.256860
 O   13.610389   15.046208    9.846930
 O   13.474043   14.177546   12.147943
 C   10.830423   18.638798   12.360461
 N   13.751625   19.879348    9.380763
 C   14.555466   20.424895    8.480021
 N   14.492710   21.628027    7.944381
 N   13.079915   23.611692    8.098783
 N   11.619579   22.875828    9.617027
 C   12.540776   21.891057    9.363557
 H   11.144187   20.758060   11.047153
 H    9.967693   17.277895   13.759188
 H   11.539564   15.421381   13.158430
 H   11.449435   24.801626    8.813446
 H   13.426881   17.937949   10.294233
 H   16.465754   16.571482   13.068838
 H   14.739423   16.661615   13.468531
 H   15.538879   15.080569   13.400345
 H   15.854966   15.619626   10.968590
 H   10.153546   19.442056   12.615213
 H   15.368465   19.796458    8.143773
 H   13.529437   24.225839    7.440924
