19 
4ygf_ligand_ani.xyz
 C   -0.994842    0.294663   -0.084562
 C    1.309323    0.703285   -0.006521
 C    3.539992   -0.328819    0.025130
 C    5.012943    0.003445    0.065346
 N   -3.215997    0.243222    1.379528
 N    0.610772    1.802830   -0.017925
 N   -0.722962    1.554648   -0.061623
 N    2.690938    0.759395    0.037321
 O   -3.375605    0.538372   -1.133004
 O   -2.685289   -1.688439   -0.124142
 O    3.122717   -1.468471   -0.014651
 S   -2.695372   -0.239487   -0.119121
 S    0.380765   -0.761343   -0.049618
 H    5.447422   -0.472282    0.947343
 H    5.486975   -0.435553   -0.815310
 H    5.225315    1.074662    0.092524
 H   -3.804474    1.068071    1.330283
 H   -3.631127   -0.525621    1.895198
 H    3.071264    1.696195    0.066707
