19 
4ygf_ligand_dft.xyz
 C   -0.986300    0.279701    0.006060
 C    1.308128    0.716226   -0.001375
 C    3.514243   -0.329712    0.006555
 C    4.988293   -0.009570   -0.015423
 N   -3.573719    0.935041    0.510920
 N    0.600782    1.813855   -0.010829
 N   -0.734692    1.548193   -0.009402
 N    2.683081    0.776575   -0.003062
 O   -3.007415   -0.502595   -1.455079
 O   -2.755041   -1.400404    0.904221
 O    3.054450   -1.453614    0.028180
 S   -2.673508   -0.322872   -0.059621
 S    0.401388   -0.765145    0.025240
 H    5.548252   -0.942942    0.031547
 H    5.251093    0.523912   -0.934937
 H    5.262028    0.622303    0.835817
 H   -3.479891    1.769033   -0.061186
 H   -3.402621    1.120129    1.493940
 H    3.064766    1.713206   -0.021949
