60 
4yhm_ligand_xtb.xyz
 N    1.033861    1.496897    1.359035
 C   -1.484018    1.283181    1.488291
 C   -0.964588   -1.093531    0.011611
 C    1.953286    0.674747    0.763514
 C    1.312926    2.711614    2.070149
 C   -2.257119   -0.708196    0.331798
 C   -4.585035    0.261605   -1.049859
 C    6.318654    0.819655    0.462477
 C   -3.512121    0.801559   -1.771479
 C    7.367725   -1.364351   -0.878650
 C   -3.644272    2.068730   -2.297925
 C   -7.931832   -1.097779    0.783565
 C   -0.192355    0.922897    1.135363
 C    0.072837   -0.259044    0.399277
 N    1.422416   -0.367156    0.191665
 C   -2.506509    0.458668    1.071828
 C    3.412657    0.963832    0.782437
 C   -3.379574   -1.614232   -0.030308
 N    4.089499    0.042073   -0.085660
 N   -4.535765   -1.009983   -0.501847
 O   -3.323532   -2.811777    0.134879
 C    5.449609   -0.113247   -0.110318
 C   -5.772160   -1.775268   -0.402069
 C    6.003907   -1.212636   -0.777104
 N   -5.734767    0.919831   -0.914316
 C   -6.485478   -1.560576    0.946781
 C    7.684753    0.650928    0.370129
 C   -5.854241    2.134133   -1.434707
 C    8.234819   -0.434565   -0.304205
 C   -4.835357    2.765097   -2.118846
 O   -8.087658    0.004117    0.061038
 O   -8.858823   -1.673819    1.280067
 C    9.704261   -0.600265   -0.384899
 N   10.550872   -0.278167    0.510083
 N   10.166402   -1.215681   -1.518532
 H   -1.693173    2.169886    2.067533
 H   -0.778654   -2.006548   -0.529925
 H    2.035393    2.528589    2.868066
 H    1.719263    3.470138    1.396275
 H    0.392088    3.088533    2.509483
 H    5.928351    1.683708    0.978085
 H   -2.615140    0.226434   -1.928333
 H    7.772676   -2.229133   -1.383526
 H   -2.833513    2.505805   -2.861337
 H   -3.522240    0.707353    1.341762
 H    3.779215    0.891181    1.822681
 H    3.582959    1.998814    0.447241
 H    3.521120   -0.743686   -0.367414
 H   -5.493632   -2.825466   -0.509483
 H   -6.416850   -1.496059   -1.238381
 H    5.341045   -1.945832   -1.213945
 H   -6.484223   -2.475514    1.537437
 H   -5.961001   -0.790852    1.518775
 H    8.340003    1.388380    0.813508
 H   -6.816930    2.603517   -1.286091
 H   -4.970047    3.756142   -2.519382
 H   -7.218885    0.362946   -0.275233
 H   10.136471    0.087098    1.361309
 H   11.169147   -1.209100   -1.615943
 H    9.634366   -1.106917   -2.365154
