53 
4yjn_ligand_ani.xyz
 O   -3.676133    3.369589   -0.456183
 C   -2.761805    2.551232   -0.566593
 N   -1.531825    2.931348   -1.015630
 C   -2.946435    1.129029   -0.228239
 C   -4.209405    0.559644   -0.074975
 N   -5.421855    1.216136    0.020551
 N   -4.039773   -0.777811    0.057148
 C   -5.080856   -1.816933    0.259174
 C   -4.390550   -3.169484    0.425335
 C   -5.893841   -1.507052    1.520973
 C   -6.005741   -1.877294   -0.963450
 C   -2.053750    0.021007   -0.114555
 N   -2.722149   -1.110524    0.015902
 C   -0.572604   -0.009898   -0.095145
 C    0.096295   -1.046564   -0.789348
 C    1.464324   -1.097907   -0.818268
 C    2.242240   -0.134900   -0.124531
 N    3.606240   -0.235545   -0.194758
 C    4.302692    0.646128    0.463121
 C    3.748223    1.697834    1.252447
 C    2.394621    1.804746    1.317651
 C    1.580977    0.872263    0.608070
 C    0.165072    0.917957    0.605033
 O    5.652259    0.626271    0.433278
 C    6.266098   -0.319465   -0.433305
 C    7.795448   -0.338598   -0.367991
 C    7.723821   -1.884700   -0.437838
 C    6.249898   -1.789821    0.018436
 H   -1.465804    3.869610   -1.382034
 H   -0.868866    2.243488   -1.338908
 H   -5.287471    2.212847   -0.143566
 H   -6.166069    0.823749   -0.540704
 H   -3.805914   -3.412577   -0.465551
 H   -3.709389   -3.145168    1.279716
 H   -5.136747   -3.954147    0.587637
 H   -5.240314   -1.485978    2.398945
 H   -6.405657   -0.545726    1.443169
 H   -6.644026   -2.291291    1.672237
 H   -6.597430   -0.966147   -1.084644
 H   -5.426518   -2.040964   -1.876801
 H   -6.711000   -2.707437   -0.847282
 H   -0.494981   -1.798590   -1.305745
 H    1.991558   -1.876401   -1.361493
 H    4.421348    2.378234    1.764786
 H    1.920544    2.590380    1.904828
 H   -0.335855    1.708362    1.156774
 H    5.882271   -0.198997   -1.451674
 H    8.121873    0.001234    0.619588
 H    8.348369    0.199326   -1.141151
 H    8.412929   -2.450241    0.194904
 H    7.809188   -2.253938   -1.465417
 H    5.503693   -2.428884   -0.457535
 H    6.152463   -1.846198    1.104647
