53 
4yjn_ligand_xtb.xyz
 O   -3.729793    3.327410   -0.466051
 C   -2.786227    2.540951   -0.504593
 N   -1.562015    2.950545   -0.916072
 C   -2.940487    1.131917   -0.176965
 C   -4.208430    0.542114   -0.054899
 N   -5.391433    1.212434    0.025363
 N   -4.019777   -0.790077    0.063641
 C   -5.006894   -1.848231    0.247105
 C   -4.256982   -3.168538    0.423303
 C   -5.831531   -1.554807    1.503963
 C   -5.901674   -1.941966   -0.995268
 C   -2.041354    0.033253   -0.103341
 N   -2.709835   -1.095104    0.028510
 C   -0.581533    0.010823   -0.114900
 C    0.084393   -0.996366   -0.843458
 C    1.448741   -1.053742   -0.881449
 C    2.222351   -0.107715   -0.180721
 N    3.568662   -0.185989   -0.252009
 C    4.283367    0.683498    0.409464
 C    3.724894    1.713763    1.214571
 C    2.370450    1.809237    1.294028
 C    1.561159    0.890032    0.582583
 C    0.157779    0.927309    0.602222
 O    5.621519    0.635656    0.343744
 C    6.175426   -0.381837   -0.467903
 C    7.707727   -0.355735   -0.499933
 C    7.721051   -1.863434   -0.201203
 C    6.222857   -1.797192    0.135212
 H   -1.451615    3.912818   -1.186328
 H   -0.786346    2.317733   -1.000328
 H   -5.237644    2.202542   -0.171572
 H   -6.200711    0.805995   -0.415281
 H   -3.678364   -3.396950   -0.466572
 H   -3.570330   -3.101950    1.261477
 H   -4.966807   -3.970901    0.604833
 H   -5.184282   -1.554718    2.377730
 H   -6.318006   -0.585809    1.441715
 H   -6.591135   -2.321171    1.633837
 H   -6.557822   -1.080835   -1.092865
 H   -5.289357   -2.015325   -1.891398
 H   -6.524982   -2.829888   -0.929433
 H   -0.516696   -1.721432   -1.369928
 H    1.965597   -1.817142   -1.441547
 H    4.391238    2.384773    1.731502
 H    1.897783    2.577745    1.890117
 H   -0.336593    1.674506    1.208166
 H    5.700029   -0.356171   -1.452515
 H    8.102687    0.243623    0.316630
 H    8.161195   -0.036117   -1.434855
 H    8.376256   -2.181629    0.606007
 H    7.927457   -2.464527   -1.083737
 H    5.576732   -2.532609   -0.335291
 H    6.028199   -1.779734    1.205151
