56 
4ykn_ligand_dft.xyz
 C    2.298885   -0.890374    0.622753
 C   -1.807370   -2.782272    1.704906
 C   -2.934529   -2.200552   -0.331451
 C   -3.950960    0.696811   -0.112630
 C   -1.969141    3.475071    1.708963
 C    0.325246    5.827086   -0.918076
 O    1.577654    5.452337   -0.386031
 C    1.845560    4.136917   -0.260206
 C    0.927939    3.123568   -0.564168
 C    1.333948    1.808571   -0.401294
 C    2.628976    1.524231    0.037213
 C    3.442155    2.624956    0.328151
 N    3.072097    3.893203    0.192571
 C    3.131161    0.137130    0.157178
 C    2.738512   -2.207450    0.678356
 C    1.843589   -3.347442    1.138804
 N    0.590929   -2.958927    1.747987
 C   -0.565991   -2.735075    1.038361
 C   -2.980487   -2.523144    1.026047
 C   -1.720740   -2.147802   -1.007571
 C   -0.543025   -2.430246   -0.333806
 S   -4.421677   -1.771154   -1.170740
 O   -5.517098   -2.624408   -0.740687
 O   -4.125857   -1.560507   -2.569050
 N   -4.862070   -0.277022   -0.452796
 N   -2.848697    0.914195   -0.759780
 N   -2.082136    1.877002   -0.166759
 C   -2.600390    2.387594    0.902766
 S   -4.153620    1.686205    1.315488
 C    4.040558   -2.506604    0.276316
 C    4.889975   -1.496141   -0.170067
 C    4.434787   -0.179750   -0.223701
 C    6.307480   -1.761575   -0.585316
 O    6.575556   -3.002529   -1.050407
 O    7.179959   -0.936960   -0.517656
 H    1.294863   -0.652394    0.961107
 H   -1.839595   -3.035450    2.761208
 H   -0.927917    3.579586    1.396033
 H   -2.484861    4.429245    1.556323
 H   -1.991364    3.245289    2.778035
 H    0.176913    5.420106   -1.925735
 H   -0.502703    5.502658   -0.274563
 H    0.336036    6.916226   -0.965847
 H   -0.076454    3.320758   -0.915836
 H    0.632972    1.013229   -0.640558
 H    4.450361    2.469775    0.709552
 H    2.391158   -3.951395    1.869409
 H    1.645655   -4.009496    0.282522
 H    0.467767   -3.226879    2.711189
 H   -3.933219   -2.580126    1.543511
 H   -1.704826   -1.869265   -2.055013
 H    0.399934   -2.370125   -0.865970
 H   -5.695207   -0.377883    0.111858
 H    4.395605   -3.532856    0.362902
 H    5.108422    0.586148   -0.593843
 H    5.751813   -3.481624   -1.209343
