39 
4yl0_ligand_dft.xyz
 C   11.282984   13.540167   35.172575
 C    9.852930   13.610321   33.260884
 C   10.526402   14.652599   31.199309
 C   10.069839   13.230783   34.574082
 C   18.128710   17.732229   33.596229
 C   18.716229   18.317045   32.466452
 C   13.491116   14.453092   35.227997
Cl   16.716591   18.813244   26.007014
 C   16.000676   18.088285   27.427704
 C   14.759418   17.454868   27.312174
 C   16.671443   18.156360   28.631045
 C   16.126492   17.584445   29.795388
 C   16.826087   17.647132   31.090749
 C   18.078511   18.273868   31.242121
 C   14.867192   16.939560   29.676074
 C   14.204812   16.886756   28.438248
 C   14.332753   16.366512   30.873413
 N   13.167504   15.687227   31.101166
 C   13.146266   15.367014   32.438575
 C   12.086375   14.633252   33.136545
 C   12.282903   14.226684   34.476414
 N   14.368148   14.524064   35.982277
 C   10.843099   14.300748   32.553452
 N   10.277341   14.924711   30.099204
 N   14.224955   15.804833   33.053383
 C   14.970902   16.423088   32.096564
 C   16.247738   17.065116   32.244752
 C   16.902784   17.110484   33.485103
 H   11.478416   13.247894   36.198637
 H    8.916361   13.381718   32.763769
 H    9.304921   12.697326   35.126657
 H   18.637245   17.767217   34.554680
 H   19.681269   18.807505   32.549639
 H   14.250521   17.416554   26.355913
 H   17.628114   18.662158   28.656426
 H   18.567997   18.736310   30.392446
 H   13.238558   16.395580   28.360659
 H   12.459104   15.475468   30.414330
 H   16.424295   16.643782   34.340950
