39 
4yl0_ligand_xtb.xyz
 C   11.293459   13.736576   35.213880
 C    9.908062   13.545574   33.271511
 C   10.593073   14.410187   31.144113
 C   10.117884   13.311796   34.616620
 C   18.138912   17.575159   33.587764
 C   18.724224   18.174329   32.474576
 C   13.440449   14.799732   35.159781
Cl   16.697226   18.885814   26.076847
 C   15.985692   18.142992   27.467412
 C   14.737679   17.535653   27.345608
 C   16.664086   18.165470   28.665394
 C   16.123584   17.574205   29.814503
 C   16.823672   17.583979   31.090314
 C   18.083174   18.178632   31.256726
 C   14.850716   16.957758   29.685585
 C   14.181454   16.949442   28.454666
 C   14.305715   16.365439   30.852511
 N   13.129088   15.712904   31.069761
 C   13.115336   15.355378   32.394349
 C   12.073696   14.654987   33.097409
 C   12.265199   14.400725   34.470068
 N   14.299060   15.031869   35.884776
 C   10.872989   14.209884   32.511521
 N   10.347204   14.562030   30.032335
 N   14.212772   15.745539   33.009537
 C   14.968067   16.372587   32.083316
 C   16.247209   16.980887   32.233679
 C   16.906108   16.981322   33.466554
 H   11.470188   13.557947   36.263998
 H    8.997763   13.219344   32.790366
 H    9.368593   12.799185   35.199263
 H   18.653534   17.579457   34.536631
 H   19.693791   18.641800   32.566312
 H   14.226504   17.531426   26.396402
 H   17.624409   18.651736   28.697416
 H   18.575211   18.653895   30.423468
 H   13.214290   16.474615   28.378886
 H   12.411008   15.530346   30.387167
 H   16.415922   16.505400   34.301975
