51 
4ylu_ligand_ani.xyz
 O    2.599355    1.644185    0.244794
 C    1.680145    0.851075    0.204567
 N    0.558208    1.059669   -0.574674
 C   -0.686951    0.414391   -0.304562
 C   -1.349542   -0.249364   -1.331195
 C   -2.537831   -0.929943   -1.102236
 C   -3.094325   -0.926099    0.178326
 N   -4.298640   -1.588548    0.493591
 C   -5.015844   -2.457879   -0.290483
 C   -6.284806   -3.000622    0.343823
 C   -6.144891   -4.497053    0.632684
 O   -4.678571   -2.807938   -1.407730
 C   -2.456719   -0.218840    1.202078
 C   -1.265366    0.450617    0.964211
 C    0.511460    2.265440   -1.403973
 C   -0.217016    3.387230   -0.703058
 C   -1.506800    3.751268   -0.953309
 S   -2.053551    4.971307    0.131031
 C   -0.533260    5.007718    0.934897
 C    0.345146    4.116082    0.395819
 C    1.700418   -0.472681    0.977826
 N    3.024568   -1.041873    1.047560
 N    3.619423   -1.272331    2.239193
 N    4.784840   -1.771504    2.049330
 C    4.989369   -1.888719    0.688859
 C    3.850754   -1.415465    0.031243
 C    3.739371   -1.409221   -1.367010
 C    4.825291   -1.898177   -2.066052
 C    5.983280   -2.380225   -1.409717
 C    6.086476   -2.384643   -0.037741
 H   -0.908749   -0.250564   -2.326829
 H   -3.032507   -1.459432   -1.905094
 H   -4.642344   -1.425696    1.428102
 H   -7.084464   -2.841697   -0.386767
 H   -6.549882   -2.443793    1.249029
 H   -5.856793   -5.029087   -0.278876
 H   -5.376634   -4.680967    1.390955
 H   -7.089614   -4.912774    0.996196
 H   -2.892594   -0.196672    2.197881
 H   -0.783589    1.006777    1.764740
 H    0.005998    2.019901   -2.345135
 H    1.547285    2.540079   -1.622613
 H   -2.166334    3.367658   -1.723021
 H   -0.374549    5.685215    1.764049
 H    1.357589    3.956232    0.752200
 H    1.011550   -1.180151    0.507049
 H    1.371630   -0.311513    2.009040
 H    2.853592   -1.036828   -1.875218
 H    4.794224   -1.915385   -3.151411
 H    6.809680   -2.755858   -2.008181
 H    6.968113   -2.753574    0.475904
