51 
4ylu_ligand_dft.xyz
 O    2.651606    0.976017   -0.828835
 C    1.593812    0.409177   -0.615261
 N    0.386265    0.900619   -1.027378
 C   -0.861804    0.341604   -0.609687
 C   -1.539495   -0.550499   -1.435157
 C   -2.762899   -1.092556   -1.059237
 C   -3.324882   -0.730744    0.170461
 N   -4.551730   -1.231911    0.633230
 C   -5.412608   -2.116605    0.019696
 C   -6.651875   -2.426182    0.852591
 C   -7.591368   -3.397088    0.149902
 O   -5.212638   -2.606474   -1.075290
 C   -2.646585    0.174173    0.997310
 C   -1.428520    0.709933    0.610990
 C    0.350498    2.209731   -1.691440
 C    0.073318    3.322833   -0.718912
 C   -1.094788    4.025004   -0.659727
 S   -1.099361    5.162869    0.634659
 C    0.488939    4.687368    1.117417
 C    0.989082    3.709928    0.313284
 C    1.538986   -0.952605    0.089743
 N    2.810978   -1.324346    0.641151
 N    2.950016   -1.425278    1.987876
 N    4.144392   -1.802550    2.267849
 C    4.834477   -1.964144    1.086353
 C    3.979665   -1.649800    0.023730
 C    4.389203   -1.716882   -1.314145
 C    5.689287   -2.124363   -1.532533
 C    6.563738   -2.449826   -0.467580
 C    6.155308   -2.371422    0.847425
 H   -1.099089   -0.826771   -2.389003
 H   -3.283613   -1.788554   -1.701028
 H   -4.835539   -0.898129    1.543197
 H   -7.167462   -1.482342    1.074649
 H   -6.327666   -2.834334    1.819150
 H   -7.929993   -2.987963   -0.805098
 H   -7.086932   -4.343803   -0.058041
 H   -8.466545   -3.597016    0.774724
 H   -3.077062    0.464234    1.952741
 H   -0.908859    1.415521    1.251946
 H   -0.422966    2.171650   -2.463782
 H    1.321381    2.345833   -2.171638
 H   -1.958932    3.922180   -1.302717
 H    0.968384    5.167575    1.959329
 H    1.971439    3.266010    0.429304
 H    1.197108   -1.715329   -0.619978
 H    0.831286   -0.941328    0.920603
 H    3.731531   -1.436256   -2.128807
 H    6.058883   -2.188773   -2.551483
 H    7.577812   -2.760370   -0.698737
 H    6.816479   -2.612254    1.672707
