38 
4yo6_ligand_dft.xyz
 N   -0.251715   -0.999897   -0.032920
 C    0.648331   -2.039558   -0.071328
 O    0.336449   -3.215180   -0.153870
 C    2.056124   -1.600298   -0.009288
 C    3.195754   -2.422460   -0.026464
 N    4.342170   -1.748856    0.038414
 N    3.952352   -0.457594    0.099354
 C    2.571969   -0.310563    0.073370
 N    1.984108    0.902758    0.125479
 C    2.774276    1.946567    0.201113
 C    4.192105    1.856004    0.230072
 C    4.769927    0.620223    0.177585
 C   -1.631371   -1.152272   -0.042645
 C   -2.441843   -2.261185    0.028383
 C   -3.755644   -1.734119    0.056469
 N   -3.761939   -0.412188    0.005551
 N   -2.449407   -0.056130   -0.074901
 C   -5.042121   -2.493167    0.130047
 C   -2.095023    1.313991   -0.113583
 C   -2.726208    2.202105    0.757570
 C   -2.383516    3.547641    0.731908
 C   -1.405134    4.010721   -0.146877
 C   -0.786556    3.121548   -1.019474
 C   -1.138803    1.774756   -1.017664
 H    0.122024   -0.060679    0.083200
 H    3.209452   -3.501807   -0.085505
 H    2.286265    2.917175    0.242355
 H    4.804584    2.745921    0.293387
 H    5.832549    0.412546    0.192590
 H   -2.119132   -3.287842    0.065805
 H   -5.162367   -3.148957   -0.738932
 H   -5.077346   -3.122654    1.025701
 H   -5.883347   -1.796595    0.159039
 H   -3.483582    1.822541    1.433963
 H   -2.878194    4.238217    1.408067
 H   -1.137553    5.062966   -0.158697
 H   -0.041792    3.475662   -1.726282
 H   -0.685730    1.088694   -1.725741
