52 
4yoi_ligand_ani.xyz
 C    0.398355    0.828955   -0.296845
 O    3.918518    1.071580    0.211971
 C    2.803221    0.593054    0.194006
 N    1.766313    1.167108   -0.518359
 C    2.041615    2.354486   -1.326763
 C    1.498742    3.604730   -0.674496
 C    0.344587    4.230654   -1.041479
 S   -0.038192    5.543610    0.003561
 C    1.368732    5.264066    0.951896
 C    2.088939    4.205749    0.485803
 C   -0.183893    0.948741    0.964282
 C   -1.503471    0.567309    1.158394
 C   -2.266433    0.072043    0.097288
 N   -3.595321   -0.320657    0.369581
 C   -4.489010   -0.923294   -0.474297
 C   -5.794969   -1.281868    0.142331
 C   -6.303700   -1.061563    1.397847
 C   -7.616222   -1.594022    1.553564
 C   -8.068412   -2.200073    0.417147
 S   -6.923451   -2.133491   -0.851785
 O   -4.270925   -1.172572   -1.650784
 C   -1.699503   -0.003919   -1.176613
 C   -0.380475    0.387285   -1.360849
 C    2.445400   -0.701205    0.936800
 N    3.568326   -1.597353    1.052519
 C    4.256801   -2.233127    0.064861
 C    4.122009   -2.289657   -1.329050
 C    5.034870   -3.083370   -1.995346
 C    6.047038   -3.796751   -1.309690
 C    6.174169   -3.735363    0.059248
 C    5.251514   -2.932469    0.752493
 N    5.107119   -2.675694    2.102268
 N    4.108988   -1.886579    2.256380
 H    1.583783    2.223790   -2.315222
 H    3.127171    2.405012   -1.447281
 H   -0.302976    3.989298   -1.876111
 H    1.584273    5.895604    1.804225
 H    3.007461    3.847683    0.941055
 H    0.396582    1.342723    1.794982
 H   -1.941870    0.650563    2.149528
 H   -3.881161   -0.189349    1.327954
 H   -5.786961   -0.534033    2.195194
 H   -8.194553   -1.528256    2.469253
 H   -9.024651   -2.684316    0.264429
 H   -2.288022   -0.364705   -2.008268
 H    0.065567    0.325400   -2.352204
 H    1.620584   -1.200708    0.421131
 H    2.120013   -0.471958    1.955976
 H    3.348977   -1.737839   -1.857689
 H    4.978217   -3.165948   -3.076739
 H    6.739948   -4.408200   -1.882552
 H    6.945767   -4.278857    0.594521
