55 
4yoj_ligand_dft.xyz
 O    3.700249    0.728524   -0.693586
 C    2.554374    0.323196   -0.601924
 N    1.476327    1.016612   -1.078252
 C    0.125870    0.639088   -0.798477
 C   -0.601366   -0.096277   -1.729367
 C   -1.921349   -0.459175   -1.488159
 C   -2.530281   -0.072406   -0.289122
 N   -3.859546   -0.383900    0.038222
 C   -4.757790   -1.155283   -0.664277
 C   -6.117073   -1.258684   -0.035184
 C   -6.673721   -0.249830    0.755460
 C   -7.945577   -0.406915    1.296964
 C   -8.666666   -1.572324    1.054209
 C   -8.121187   -2.574371    0.254454
 C   -6.855792   -2.414547   -0.295591
 O   -4.488869   -1.730535   -1.704906
 C   -1.800742    0.675503    0.644159
 C   -0.485917    1.032248    0.392532
 C    1.697672    2.347219   -1.658512
 C    1.501364    3.439140   -0.643223
 C    0.451588    4.310336   -0.638242
 S    0.495750    5.367041    0.722655
 C    1.941941    4.626184    1.307068
 C    2.363408    3.625718    0.486376
 C    2.232683   -1.046987    0.009237
 N    3.375584   -1.630059    0.652621
 C    4.538867   -2.103121    0.127458
 C    5.062297   -2.180096   -1.169548
 C    6.303977   -2.769699   -1.290254
 C    7.013790   -3.263027   -0.168884
 C    6.495305   -3.174197    1.106073
 C    5.231222   -2.582399    1.245377
 N    4.460508   -2.364068    2.366320
 N    3.366918   -1.801369    1.999364
 H   -0.123371   -0.392379   -2.658798
 H   -2.478131   -1.040799   -2.208458
 H   -4.156901   -0.080698    0.953548
 H   -6.140673    0.683094    0.921089
 H   -8.376368    0.385764    1.900741
 H   -9.657649   -1.695675    1.480420
 H   -8.685401   -3.480473    0.056651
 H   -6.421362   -3.177221   -0.933228
 H   -2.267510    0.983775    1.576531
 H    0.074690    1.616352    1.115830
 H    1.001624    2.468143   -2.493451
 H    2.718029    2.355457   -2.046491
 H   -0.353852    4.376011   -1.357741
 H    2.406511    4.982070    2.216376
 H    3.252805    3.029503    0.656851
 H    1.859153   -1.715428   -0.775633
 H    1.452976   -0.970218    0.769073
 H    4.534896   -1.773431   -2.024792
 H    6.757452   -2.850297   -2.273559
 H    7.989235   -3.713491   -0.323157
 H    7.030860   -3.542895    1.974119
