19 
4ypf_ligand_ani.xyz
 C    1.746060    1.186541    0.006712
 C   -2.683096   -0.993132   -0.002613
 C   -1.832362    1.271636   -0.005744
 C   -1.411638   -1.499661    0.003212
 N    3.418557   -0.585017    0.069657
 C    2.081893   -0.203421    0.007026
 C    1.044714   -1.104109    0.006771
 C   -0.288852   -0.629214    0.002871
 C   -0.505201    0.770254   -0.000241
 N    0.531890    1.660569    0.002901
 C   -2.895733    0.408077   -0.008620
 H    2.557687    1.917426    0.017051
 H   -3.540686   -1.661182   -0.001869
 H   -1.966996    2.349753   -0.006418
 H   -1.239481   -2.574218    0.008497
 H    4.066264    0.094332   -0.303197
 H    3.612829   -1.514467   -0.276125
 H    1.234633   -2.176436    0.013256
 H   -3.912090    0.794087   -0.015349
