39 
4yqh_ligand_ani.xyz
 C  -24.478663  -36.213968   23.508658
 C  -25.780040  -36.536509   23.868745
 C  -26.426036  -35.819055   24.872763
 C  -25.762027  -34.776923   25.514304
 C  -24.459805  -34.451828   25.156160
 C  -23.807905  -35.168745   24.149681
 N  -21.804756  -35.571341   22.755347
 C  -22.430379  -34.845994   23.750642
 C  -21.585559  -33.878298   24.224142
 C  -20.607530  -35.054694   22.625115
 N  -20.425979  -34.022052   23.495327
 C  -19.550363  -35.463584   21.646432
 C  -19.733582  -36.899223   21.151884
 C  -18.789395  -37.261989   20.037506
 C  -18.074998  -38.502870   20.078234
 C  -17.146548  -38.068622   18.055614
 C  -16.304242  -38.438214   16.977155
 C  -16.164137  -37.603652   15.897977
 C  -16.856246  -36.367803   15.851778
 C  -17.675020  -35.989539   16.883867
 C  -17.837082  -36.837178   18.008710
 N  -17.276922  -38.907673   19.129301
 N  -18.654565  -36.439947   19.026440
 H  -23.958715  -36.762320   22.727998
 H  -26.292832  -37.351408   23.363830
 H  -27.444693  -36.072143   25.154050
 H  -26.261024  -34.213763   26.298285
 H  -23.953766  -33.635798   25.665620
 H  -21.687618  -33.122117   24.987691
 H  -19.589911  -33.464303   23.583376
 H  -18.563755  -35.335938   22.109064
 H  -19.574608  -34.782344   20.786379
 H  -20.768924  -37.021517   20.809958
 H  -19.599746  -37.603619   21.980670
 H  -18.197563  -39.157433   20.942508
 H  -15.786772  -39.391022   17.043261
 H  -15.518983  -37.885724   15.069601
 H  -16.732021  -35.718815   14.988322
 H  -18.218294  -35.049032   16.882603
