22 
4yrd_ligand_dft.xyz
 C   -2.510491   -1.304177   -0.260002
 C   -1.953316    0.090722   -0.150781
 C   -2.957019    1.152290   -0.508306
 C   -0.666319    0.355029    0.195081
 C   -0.137879    1.708747    0.335513
 C    1.141053    2.133262    0.266571
 C    2.337883    1.400777   -0.111926
 C    2.518061    0.092055   -0.382552
 C    1.535895   -0.989913   -0.268060
 O    1.734388   -2.090591   -0.747946
 C    0.234753   -0.792916    0.526602
 O   -0.064042   -1.631853    1.347935
 H   -1.747035   -2.075360   -0.364845
 H   -3.086292   -1.538263    0.643768
 H   -3.199565   -1.365628   -1.109288
 H   -2.636948    2.173121   -0.299326
 H   -3.185787    1.089409   -1.579660
 H   -3.896782    0.965820    0.024469
 H   -0.873386    2.475365    0.560822
 H    1.304980    3.191840    0.449383
 H    3.214142    2.033331   -0.240985
 H    3.488174   -0.245344   -0.737074
