24 
4yrr_ligand_dft.xyz
 O   -2.905127   -1.604470   -0.001289
 C   -3.243701   -0.435213   -0.001010
 C   -4.705993   -0.030138    0.002829
 N   -2.356009    0.613896   -0.001516
 C   -0.953509    0.554585   -0.000995
 C   -0.208633   -0.600027   -0.000861
 C    1.203788   -0.492618   -0.000293
 C    1.790566    0.799545    0.000084
 N    1.033620    1.935085   -0.000137
 C   -0.263956    1.801265   -0.000665
 C    2.050476   -1.631051   -0.000053
 C    3.413548   -1.482135    0.000576
 C    3.995465   -0.191777    0.000975
 C    3.201615    0.926268    0.000720
 H   -5.193073   -0.484335   -0.863811
 H   -5.177558   -0.443195    0.898484
 H   -4.874338    1.050187   -0.020395
 H   -2.749008    1.543250   -0.001022
 H   -0.691036   -1.568506   -0.001191
 H   -0.845710    2.725998   -0.000891
 H    1.599568   -2.619738   -0.000387
 H    4.054818   -2.358420    0.000781
 H    5.076689   -0.092328    0.001480
 H    3.619389    1.927750    0.000984
