24 
4yrr_ligand_ani.xyz
 O   -2.879883   -1.603760    0.115988
 C   -3.225564   -0.440129    0.025016
 C   -4.690157   -0.049653    0.013172
 N   -2.355437    0.617801   -0.071189
 C   -0.952109    0.573376   -0.050273
 C   -0.217896   -0.582984   -0.071268
 C    1.194308   -0.484505   -0.038880
 C    1.786196    0.800327    0.013500
 N    1.036813    1.946326    0.026064
 C   -0.260083    1.820376   -0.006865
 C    2.032732   -1.631154   -0.052235
 C    3.394691   -1.496561   -0.012059
 C    3.983710   -0.208845    0.043224
 C    3.199097    0.914352    0.055242
 H   -5.177623   -0.578980   -0.808730
 H   -5.144505   -0.397645    0.944089
 H   -4.866842    1.023969   -0.094152
 H   -2.760300    1.540224   -0.120429
 H   -0.709128   -1.547594   -0.106386
 H   -0.834524    2.748506    0.004653
 H    1.568739   -2.615223   -0.094474
 H    4.034430   -2.375137   -0.021440
 H    5.066578   -0.117749    0.076230
 H    3.623056    1.913218    0.097168
