27 
4yrs_ligand_xtb.xyz
 N   -1.091153    1.620110   -0.003460
 C   -0.567783   -1.111764   -0.004478
 C   -2.116350    0.745040   -0.002892
 C    0.130397    1.180001   -0.002187
 C    0.463327   -0.199420    0.001248
 C   -3.436222    1.238700    0.003102
 C    4.169165   -0.860001    0.034461
 C    2.948763    0.050477    0.016547
 C   -3.013352   -1.524917   -0.010309
 C   -4.281802   -1.015426   -0.004607
 C   -4.494448    0.372958    0.003610
 O    3.012023    1.255224    0.012757
 C    5.459518   -0.055712   -0.045984
 N    1.778722   -0.663555    0.010662
 C   -1.899985   -0.660570   -0.007138
 H   -0.366318   -2.176267   -0.005116
 H    0.912972    1.923544   -0.003203
 H   -3.575617    2.308189    0.008429
 H    4.103403   -1.555188   -0.806652
 H    4.147466   -1.444787    0.958390
 H   -2.845129   -2.592996   -0.016112
 H   -5.133363   -1.680205   -0.005744
 H   -5.506406    0.750481    0.010337
 H    5.494116    0.504417   -0.976527
 H    5.507273    0.654856    0.774601
 H    6.323286   -0.713829    0.003276
 H    1.861780   -1.672101    0.017619
