27 
4yrs_ligand_dft.xyz
 N   -1.101296    1.638306   -0.000406
 C   -0.571464   -1.107821   -0.000038
 C   -2.129266    0.745237   -0.000138
 C    0.130076    1.192535   -0.000503
 C    0.458744   -0.198339   -0.000342
 C   -3.458021    1.239606   -0.000078
 C    4.199306   -0.856577   -0.000632
 C    2.963045    0.037691   -0.000006
 C   -3.026189   -1.532131    0.000365
 C   -4.300531   -1.026904    0.000431
 C   -4.519513    0.372172    0.000201
 O    3.027239    1.251666    0.000889
 C    5.491600   -0.050837    0.000726
 N    1.781561   -0.671259   -0.000603
 C   -1.909781   -0.656597    0.000060
 H   -0.370787   -2.178125    0.000126
 H    0.928521    1.924197   -0.000718
 H   -3.594732    2.316016   -0.000261
 H    4.154671   -1.512640   -0.880147
 H    4.154119   -1.514734    0.877283
 H   -2.855775   -2.605831    0.000537
 H   -5.151284   -1.701729    0.000660
 H   -5.535868    0.754053    0.000250
 H    5.547715    0.594015   -0.879608
 H    5.547236    0.591851    0.882675
 H    6.356582   -0.720423    0.000147
 H    1.871796   -1.677506   -0.001264
