29 
4yrt_ligand_xtb.xyz
 O   -3.222555   -1.672709   -0.167454
 C   -3.287013   -0.469351   -0.270749
 C   -4.606628    0.281381   -0.367442
 C   -4.927810    0.976187    0.956042
 N   -2.211249    0.370251   -0.294290
 C   -0.849320    0.077762   -0.185167
 C    0.047429    1.120250   -0.204408
 C    1.433477    0.903177   -0.099461
 C    2.347067    1.976529   -0.115915
 C    3.689641    1.742506   -0.011259
 C    4.177318    0.438787    0.110940
 C    3.316579   -0.634461    0.129272
 O    3.861004   -1.873538    0.248106
 C    1.913618   -0.429319    0.026427
 C    0.968092   -1.477506    0.042993
 C   -0.373026   -1.241836   -0.058197
 H   -5.385823   -0.445976   -0.596087
 H   -4.561661    1.012175   -1.178001
 H   -4.983137    0.244259    1.758259
 H   -4.166156    1.709751    1.214350
 H   -5.885849    1.486269    0.888540
 H   -2.412031    1.356737   -0.387714
 H   -0.305903    2.138460   -0.301424
 H    1.967120    2.982740   -0.212059
 H    4.389896    2.564311   -0.022263
 H    5.236010    0.251128    0.192377
 H    3.169377   -2.545490    0.243688
 H    1.291707   -2.506334    0.139037
 H   -1.078937   -2.054445   -0.042348
