29 
4yrt_ligand_dft.xyz
 O   -3.269410   -1.302182   -0.001905
 C   -3.257937   -0.085253    0.001397
 C   -4.535382    0.750060    0.007445
 C   -5.789124   -0.114253    0.001505
 N   -2.113022    0.677912    0.000408
 C   -0.766684    0.270032   -0.002051
 C    0.206413    1.244020    0.002733
 C    1.584259    0.921863    0.000925
 C    2.580592    1.931602   -0.000745
 C    3.906679    1.585010   -0.004766
 C    4.305782    0.233593   -0.000753
 C    3.361746   -0.765469    0.003663
 O    3.813236   -2.046911    0.008484
 C    1.968114   -0.449578   -0.001912
 C    0.942040   -1.427987   -0.013460
 C   -0.386880   -1.097407   -0.012949
 H   -4.521418    1.415209   -0.866235
 H   -4.520917    1.402154    0.890928
 H   -5.815992   -0.753223   -0.884543
 H   -5.814958   -0.766665    0.877704
 H   -6.684159    0.514668    0.006752
 H   -2.251430    1.678372    0.004346
 H   -0.073997    2.295879    0.006920
 H    2.277303    2.974562   -0.000145
 H    4.669865    2.357620   -0.007329
 H    5.355119   -0.040304    0.002719
 H    3.074591   -2.660317    0.082320
 H    1.182024   -2.489002   -0.032243
 H   -1.153196   -1.858989   -0.022883
