29 
4yrt_ligand_ani.xyz
 O   -3.224915   -1.443731    0.048226
 C   -3.264282   -0.254675   -0.215110
 C   -4.594588    0.454371   -0.410002
 C   -5.448057    0.389845    0.858077
 N   -2.157027    0.544851   -0.353028
 C   -0.796909    0.189986   -0.223381
 C    0.136636    1.197195   -0.166054
 C    1.521228    0.921118   -0.048282
 C    2.477863    1.964564    0.035725
 C    3.808887    1.668441    0.154859
 C    4.253604    0.330235    0.185897
 C    3.349769   -0.700170    0.092013
 O    3.848624   -1.966637    0.116849
 C    1.950168   -0.433735   -0.010351
 C    0.959225   -1.450962   -0.068059
 C   -0.374337   -1.164582   -0.169998
 H   -5.106085   -0.078750   -1.218909
 H   -4.450729    1.488360   -0.741651
 H   -5.555470   -0.648421    1.185050
 H   -4.991050    0.957754    1.675413
 H   -6.444017    0.804155    0.673758
 H   -2.324637    1.529508   -0.496705
 H   -0.171758    2.239674   -0.202737
 H    2.135243    2.995435    0.007730
 H    4.543567    2.466756    0.225854
 H    5.309717    0.095980    0.277724
 H    3.155503   -2.597953   -0.104987
 H    1.247733   -2.500263   -0.014788
 H   -1.113733   -1.953040   -0.207151
