46 
4ys7_ligand_ani.xyz
 C   -1.599610    3.126021   -0.996839
 N   -2.010929    1.807516   -0.560764
 C   -3.311921    1.366957   -0.439526
 C   -4.543781    2.011436   -0.697520
 C   -5.686631    1.295300   -0.486503
 C   -5.649148   -0.062162   -0.017393
 N   -6.839445   -0.698157    0.163219
 C   -6.806357   -1.935449    0.593699
 C   -5.622397   -2.652022    0.882904
 C   -4.416771   -2.024235    0.704037
 C   -4.407582   -0.694267    0.240956
 C   -3.217836    0.056113    0.015003
 N   -1.901780   -0.308698    0.170450
 C   -1.214509    0.753223   -0.181186
 C    0.280512    0.843894   -0.203017
 C    0.932725   -0.460309    0.272909
 C    2.421215   -0.403858    0.224358
 N    3.152987    0.325195    1.096826
 N    3.109577   -1.043168   -0.711113
 N    4.380813   -0.707640   -0.415304
 C    5.520372   -1.099509   -1.075382
 C    5.351164   -1.998520   -2.253278
 C    4.398844    0.112629    0.673908
 C    5.664217    0.572652    1.136155
 C    5.706740    1.469387    2.327463
 N    6.767619    0.213933    0.524976
 C    6.688311   -0.610521   -0.565102
 H   -1.993062    3.338197   -1.995886
 H   -1.957353    3.893570   -0.302978
 H   -0.509268    3.173426   -1.037632
 H   -4.576905    3.040642   -1.051375
 H   -6.666838    1.724433   -0.665916
 H   -7.772396   -2.422816    0.730074
 H   -5.682642   -3.676648    1.237905
 H   -3.473098   -2.524609    0.909416
 H    0.617385    1.676530    0.432418
 H    0.617368    1.082060   -1.223637
 H    0.590053   -1.293241   -0.347248
 H    0.613424   -0.667116    1.299379
 H    4.865007   -2.934879   -1.960448
 H    4.717044   -1.528052   -3.011800
 H    6.324746   -2.226407   -2.694078
 H    5.111518    2.371143    2.147593
 H    5.260119    0.972367    3.195427
 H    6.738621    1.747895    2.553774
 H    7.639042   -0.869914   -1.026891
