91 
4ysi_ligand_xtb.xyz
 N    0.217781   -1.114033    1.385910
 C    1.598204   -1.172695    1.888576
 C    2.072780   -2.624656    1.691828
 O    1.275089   -3.518597    1.897505
 C    1.583451   -0.870641    3.391777
 O    1.068314    0.427372    3.555035
 N    3.359191   -2.856354    1.389373
 C    4.325462   -1.906794    0.876812
 C    3.813937   -1.305828   -0.437924
 O    2.719968   -1.608022   -0.886370
 C    5.592046   -2.750318    0.677405
 C    5.023633   -4.115143    0.294692
 C    3.808837   -4.234303    1.205409
 N    4.651861   -0.453886   -1.062865
 C    4.061091    0.522689   -1.954428
 C    3.072740    1.360257   -1.115172
 O    3.047319    1.228168    0.094568
 N    2.322950    2.230103   -1.799774
 C    1.311022    3.028525   -1.140442
 C   -0.085702    2.417451   -1.372132
 O   -0.271804    1.507767   -2.155701
 C    1.382177    4.494278   -1.600411
 C    2.163920    5.365145   -0.620334
 C    1.421219    5.560524    0.679557
 O    2.114459    6.296308    1.538355
 O    0.327297    5.117689    0.930552
 N   -1.026927    3.036139   -0.645214
 C   -2.359877    2.516588   -0.486053
 C   -2.400212    1.528170    0.673934
 O   -1.368989    1.062761    1.140461
 N   -3.609077    1.186408    1.136951
 C   -3.744962    0.126463    2.128783
 C   -3.340148   -1.195401    1.456236
 O   -2.408644   -1.862356    1.857587
 C   -5.201027    0.217195    2.586972
 C   -5.946247    0.890973    1.428976
 C   -4.884222    1.730246    0.707862
 N   -4.090137   -1.514249    0.379669
 C   -3.562352   -2.338882   -0.681796
 C   -3.051510   -1.379322   -1.774441
 O   -3.294117   -0.189110   -1.708792
 C   -4.597660   -3.337826   -1.211899
 O   -3.922718   -4.235829   -2.062463
 N   -2.353584   -1.962755   -2.767585
 C   -1.264915   -1.240826   -3.381297
 C   -0.097701   -1.270792   -2.403321
 O   -0.293571   -1.495012   -1.227378
 O    1.087395   -1.100926   -2.922996
 H    0.174520   -1.264954    0.351401
 H   -0.362215   -1.856673    1.811853
 H   -0.241623   -0.198198    1.571305
 H    2.189576   -0.416172    1.371060
 H    2.603832   -0.947790    3.792337
 H    0.953250   -1.616511    3.896122
 H    1.021202    0.641848    4.491501
 H    4.483633   -1.081166    1.579765
 H    6.253752   -2.342393   -0.083540
 H    6.137292   -2.820324    1.618811
 H    5.734635   -4.922520    0.447322
 H    4.714131   -4.110962   -0.750682
 H    4.075631   -4.653639    2.180169
 H    2.998527   -4.830070    0.783712
 H    5.462084   -0.144261   -0.546819
 H    3.537804    0.016706   -2.768432
 H    4.842626    1.158982   -2.369404
 H    2.241368    2.141128   -2.801765
 H    1.516280    2.949786   -0.067602
 H    1.857495    4.535245   -2.581197
 H    0.373979    4.896866   -1.702288
 H    3.137548    4.928167   -0.391036
 H    2.345373    6.355670   -1.042465
 H    1.628048    6.429690    2.368175
 H   -0.716255    3.710777    0.047776
 H   -2.626296    1.950159   -1.385427
 H   -3.056978    3.342576   -0.340800
 H   -3.036695    0.292972    2.947404
 H   -5.258420    0.837806    3.480836
 H   -5.609112   -0.762643    2.825392
 H   -6.761061    1.513878    1.792515
 H   -6.381076    0.147585    0.760748
 H   -4.980383    1.673350   -0.379398
 H   -4.951242    2.781702    1.008352
 H   -4.711608   -0.795099    0.035868
 H   -2.707303   -2.896325   -0.283765
 H   -5.046571   -3.863953   -0.358951
 H   -5.390328   -2.804307   -1.755746
 H   -4.538590   -4.908619   -2.371084
 H   -2.247804   -2.967005   -2.698588
 H   -0.988891   -1.670482   -4.343017
 H   -1.552160   -0.192439   -3.506383
 H    1.773730   -1.230168   -2.207205
