91 
4ysi_ligand_dft.xyz
 N    0.498053   -0.392170    1.096167
 C    1.752210   -0.288846    1.877326
 C    2.861262   -0.945713    1.055695
 O    2.630787   -2.049494    0.557323
 C    1.538773   -1.054651    3.204934
 O    0.267248   -0.781402    3.726891
 N    4.065568   -0.356868    0.944967
 C    4.455736    1.002791    1.331231
 C    3.954839    1.984825    0.260544
 O    4.377009    1.935236   -0.893952
 C    5.986804    0.909670    1.368346
 C    6.329823   -0.088975    0.253931
 C    5.135901   -1.052278    0.211265
 N    3.025613    2.866735    0.676751
 C    2.157712    3.571308   -0.232453
 C    0.711515    3.160114    0.055275
 O    0.416059    2.590951    1.100138
 N   -0.193999    3.557431   -0.866805
 C   -1.592652    3.209667   -0.749323
 C   -1.874237    1.808134   -1.320323
 O   -1.025630    1.150973   -1.900248
 C   -2.488249    4.305962   -1.364526
 C   -2.960270    5.325324   -0.334088
 C   -3.949294    4.727569    0.639479
 O   -4.381580    5.622503    1.527636
 O   -4.329502    3.573075    0.639040
 N   -3.152442    1.402670   -1.098562
 C   -3.512594    0.013473   -1.184101
 C   -3.073853   -0.727340    0.077502
 O   -2.160491   -0.294500    0.776527
 N   -3.674365   -1.899762    0.384254
 C   -3.154539   -2.664644    1.518558
 C   -1.694041   -3.045187    1.242722
 O   -0.797227   -2.858710    2.066875
 C   -4.130180   -3.850881    1.626965
 C   -4.730445   -3.995578    0.220482
 C   -4.784120   -2.558656   -0.313797
 N   -1.474118   -3.583181    0.021718
 C   -0.163268   -3.622208   -0.593770
 C   -0.164258   -2.528782   -1.677203
 O   -1.202166   -2.254340   -2.270916
 C    0.095904   -4.996878   -1.211365
 O    1.369205   -4.937558   -1.807724
 N    1.022772   -1.928063   -1.872328
 C    1.240276   -0.879486   -2.839240
 C    2.010753    0.243036   -2.175563
 O    1.774882    0.628032   -1.040230
 O    2.977924    0.753546   -2.906125
 H    0.642079   -0.040479    0.129773
 H    0.176501   -1.366024    1.078466
 H   -0.258121    0.147666    1.526970
 H    1.895224    0.774459    2.052310
 H    2.297491   -0.730172    3.923827
 H    1.676413   -2.124618    3.012316
 H   -0.321286   -1.502151    3.444623
 H    4.048140    1.256203    2.314105
 H    6.461160    1.883419    1.228892
 H    6.285425    0.520063    2.346341
 H    7.265976   -0.614182    0.453193
 H    6.423953    0.434088   -0.698278
 H    5.332348   -2.007571    0.705824
 H    4.807367   -1.266551   -0.809430
 H    2.646376    2.770732    1.609157
 H    2.450647    3.326394   -1.254587
 H    2.253568    4.655613   -0.102802
 H    0.147304    3.787407   -1.789995
 H   -1.790479    3.126031    0.323298
 H   -1.935700    4.822147   -2.156817
 H   -3.358682    3.851503   -1.844157
 H   -2.120160    5.735004    0.239373
 H   -3.444437    6.182404   -0.814859
 H   -5.011706    5.174160    2.115761
 H   -3.705428    1.988166   -0.476481
 H   -2.980549   -0.448016   -2.024080
 H   -4.587522   -0.077612   -1.359878
 H   -3.137860   -2.051657    2.421894
 H   -4.911180   -3.595918    2.349053
 H   -3.640090   -4.762288    1.975931
 H   -5.716814   -4.462946    0.234316
 H   -4.085545   -4.614752   -0.411498
 H   -4.645563   -2.512166   -1.397542
 H   -5.733851   -2.072237   -0.061886
 H   -2.203185   -3.429622   -0.666215
 H    0.598022   -3.430676    0.166660
 H    0.041428   -5.747854   -0.411425
 H   -0.693380   -5.214784   -1.947248
 H    1.569935   -5.794162   -2.200721
 H    1.813854   -2.269451   -1.336082
 H    1.779001   -1.238108   -3.720308
 H    0.262428   -0.489764   -3.140046
 H    3.498122    1.363654   -2.323792
