42 
4ytc_ligand_ani.xyz
 C    1.728124    3.294263   -0.681287
 C    2.142142    1.965246   -0.672402
 C    3.299383    1.599272    0.022297
 N    1.737797   -3.282516   -0.285731
 C    1.658022   -0.943650    0.212100
 C    3.025462   -0.885775   -0.019011
 N    3.743315   -1.988554   -0.301964
 C    3.624159    3.912612    0.652993
 C    4.047458    2.588944    0.665165
 C    1.053709   -2.178449    0.020404
 C    3.047385   -3.108849   -0.419442
 N   -0.753655   -4.596140    0.025670
 C   -1.189053   -3.322939    0.088591
 N   -2.436666   -2.912748    0.160267
 C   -2.303741   -1.551312    0.249846
 N   -3.452667   -0.812364    0.346125
 C   -3.651840    0.560981    0.133328
 C   -2.602018    1.474700   -0.000605
 C   -2.895072    2.820180   -0.208305
 C   -4.205633    3.276931   -0.280949
 C   -5.247648    2.364639   -0.139635
 C   -4.973729    1.018898    0.067253
 N   -1.070933   -1.085818    0.254286
 N   -0.328414   -2.251678    0.139115
 N    3.758377    0.272367    0.070037
 C    2.458462    4.274148   -0.017381
 H    0.813995    3.557042   -1.210350
 H    1.577850    1.213120   -1.215049
 H    1.086911   -0.102754    0.576433
 H    4.213176    4.665943    1.169679
 H    4.957469    2.307302    1.189941
 H    3.628527   -3.997233   -0.657585
 H   -1.438876   -5.300419   -0.197049
 H    0.216276   -4.735769   -0.228102
 H   -4.279636   -1.390324    0.352927
 H   -1.574892    1.140460    0.055458
 H   -2.071587    3.524600   -0.315200
 H   -4.413846    4.330217   -0.444849
 H   -6.280602    2.699613   -0.190997
 H   -5.792594    0.311521    0.179662
 H    4.755583    0.110966    0.069429
 H    2.128742    5.308843   -0.026743
