42 
4ytc_ligand_dft.xyz
 C    1.934737    3.342971   -0.849224
 C    2.325831    2.009177   -0.890760
 C    3.356008    1.559262   -0.060423
 N    1.672772   -3.299604   -0.088364
 C    1.622626   -0.899323    0.031532
 C    3.015750   -0.912340   -0.072483
 N    3.713290   -2.066259   -0.150484
 C    3.630954    3.801982    0.792494
 C    4.010098    2.464599    0.777729
 C    1.003788   -2.139816    0.007393
 C    2.998469   -3.177770   -0.148497
 N   -0.787153   -4.579100    0.149638
 C   -1.218102   -3.303170    0.095018
 N   -2.474798   -2.910406    0.095115
 C   -2.362994   -1.544856    0.081679
 N   -3.511997   -0.804169    0.076472
 C   -3.680999    0.581720    0.046470
 C   -2.613240    1.486948    0.041268
 C   -2.872585    2.853950    0.012264
 C   -4.173634    3.343805   -0.012553
 C   -5.233617    2.439827   -0.007176
 C   -4.993532    1.073895    0.021973
 N   -1.143288   -1.056983    0.072362
 N   -0.379416   -2.215845    0.078396
 N    3.784684    0.215102   -0.079939
 C    2.584175    4.245048   -0.011190
 H    1.127176    3.679273   -1.492544
 H    1.842404    1.320569   -1.575648
 H    1.040237    0.002522    0.139669
 H    4.147906    4.496644    1.447528
 H    4.808516    2.112116    1.424906
 H    3.558084   -4.108506   -0.208488
 H   -1.471971   -5.292939   -0.037318
 H    0.195327   -4.740285   -0.036274
 H   -4.345863   -1.371144    0.085785
 H   -1.596450    1.119406    0.061742
 H   -2.032567    3.543248    0.011863
 H   -4.361698    4.412536   -0.034391
 H   -6.258723    2.798376   -0.025685
 H   -5.828771    0.377104    0.025960
 H    4.775021    0.029744   -0.004231
 H    2.280314    5.286748    0.011685
