19 
4yuy_ligand_xtb.xyz
 N    1.876865    1.969126    0.041752
 C    1.391095    0.694824   -0.004285
 N    2.294257   -0.261429    0.000711
 C    1.891181   -1.538409    0.011102
 C    0.581351   -1.922961   -0.000927
 C   -0.420247   -0.925533   -0.006719
 C   -1.795460   -1.232747   -0.013766
 C   -2.732831   -0.237492   -0.006286
 C   -2.336135    1.106084    0.012403
 C   -1.006907    1.436350    0.015637
 C   -0.019419    0.434938    0.001192
 H    2.869671    2.047494   -0.105046
 H    1.306768    2.726398   -0.289942
 H    2.695664   -2.262355    0.019328
 H    0.301546   -2.964877   -0.003594
 H   -2.092713   -2.271624   -0.022674
 H   -3.785774   -0.479450   -0.011666
 H   -3.087631    1.881995    0.025914
 H   -0.721156    2.478203    0.040325
