37 
4yuz_ligand_xtb.xyz
 C   -0.551025    2.298135   -1.099755
 C    4.706224    0.175508   -0.413582
 C    3.356128   -0.080889    1.537708
 C    3.701560   -0.374353   -1.184889
 C    2.350151   -0.640654    0.770476
 C   -1.822579    2.359920   -0.606803
 C    0.127918    1.080231   -1.202779
 C   -1.786803   -0.063633   -0.271880
 C    4.547252    0.332932    0.959239
 C    2.512168   -0.788867   -0.598511
 C   -2.468669    1.181881   -0.185267
 C   -0.473098   -0.092353   -0.801376
 C   -2.532512   -1.192618    0.208624
 C   -4.308353    0.162897    0.671553
 C    5.647783    0.931275    1.781172
 C    1.428546   -1.410268   -1.446022
 N   -3.724594    1.277435    0.292049
 N   -3.764431   -1.066757    0.662154
 N   -2.007637   -2.432235    0.260944
 N   -5.600457    0.232923    1.082759
 O    0.132357   -1.321593   -0.894291
 H   -0.046648    3.197697   -1.421768
 H    5.627071    0.493408   -0.881479
 H    3.209930    0.033686    2.602146
 H    3.838383   -0.483369   -2.252014
 H    1.428451   -0.956676    1.237000
 H   -2.361749    3.289417   -0.525919
 H    1.133890    1.082078   -1.589572
 H    6.522168    0.280912    1.770542
 H    5.946744    1.895676    1.373437
 H    5.333112    1.070267    2.812177
 H    1.609014   -2.489541   -1.530458
 H    1.444277   -0.985364   -2.459022
 H   -1.120199   -2.615459   -0.171146
 H   -2.620491   -3.180497    0.532416
 H   -5.962527    1.146704    1.289175
 H   -5.968617   -0.560610    1.576028
