35 
4yv1_ligand_ani.xyz
 C    2.833708    2.518183    0.006547
 C    3.747223   -2.220729    0.010474
 C    3.748876    1.505089    0.130496
 C    4.234376   -0.949351    0.135342
 C    1.468233    2.230224   -0.232649
 C    2.362379   -2.401395   -0.229032
 C    3.340427    0.148491    0.020542
 C    1.975694   -0.151203   -0.216103
 C    1.064822    0.934070   -0.348894
 C   -0.980794    0.251290    0.491991
 C   -4.929194   -0.054671   -0.316743
 C   -4.328518    0.045743    1.087885
 C   -3.899358    0.324103   -1.384461
 C   -3.052383   -0.787343    1.183375
 C   -2.627792   -0.508745   -1.227550
 N    1.500920   -1.421062   -0.339191
 N   -2.123039   -0.399038    0.134645
 O   -0.611024    0.458609    1.624137
 O   -0.267258    0.639745   -0.607290
 H    3.147731    3.555167    0.095072
 H    4.396628   -3.087949    0.091099
 H    4.799324    1.719758    0.313903
 H    5.289860   -0.761285    0.318212
 H    0.736820    3.026024   -0.318255
 H    1.962436   -3.408909   -0.330291
 H   -5.813703    0.587278   -0.398579
 H   -5.274257   -1.084576   -0.492005
 H   -5.049418   -0.282599    1.846307
 H   -4.078375    1.090665    1.311853
 H   -3.636886    1.385275   -1.288163
 H   -4.312933    0.186203   -2.390690
 H   -3.287439   -1.855355    1.072202
 H   -2.544927   -0.648552    2.138995
 H   -1.846665   -0.201892   -1.922664
 H   -2.853289   -1.567928   -1.417268
