21 
4yv2_ligand_dft.xyz
 C    4.156903   -0.651954    0.000252
 C    3.941264    0.723391    0.000196
 C    3.061168   -1.508693    0.000058
 C    2.648458    1.228515   -0.000007
 C    1.758443   -1.019177   -0.000177
 C    1.547806    0.363500   -0.000182
 C   -2.103229    1.277738    0.000092
 C   -3.374550    0.850671    0.000213
 C   -0.962624    0.341903   -0.000152
 N    0.269257    0.951626   -0.000349
 O   -1.127307   -0.871926   -0.000182
 S   -3.902122   -0.819113    0.000075
 H    5.166897   -1.049417    0.000434
 H    4.782095    1.410604    0.000321
 H    3.214313   -2.583918    0.000078
 H    2.490215    2.305104   -0.000045
 H    0.910586   -1.689092   -0.000375
 H   -1.921297    2.349296    0.000215
 H   -4.171350    1.587553    0.000382
 H    0.266059    1.960706   -0.000356
 H   -5.211749   -0.506379    0.000285
