76 
4yv8_ligand_ani.xyz
 C    1.902340   -0.422844    4.020011
 C    0.714507   -1.385467    4.008178
 C    0.710021   -2.397187    2.860378
 C    1.996530   -3.216573    2.736179
 N    1.869065   -4.304527    1.771145
 C    2.156285   -4.087496    0.447311
 N    2.196519   -5.230506   -0.330167
 N    2.359701   -2.882004    0.009131
 C    1.471293    1.576703    2.673161
 O    0.692578    2.022140    3.522320
 N    2.050215    0.345105    2.793730
 N    1.861623    2.299996    1.571347
 C    1.277251    3.604545    1.332969
 C   -0.112903    3.451315    0.685564
 O   -0.274924    3.681082   -0.519735
 C    2.204564    4.412152    0.428952
 O    2.494635    3.707218   -0.756002
 N   -1.088639    3.040879    1.513379
 C   -2.423887    2.595826    1.086572
 C   -2.309319    1.268701    0.320501
 O   -2.678032    0.221651    0.828785
 C   -3.249027    3.682614    0.370029
 C   -3.404737    4.919856    1.254998
 C   -4.617290    3.116911   -0.020411
 N   -1.775962    1.326847   -0.937479
 C   -1.262686    0.102790   -1.512874
 C   -0.015766   -0.349203   -0.754715
 O    0.072578   -1.670898   -0.658458
 C   -0.940611    0.323395   -2.999036
 C   -0.252864   -0.842237   -3.720301
 C   -1.060013   -2.143302   -3.719141
 N   -0.422734   -3.243468   -4.430710
 C    0.734824   -3.823911   -3.922561
 N    1.248148   -3.649461   -2.760294
 N    1.359850   -4.667002   -4.837115
 O    0.828491    0.415098   -0.333732
 H    1.764466    0.292707    4.834184
 H    2.839266   -0.959597    4.208150
 H   -0.205633   -0.791024    3.958987
 H    0.700454   -1.914473    4.971345
 H   -0.131070   -3.086070    2.997883
 H    0.527942   -1.876027    1.914100
 H    2.821887   -2.563629    2.429143
 H    2.252099   -3.654842    3.707639
 H    2.120597   -5.221577    2.111292
 H    2.035480   -5.033263   -1.319787
 H    1.600813   -5.976711    0.004915
 H    2.648392   -2.917910   -0.970320
 H    2.656119    0.013013    2.057117
 H    2.116275    1.783624    0.736183
 H    1.158681    4.093559    2.306670
 H    3.152429    4.570704    0.951380
 H    1.756192    5.393356    0.219935
 H    1.637738    3.622361   -1.203917
 H   -0.777868    2.738466    2.435631
 H   -2.946711    2.320742    2.007027
 H   -2.714398    3.973997   -0.538510
 H   -2.439772    5.375109    1.494680
 H   -3.908158    4.665919    2.196791
 H   -4.015150    5.672084    0.744171
 H   -4.522931    2.277002   -0.716377
 H   -5.156858    2.762118    0.867224
 H   -5.229590    3.886820   -0.501458
 H   -1.288961    2.190036   -1.165766
 H   -2.023140   -0.673487   -1.395537
 H    0.950339   -1.928375   -0.235373
 H   -1.883702    0.571487   -3.501187
 H   -0.296030    1.209842   -3.079646
 H    0.729271   -1.025845   -3.269854
 H   -0.062460   -0.537665   -4.756723
 H   -1.253306   -2.466895   -2.692955
 H   -2.038000   -1.979034   -4.187055
 H   -0.377295   -3.110655   -5.434154
 H    0.684959   -3.030260   -2.184472
 H    0.720106   -5.254856   -5.356228
 H    2.085900   -5.209892   -4.386939
