76 
4yv8_ligand_xtb.xyz
 C    0.815156    4.063724   -0.230605
 C    0.250483    3.645889   -1.593392
 C   -1.099737    2.932391   -1.532402
 C   -2.160453    3.706149   -0.741714
 N   -3.493737    3.174729   -0.911706
 C   -4.001167    2.200402   -0.124742
 N   -5.308240    1.856502   -0.309463
 N   -3.264950    1.688850    0.816399
 C    2.237108    2.400395    0.843401
 O    3.225750    2.728426    0.191700
 N    1.022904    2.978899    0.696878
 N    2.308269    1.472313    1.844149
 C    3.497082    0.655935    1.996971
 C    3.410993   -0.459729    0.946698
 O    3.129174   -1.619780    1.245893
 C    3.558042    0.092531    3.424108
 O    2.455104   -0.711373    3.731539
 N    3.592047   -0.012432   -0.298740
 C    3.252161   -0.732896   -1.520776
 C    1.719543   -0.869449   -1.596942
 O    1.058844   -0.240827   -2.399762
 C    3.992453   -2.074499   -1.650904
 C    5.500728   -1.835133   -1.643630
 C    3.565376   -2.773189   -2.938677
 N    1.190900   -1.733898   -0.707981
 C   -0.240624   -1.775699   -0.501951
 C   -0.723112   -0.463676    0.139338
 O   -1.908705   -0.129605   -0.264185
 C   -0.597282   -2.963853    0.398422
 C   -2.062582   -3.006011    0.834182
 C   -3.042508   -3.172452   -0.334264
 N   -4.422305   -3.227711    0.095609
 C   -5.198473   -2.112536    0.316324
 N   -4.975726   -0.917901   -0.063609
 N   -6.351946   -2.372705    1.028158
 O   -0.055152    0.160793    0.933605
 H    1.796097    4.519463   -0.388669
 H    0.158033    4.800030    0.241136
 H    0.963498    2.977778   -2.078566
 H    0.162807    4.548763   -2.202324
 H   -1.454484    2.783860   -2.555056
 H   -0.964084    1.947397   -1.094272
 H   -1.945512    3.657472    0.326710
 H   -2.172344    4.752298   -1.062595
 H   -3.987424    3.414843   -1.755483
 H   -5.510990    0.880147   -0.071048
 H   -5.767660    2.193545   -1.140710
 H   -3.807002    1.082013    1.422646
 H    0.219800    2.497199    1.070115
 H    1.451112    1.033289    2.153379
 H    4.368356    1.290674    1.803244
 H    3.552338    0.918030    4.139757
 H    4.497379   -0.470158    3.535681
 H    2.426573   -1.399063    3.045029
 H    3.719991    0.996150   -0.390154
 H    3.547527   -0.086452   -2.353357
 H    3.737502   -2.707625   -0.797982
 H    5.806248   -1.345458   -0.722346
 H    5.791451   -1.206635   -2.482997
 H    6.030633   -2.781476   -1.721301
 H    2.493430   -2.953857   -2.944877
 H    3.812378   -2.159504   -3.802380
 H    4.077985   -3.727238   -3.035514
 H    1.780150   -2.043852    0.060777
 H   -0.721232   -1.857202   -1.482477
 H   -2.349958    0.739434    0.245492
 H   -0.342123   -3.885970   -0.128837
 H    0.025763   -2.901207    1.294157
 H   -2.314560   -2.093487    1.377804
 H   -2.191789   -3.845279    1.523354
 H   -2.937394   -2.340474   -1.031674
 H   -2.823760   -4.099480   -0.873688
 H   -4.645955   -4.023113    0.676053
 H   -4.067624   -0.784186   -0.493787
 H   -6.748954   -3.293344    0.929255
 H   -7.025940   -1.624694    0.990648
