31 
4yvc_ligand_dft.xyz
 C   -4.967685    0.524652   -0.015284
 C   -6.144427   -0.212941   -0.014107
 C   -5.018064   -2.182942    0.013696
 C    2.180983    0.793468    0.001455
 C    3.643523   -1.341505   -0.003570
 N    1.026149    0.057844   -0.000240
 C    6.024517   -1.149377   -0.002536
 C    5.903092    0.238799    0.000971
 C    4.887802   -1.948708   -0.004834
 C   -0.249405    0.594822    0.000859
 C   -2.449950    0.560371    0.000223
 C   -3.743326   -0.148393   -0.000489
 C   -3.783984   -1.543833    0.014030
 C    3.480094    0.044066   -0.000094
 C    4.644481    0.821032    0.002145
 O    2.153935    2.014404    0.004115
 N   -1.286947   -0.183049   -0.000565
 C   -2.262272    1.910940    0.002657
 S   -0.580150    2.303952    0.003666
 N   -6.191928   -1.547378    0.000122
 F    2.564348   -2.157590   -0.005885
 H   -5.018723    1.608630   -0.028677
 H   -7.104848    0.298310   -0.025589
 H   -5.065812   -3.269929    0.025047
 H    1.063220   -0.952237   -0.002568
 H    7.005025   -1.614691   -0.003500
 H    6.788702    0.865070    0.002766
 H    4.945196   -3.031254   -0.007592
 H   -2.861547   -2.112538    0.025327
 H    4.522806    1.898658    0.004834
 H   -3.005427    2.695197    0.005391
