38 
4yve_ligand_xtb.xyz
 C    4.969051   -0.237675   -2.690602
 C    4.289872    1.080989   -0.830644
 C    4.187190    2.356890   -0.269354
 C    3.634991    2.521119    0.981708
 C    3.172062    1.425823    1.696412
 C    3.276626    0.156182    1.152138
 C    3.831254   -0.015278   -0.111394
 C    2.748563   -1.054510    1.879130
 C    1.502991   -1.532980    1.162953
 O    4.843422    1.019534   -2.068566
 C   -0.719886   -0.868658    0.568348
 C   -2.772005   -0.528481   -0.124471
 C   -2.556939   -1.761036   -0.676379
 C   -3.983418    0.274438   -0.211161
 O    1.402375   -2.588634    0.579583
 N    0.473987   -0.633746    1.198890
 N   -1.704532   -0.043951    0.581659
 S   -0.980851   -2.352985   -0.315392
 C   -5.097426   -0.123500   -0.951658
 C   -6.208385    0.701340   -0.973595
 N   -6.281374    1.854550   -0.330122
 C   -5.225465    2.234420    0.371056
 C   -4.061560    1.493410    0.465046
 H    5.618113   -0.906350   -2.116439
 H    3.994171   -0.713277   -2.836863
 H    5.422864   -0.041403   -3.660564
 H    4.549063    3.197710   -0.838689
 H    3.560537    3.509875    1.408376
 H    2.747590    1.564131    2.680482
 H    3.890799   -1.013868   -0.515185
 H    2.504653   -0.807559    2.913434
 H    3.478329   -1.864807    1.866730
 H   -3.227304   -2.352695   -1.264269
 H    0.582440    0.263337    1.651564
 H   -5.100305   -1.051923   -1.499966
 H   -7.091087    0.426414   -1.536823
 H   -5.324166    3.183419    0.882537
 H   -3.220121    1.834631    1.045625
