61 
4yw2_ligand_ani.xyz
 C    0.419722   -0.832113    3.265716
 C    0.536089   -1.047190    1.739211
 C    0.148987   -2.480549    1.393584
 C   -1.353225   -2.742677    1.431384
 C   -2.102516   -1.642703    0.645349
 C   -1.684799   -0.261709    1.157009
 C   -2.341428    0.969594    0.504269
 C   -2.312860    1.113156   -1.034102
 C   -0.937917    1.074535   -1.684000
 C   -4.270716   -2.578092   -0.043209
 C   -5.768612   -2.399721    0.040299
 N   -3.541471   -1.786956    0.784076
 O   -0.550150   -0.416589    3.849830
 O    1.528452   -1.225491    3.908395
 O    1.851928   -0.862856    1.315629
 O   -1.577218   -4.019491    0.888957
 O   -0.261478   -0.116118    1.036213
 O   -3.707737    1.034059    0.909141
 O   -3.175545    0.152864   -1.624764
 O   -0.432254   -0.257961   -1.746709
 O   -3.734492   -3.391707   -0.796022
 C    2.689136    0.948897   -2.215264
 C    3.390804    2.294699   -2.259446
 C    4.505893    2.342691   -1.228642
 C    3.940334    2.023963    0.155038
 C    3.137065    0.722003    0.106590
 C    2.395277    0.448672    1.406219
 O    1.663361    0.950261   -3.155312
 O    3.966719    2.541782   -3.524031
 O    5.067931    3.639652   -1.163229
 O    3.084551    3.064249    0.567173
 O    2.152063    0.754986   -0.926591
 H    0.664906   -3.173795    2.064787
 H    0.509056   -2.687443    0.379237
 H   -1.706689   -2.717151    2.476076
 H   -1.825278   -1.770538   -0.406480
 H   -1.949098   -0.203861    2.217339
 H   -1.837432    1.844357    0.934912
 H   -2.743388    2.100020   -1.242004
 H   -1.009576    1.424081   -2.718159
 H   -0.229035    1.725342   -1.164465
 H   -6.245257   -3.154767   -0.585056
 H   -6.122367   -2.501737    1.070875
 H   -6.061981   -1.406343   -0.319053
 H   -4.005035   -1.030658    1.272399
 H    1.350617   -1.082263    4.853109
 H   -2.289817   -3.971531    0.222894
 H   -4.213751    0.726016    0.138677
 H   -2.589401   -0.559425   -1.928951
 H   -0.055743   -0.414656   -0.862872
 H    3.411505    0.134694   -2.427685
 H    2.647590    3.061250   -1.996343
 H    5.276620    1.600286   -1.494946
 H    4.777121    1.899674    0.864852
 H    3.824820   -0.118156   -0.088506
 H    3.081358    0.493586    2.263195
 H    1.611835    1.204303    1.534553
 H    1.017291    0.284874   -2.858540
 H    3.252622    2.458473   -4.170463
 H    5.183814    3.935188   -2.078680
 H    3.549199    3.886045    0.346238
