39 
4yxd_ligand_ani.xyz
 N    0.148881    0.440714   -0.418907
 C    3.672688   -1.205685    0.666105
 F    2.502754   -1.604555    1.193532
 O    1.491122   -1.135993   -1.394725
 C    3.633889    0.252702    0.262981
 F    3.943712   -2.009762   -0.372577
 O   -4.486524    0.859904    0.334253
 C    2.529656    0.786134   -0.404317
 F    4.624751   -1.432344    1.592844
 C    2.530998    2.140039   -0.745255
 C    3.622168    2.947022   -0.445427
 C    4.717241    2.409415    0.222062
 C    4.718377    1.065613    0.578418
 C    1.358932   -0.085343   -0.802598
 C   -1.122938   -0.157774   -0.530167
 C   -2.216290    0.566177   -0.062538
 C   -3.507740    0.043805   -0.140362
 C   -3.706177   -1.222471   -0.693886
 C   -2.600800   -1.930768   -1.158243
 C   -1.310728   -1.428181   -1.087902
 C   -5.849666    0.428117    0.320093
 C   -6.118610   -0.559173    1.447577
 C   -6.682747    1.689928    0.467836
 H    0.176176    1.307950    0.096532
 H    1.678706    2.556314   -1.275959
 H    3.610017    3.998061   -0.721460
 H    5.569019    3.036152    0.468566
 H    5.560286    0.639360    1.114349
 H   -2.094776    1.557356    0.366361
 H   -4.695751   -1.659959   -0.766510
 H   -2.754616   -2.915064   -1.593659
 H   -0.464474   -1.993303   -1.452996
 H   -6.065435   -0.034919   -0.652407
 H   -5.520492   -1.470422    1.355960
 H   -5.881784   -0.093361    2.410164
 H   -7.176177   -0.844093    1.447875
 H   -6.460145    2.169363    1.426503
 H   -6.458439    2.399063   -0.334006
 H   -7.751528    1.453818    0.436358
