20 
4yxi_ligand_dft.xyz
 C    2.668547   -0.006303   -0.034368
 C    1.942893   -1.203005    0.009417
 C   -0.114995    0.021187    0.071684
 C    1.968595    1.200475   -0.019858
 O   -2.307494    1.399278    0.428979
 S   -1.890845    0.035335    0.137434
 O   -2.332537   -1.091979    0.943633
 N   -2.331902   -0.341856   -1.438229
 C    0.557493   -1.198766    0.064893
 C    0.578190    1.223797    0.035045
 C    4.175009   -0.032346   -0.070041
 H    2.474618   -2.150895    0.004449
 H    2.516276    2.138502   -0.047240
 H   -2.622609    0.491046   -1.941113
 H   -3.067233   -1.042230   -1.419400
 H   -0.000870   -2.127765    0.111952
 H    0.033602    2.161478    0.060983
 H    4.580944   -0.310078    0.909572
 H    4.541121   -0.765990   -0.795452
 H    4.586833    0.944936   -0.336609
