23 
4yxo_ligand_ani.xyz
 O    2.816536    1.076731   -0.827886
 S    2.296999   -0.102002   -0.152614
 O    2.599781   -1.452005   -0.600971
 N    2.778728    0.000085    1.445652
 C    0.533363    0.055995   -0.069407
 C   -0.252590   -1.086390    0.021338
 C   -1.634204   -0.957711    0.103553
 C   -0.044292    1.321580   -0.095043
 C   -1.425758    1.431915   -0.010228
 C   -2.242693    0.300767    0.094814
 C   -3.743942    0.485933    0.212705
 C   -4.585682   -0.724152   -0.178062
 H    3.372792    0.811576    1.580059
 H    3.234051   -0.861318    1.728572
 H    0.216219   -2.066127    0.016983
 H   -2.242155   -1.856242    0.163975
 H    0.583083    2.203194   -0.192278
 H   -1.884028    2.418704   -0.024917
 H   -4.035043    1.343923   -0.406637
 H   -3.985800    0.775016    1.245767
 H   -4.346646   -1.057959   -1.193577
 H   -4.419466   -1.566060    0.502514
 H   -5.651832   -0.478688   -0.145353
