23 
4yxo_ligand_xtb.xyz
 O    2.850798    1.003200   -0.867341
 S    2.289603   -0.108756   -0.156279
 O    2.644039   -1.444170   -0.542838
 N    2.680326    0.081294    1.476315
 C    0.520839    0.048357   -0.087928
 C   -0.258566   -1.083096    0.018902
 C   -1.635106   -0.955661    0.105550
 C   -0.045042    1.307050   -0.111730
 C   -1.419201    1.427300   -0.026136
 C   -2.232651    0.299933    0.085265
 C   -3.721974    0.491214    0.197114
 C   -4.562864   -0.724984   -0.174708
 H    3.284718    0.873855    1.620313
 H    3.082625   -0.758880    1.859109
 H    0.222677   -2.048017    0.020221
 H   -2.239900   -1.844264    0.186920
 H    0.597420    2.166903   -0.212405
 H   -1.873755    2.407249   -0.047397
 H   -4.008274    1.331550   -0.440088
 H   -3.950589    0.781655    1.227812
 H   -4.291752   -1.089468   -1.162653
 H   -4.434772   -1.529925    0.544364
 H   -5.615639   -0.452533   -0.186474
