26 
4yxu_ligand_ani.xyz
 C   -4.063768   -0.266585   -0.572913
 C    0.257851   -1.131847    0.206209
 C   -3.254349    0.274444    0.613369
 C   -1.004000    1.352516    0.183221
 C   -1.760169    0.199699    0.406588
 O    3.042000   -1.398491   -0.752312
 S    2.742712   -0.069965   -0.241714
 O    3.168174    1.140666   -0.926382
 N    3.360159    0.001792    1.310923
 C    0.989294    0.034271   -0.001313
 C   -1.113087   -1.040162    0.407568
 C    0.369153    1.278599   -0.024084
 C   -5.570765   -0.172553   -0.347043
 H   -3.777425   -1.310054   -0.756393
 H   -3.786687    0.291527   -1.475446
 H    0.759150   -2.095100    0.194253
 H   -3.523013   -0.297363    1.512759
 H   -3.547056    1.314840    0.805518
 H   -1.496426    2.322378    0.170265
 H    3.876343   -0.846591    1.518947
 H    3.927387    0.835228    1.424704
 H   -1.694325   -1.946830    0.565463
 H    0.958467    2.172024   -0.209524
 H   -5.874542   -0.743591    0.538481
 H   -5.881824    0.867722   -0.193422
 H   -6.126912   -0.565005   -1.204713
