24 
4yyt_ligand_xtb.xyz
 O    3.047854    1.121571   -0.905460
 S    2.594402    0.088702   -0.019321
 O    3.267189   -1.178320   -0.012320
 N    2.643029    0.699611    1.555599
 C    0.845157   -0.156601   -0.219192
 C    0.071087    0.866558   -0.727500
 C    0.287301   -1.355803    0.172532
 C   -1.080519   -1.532616    0.054404
 C   -1.881393   -0.516847   -0.457465
 C   -1.294861    0.682692   -0.848954
 C   -3.370460   -0.688154   -0.543617
 C   -4.059765   -0.027863    0.656481
 O   -3.928774    1.370538    0.537348
 H    2.985382    1.646546    1.572975
 H    3.182536    0.105221    2.163712
 H    0.552295    1.782304   -1.031283
 H    0.932539   -2.132110    0.551233
 H   -1.529935   -2.467317    0.357174
 H   -1.920344    1.472117   -1.235154
 H   -3.633037   -1.746236   -0.556436
 H   -3.750333   -0.213206   -1.448558
 H   -3.595942   -0.383691    1.587561
 H   -5.122596   -0.312168    0.665274
 H   -4.301624    1.793531    1.316772
