24 
4yyt_ligand_ani.xyz
 O    3.008236    1.160198   -0.941386
 S    2.623182    0.097211   -0.026528
 O    3.252996   -1.213661   -0.048488
 N    2.805274    0.702719    1.522033
 C    0.873326   -0.143581   -0.180823
 C    0.072373    0.910868   -0.611467
 C    0.326037   -1.382372    0.133934
 C   -1.048932   -1.556942    0.024790
 C   -1.876205   -0.510957   -0.393480
 C   -1.299480    0.724852   -0.706327
 C   -3.370941   -0.712806   -0.496946
 C   -4.165411   -0.041213    0.619630
 O   -4.080964    1.361084    0.439711
 H    3.221884    1.627235    1.486285
 H    3.346708    0.058461    2.088748
 H    0.527001    1.860711   -0.877981
 H    0.975251   -2.195857    0.445355
 H   -1.487115   -2.524541    0.259220
 H   -1.940209    1.544229   -1.014729
 H   -3.598413   -1.785467   -0.490733
 H   -3.738118   -0.313237   -1.450302
 H   -3.756761   -0.343852    1.595817
 H   -5.213147   -0.378053    0.573268
 H   -4.451646    1.787887    1.220704
