53 
4yzn_ligand_dft.xyz
 C    3.461658   -0.499903   -0.192980
 C    4.666959    0.192910    0.085593
 C    4.547359    1.556838    0.304735
 N    3.396344    2.219103    0.280684
 N    2.297703    0.151723   -0.223305
 C    1.191080   -2.841422    0.198325
 C    2.048377   -3.926786   -0.392774
 C    2.223640   -2.504074   -0.840478
 N    3.423009   -1.833954   -0.434406
 C    5.976875   -0.506456    0.192837
 F    6.999947    0.345865    0.330089
 F    6.018184   -1.357432    1.238582
 F    6.235128   -1.266897   -0.903163
 C    2.315734    1.459008    0.027798
 N    1.134625    2.146931    0.034110
 C   -0.174742    1.698556   -0.108502
 C   -1.185226    2.683029    0.022038
 C   -2.516956    2.334842   -0.092960
 O   -0.723291    3.943263    0.255384
 C   -1.667954    4.987979    0.348697
 C   -0.550124    0.385165   -0.367016
 C   -1.897046    0.070588   -0.463958
 F   -2.202351   -1.220786   -0.726189
 C   -2.906412    1.003856   -0.309557
 C   -4.372462    0.737262   -0.502165
 O   -5.030500    1.482811   -1.216721
 N   -4.926353   -0.338682    0.131290
 C   -6.324996   -0.660146   -0.114219
 C   -6.469173   -2.172773   -0.241896
 O   -5.955688   -2.841750    0.892437
 C   -4.586980   -2.549313    1.079932
 C   -4.370357   -1.052449    1.271618
 H    5.434661    2.148462    0.513763
 H    1.403530   -2.527584    1.214697
 H    0.147352   -2.778492   -0.093045
 H    1.601632   -4.624402   -1.093387
 H    2.824555   -4.349950    0.238089
 H    1.858139   -2.234591   -1.829708
 H    4.298947   -2.300514   -0.613814
 H    1.235666    3.134964    0.223697
 H   -3.300147    3.080689   -0.031013
 H   -2.244016    5.085570   -0.579330
 H   -2.354841    4.828041    1.188916
 H   -1.093309    5.898716    0.518505
 H    0.198892   -0.381134   -0.496747
 H   -6.641120   -0.150338   -1.024695
 H   -6.942099   -0.297145    0.720081
 H   -5.946173   -2.512475   -1.150435
 H   -7.523196   -2.451737   -0.317142
 H   -3.997775   -2.890029    0.215320
 H   -4.268658   -3.099713    1.969024
 H   -4.894812   -0.729357    2.182896
 H   -3.312378   -0.826434    1.392640
