47 
4yzu_ligand_xtb.xyz
 O  -16.957375  -37.331598  -12.575491
 C  -15.916515  -37.936065  -12.759174
 C  -15.363699  -38.876314  -11.743904
 C  -15.829034  -38.712853  -10.441129
 C  -15.264655  -39.406833   -9.393465
 C  -14.222619  -40.293720   -9.642142
 N  -13.600299  -40.958354   -8.580518
 C  -12.294278  -41.352426   -8.475346
 N  -12.073465  -41.897666   -7.321408
 N  -13.228288  -41.891759   -6.633998
 C  -14.129560  -41.328520   -7.374697
 C  -13.791519  -40.509816  -10.947403
 C  -14.354773  -39.801801  -11.990032
 N  -15.157639  -37.749287  -13.877152
 C  -15.265597  -36.488741  -14.577043
 C  -14.179823  -35.507459  -14.069647
 C  -13.941760  -35.751282  -12.619565
 N  -14.766034  -35.288112  -11.633193
 C  -14.311349  -35.826232  -10.454693
 C  -14.742966  -35.740309   -9.143238
 N  -12.997280  -36.527983  -12.169080
 C  -13.185535  -36.598992  -10.810605
 C  -12.483429  -37.291699   -9.833388
 C  -12.908946  -37.208456   -8.521044
 C  -12.149893  -37.932470   -7.448821
 C  -14.039007  -36.436808   -8.176306
 C  -14.482402  -36.363159   -6.746051
 H  -16.628245  -38.009084  -10.267061
 H  -15.609609  -39.240521   -8.385293
 H  -11.558813  -41.200939   -9.237169
 H  -15.155900  -41.196018   -7.102883
 H  -13.012592  -41.230757  -11.143755
 H  -14.008169  -39.993204  -12.994368
 H  -14.224455  -38.135832  -13.866194
 H  -16.265677  -36.102375  -14.367038
 H  -15.161764  -36.650907  -15.651824
 H  -13.240742  -35.692920  -14.591507
 H  -14.492178  -34.478880  -14.251268
 H  -15.602443  -34.743327  -11.759137
 H  -15.608092  -35.149402   -8.879723
 H  -11.618823  -37.878454  -10.102244
 H  -11.724394  -37.224086   -6.738359
 H  -12.796950  -38.605231   -6.886565
 H  -11.337526  -38.514442   -7.876601
 H  -14.702557  -37.355735   -6.354142
 H  -13.698427  -35.933544   -6.123530
 H  -15.373905  -35.748627   -6.650806
