47 
4yzu_ligand_ani.xyz
 O  -16.260489  -37.767587  -11.348389
 C  -15.514662  -38.605174  -11.862457
 C  -15.399214  -39.983133  -11.303363
 C  -16.449654  -40.439105  -10.504808
 C  -16.422003  -41.714726   -9.962713
 C  -15.321698  -42.537752  -10.197798
 N  -15.285443  -43.845447   -9.641045
 C  -14.272297  -44.440250   -8.939892
 N  -14.596150  -45.650704   -8.585176
 N  -15.863656  -45.889505   -9.061191
 C  -16.253476  -44.811509   -9.679168
 C  -14.251905  -42.083329  -10.969858
 C  -14.296007  -40.812121  -11.522638
 N  -14.781139  -38.331911  -12.971532
 C  -14.932256  -37.101200  -13.728669
 C  -13.729247  -36.168855  -13.632179
 C  -13.429384  -35.655522  -12.256417
 N  -14.358182  -35.612985  -11.245108
 C  -13.725424  -35.037666  -10.162508
 C  -14.146489  -34.746410   -8.868146
 N  -12.274401  -35.141037  -11.924321
 C  -12.432391  -34.744040  -10.607770
 C  -11.525615  -34.134872   -9.736220
 C  -11.922345  -33.832139   -8.443110
 C  -10.944200  -33.174488   -7.503882
 C  -13.243043  -34.140934   -8.006114
 C  -13.669115  -33.812327   -6.600829
 H  -17.286960  -39.773508  -10.321024
 H  -17.238675  -42.071357   -9.340265
 H  -13.340938  -43.942301   -8.707326
 H  -17.203001  -44.679442  -10.179465
 H  -13.401496  -42.735029  -11.153813
 H  -13.439814  -40.465077  -12.096965
 H  -14.294899  -39.095758  -13.415074
 H  -15.827514  -36.594282  -13.363419
 H  -15.098527  -37.349835  -14.782135
 H  -12.820518  -36.650385  -14.006165
 H  -13.905916  -35.304371  -14.285465
 H  -15.225231  -36.150336  -11.207978
 H  -15.154287  -34.984151   -8.529816
 H  -10.519304  -33.904595  -10.080484
 H  -11.311276  -32.203064   -7.154764
 H  -10.762795  -33.789270   -6.615380
 H   -9.983061  -33.009980   -7.997428
 H  -13.045405  -34.324554   -5.859472
 H  -13.593663  -32.738281   -6.396599
 H  -14.705838  -34.112697   -6.429661
