38 
4z0q_ligand_ani.xyz
 C   -3.754083   -1.409799    0.638795
 C   -5.573315    0.530552   -0.165839
 C   -4.211856    0.801510   -0.243364
 C   -1.068097   -0.911376   -0.406373
 C    0.403741   -0.684228   -0.238264
 C   -5.118131   -1.650536    0.732416
 C   -3.296921   -0.185250    0.144415
 C   -1.394744    1.470238    0.153752
 C   -2.509903    2.503970    0.237112
 C   -3.661986    2.131090   -0.687996
 O    5.535169   -0.641700   -0.951758
 S    4.869568    0.021692    0.158369
 O    5.239683   -0.222280    1.543727
 N    5.013887    1.667806   -0.102262
 C    3.129402   -0.276936    0.004733
 C    2.333000   -0.239661    1.145950
 C    0.965343   -0.441283    1.018588
 C    2.591996   -0.552016   -1.250251
 C    1.226044   -0.766186   -1.364940
 O   -1.495524   -1.910071   -0.960153
 N   -1.908210    0.093912    0.059050
 C   -6.035574   -0.688385    0.318641
 H   -3.048990   -2.174791    0.947820
 H   -6.282171    1.295848   -0.476724
 H   -5.462707   -2.608057    1.114957
 H   -0.735419    1.558497    1.022674
 H   -0.771029    1.652238   -0.728458
 H   -2.097157    3.487762   -0.010263
 H   -2.877440    2.560405    1.268567
 H   -4.446853    2.896095   -0.668683
 H   -3.306787    2.063490   -1.726393
 H    5.582376    1.841481   -0.924561
 H    5.386381    2.121053    0.725524
 H    2.783925   -0.054861    2.114602
 H    0.321162   -0.418949    1.893096
 H    3.243222   -0.612594   -2.117440
 H    0.777631   -1.001605   -2.325929
 H   -7.103100   -0.882914    0.381029
