40 
4z1k_ligand_xtb.xyz
 C    4.708457   -0.978532   -0.102893
 C    3.409761   -0.622994    0.235881
 C    0.087744   -1.657926   -0.287350
 C   -1.261106   -1.003040   -0.170800
 C    2.390589   -1.713036    0.442795
 C    0.926469   -0.027588    1.382029
 C    1.675720    1.132777    0.726506
 C    3.081536    0.720412    0.383609
 O    0.273482   -2.564962   -1.076531
 C   -2.133987   -1.365577    0.851154
 C   -3.401678   -0.812237    0.904127
 C   -1.665298   -0.097321   -1.145748
 C   -2.932396    0.458379   -1.089734
 C   -3.781026    0.094559   -0.064725
 S   -5.424817    0.778208   -0.012767
 N   -6.271562   -0.386670   -0.883745
 O   -5.456402    2.004227   -0.755754
 O   -5.909083    0.757958    1.336696
 N    1.043409   -1.197566    0.546466
 C    4.065940    1.684745    0.213676
 C    5.364574    1.333225   -0.106539
 O    6.309164    2.317682   -0.250150
 C    5.684241   -0.017483   -0.293209
 O    6.953624   -0.409024   -0.639751
 H    4.976806   -2.014691   -0.234925
 H    2.636795   -2.269362    1.358320
 H    2.405946   -2.416204   -0.394646
 H   -0.123299    0.225985    1.531622
 H    1.378270   -0.255824    2.353649
 H    1.688489    1.996630    1.392508
 H    1.150988    1.425314   -0.188266
 H   -1.817563   -2.080036    1.596540
 H   -4.098941   -1.059516    1.688341
 H   -0.987624    0.163240   -1.944882
 H   -3.273321    1.175528   -1.818981
 H   -6.640960   -0.019677   -1.745387
 H   -6.989039   -0.824366   -0.329639
 H    3.835663    2.731002    0.338633
 H    7.186926    1.956876   -0.070743
 H    7.381489    0.286206   -1.155672
