38 
4z1n_ligand_xtb.xyz
 C    5.410609   -0.665555   -0.195776
 C    4.097503   -0.332596    0.115688
 C    0.796701   -1.513975   -0.286770
 C   -0.579867   -0.921117   -0.166103
 C    3.113379   -1.438060    0.395388
 C    1.606469    0.252679    1.254801
 C    2.310593    1.391159    0.516261
 C    3.727302    1.007218    0.184235
 O    1.005331   -2.455734   -1.028480
 C   -1.387246   -1.241381    0.921967
 C   -2.682538   -0.757731    0.985783
 C   -1.076556   -0.127680   -1.194466
 C   -2.371077    0.359636   -1.127230
 C   -3.154281    0.039017   -0.037742
 S   -4.833112    0.629777    0.031866
 N   -5.639654   -0.642029   -0.719379
 O   -4.965650    1.793950   -0.794628
 O   -5.265100    0.681065    1.398103
 N    1.750570   -0.963354    0.492343
 C    4.678454    1.988715   -0.068586
 C    5.980792    1.651127   -0.382516
 C    6.349106    0.316870   -0.444799
 H    5.690866   -1.707875   -0.244026
 H    3.389667   -1.936454    1.335938
 H    3.140745   -2.185516   -0.402905
 H    0.550997    0.482860    1.402348
 H    2.076332    0.101233    2.233164
 H    2.298481    2.297510    1.124110
 H    1.767916    1.605018   -0.410157
 H   -0.998901   -1.869627    1.709863
 H   -3.331665   -0.975260    1.818571
 H   -0.448742    0.099471   -2.042952
 H   -2.783319    0.990541   -1.898206
 H   -6.070159   -0.358035   -1.583901
 H   -6.301765   -1.084472   -0.103517
 H    4.387303    3.028077   -0.015556
 H    6.707959    2.425139   -0.576202
 H    7.364955    0.044416   -0.687946
