38 
4z6h_ligand_ani.xyz
 O    2.834659   -1.778192    1.278970
 C    3.197341   -0.832775    0.599410
 C    4.677267   -0.550039    0.405886
 C    5.013118    0.877983    0.002231
 C    4.099742    1.298513   -1.139094
 C    2.662625    1.278208   -0.647782
 N    2.298345   -0.021473   -0.076024
 C    0.918313   -0.364551   -0.064923
 C   -0.035557    0.628386    0.088384
 C   -1.406512    0.344951    0.049402
 N   -2.348120    1.354905    0.202042
 C   -1.904198    2.723843    0.413598
 C   -3.732714    1.128421    0.163376
 O   -4.530421    2.045688    0.302302
 C   -4.126664   -0.267733   -0.053881
 C   -3.244014   -1.271827   -0.209372
 C   -3.724319   -2.682925   -0.430342
 C   -1.819938   -0.990316   -0.163447
 C   -0.832658   -1.980560   -0.320988
 C    0.508719   -1.693097   -0.267724
 H    5.012501   -1.249000   -0.372265
 H    5.177129   -0.851539    1.329872
 H    6.068011    0.948253   -0.281950
 H    4.861893    1.552118    0.855463
 H    4.210242    0.614652   -1.988892
 H    4.338129    2.306178   -1.496351
 H    1.979151    1.479202   -1.476342
 H    2.523917    2.073819    0.101042
 H    0.298390    1.646961    0.252274
 H   -1.343245    2.813223    1.351275
 H   -1.271998    3.058806   -0.416801
 H   -2.793831    3.348691    0.467542
 H   -5.197186   -0.447468   -0.083902
 H   -3.373309   -3.350302    0.364179
 H   -4.817576   -2.721105   -0.442930
 H   -3.362527   -3.080034   -1.384876
 H   -1.139072   -3.011904   -0.477729
 H    1.240586   -2.483427   -0.380312
