50 
4z7o_ligand_xtb.xyz
 N    2.260618   -1.911749   -1.043138
 C    3.270815   -1.256427   -0.182339
 C    3.117744    0.241034   -0.531070
 O    2.690868    0.526814   -1.637223
 C    4.672747   -1.740620   -0.526760
 N    3.474959    1.120112    0.403019
 C    3.088220    2.519614    0.300559
 C    1.626515    2.578553    0.781495
 O    1.331042    2.800463    1.931255
 N    0.735182    2.262492   -0.185074
 C   -0.605365    1.837236    0.153553
 C   -0.644467    0.300933    0.034717
 O    0.235015   -0.293201   -0.571750
 C   -1.630724    2.522236   -0.761353
 C   -3.029981    2.538584   -0.188322
 O   -3.421905    1.820846    0.700072
 O   -3.791217    3.434949   -0.786509
 N   -1.654092   -0.293689    0.672073
 C   -1.925750   -1.723757    0.623046
 C   -0.769991   -2.495860    1.256152
 O    0.341898   -2.630466    0.792867
 C   -2.205826   -2.231008   -0.809002
 C   -2.477575   -3.732534   -0.785100
 C   -3.399525   -1.483035   -1.394699
 O   -1.129228   -3.025472    2.404616
 H    2.092427   -1.200374   -1.798584
 H    1.351777   -2.020729   -0.522316
 H    2.570812   -2.806720   -1.421882
 H    3.036201   -1.441700    0.867490
 H    4.770335   -2.806090   -0.332305
 H    4.895275   -1.545055   -1.573349
 H    5.411362   -1.220689    0.076497
 H    3.740310    0.798802    1.321960
 H    3.185749    2.841593   -0.736436
 H    3.722883    3.119005    0.950851
 H    1.082468    1.934214   -1.078099
 H   -0.781897    2.127824    1.195417
 H   -1.666737    2.033226   -1.738808
 H   -1.328117    3.557660   -0.929045
 H   -4.692084    3.453306   -0.421476
 H   -2.388795    0.308939    1.040057
 H   -2.803258   -1.903092    1.249301
 H   -1.319564   -2.030468   -1.418216
 H   -1.618790   -4.288072   -0.414670
 H   -2.700659   -4.083803   -1.788710
 H   -3.331881   -3.954013   -0.149912
 H   -4.291945   -1.667321   -0.801601
 H   -3.586929   -1.822899   -2.409459
 H   -3.218745   -0.411358   -1.421700
 H   -0.419671   -3.533505    2.834959
