52 
4z93_ligand_ani.xyz
 C   -1.127019   -2.904959   -1.177788
 C   -0.084499   -0.436467   -0.608720
 C    0.414618    0.838965   -0.316815
 C    1.719627    1.431067   -0.215538
 C    3.048965    0.980426   -0.224908
 C   -4.675172   -0.470708   -0.963288
 C   -4.649942    0.712871    0.893716
 C    4.330317   -1.164498   -0.768281
 N   -5.890254    0.345306    0.717816
 O   -5.907561   -0.392584   -0.447139
 C    3.340701   -0.415185   -0.076039
 C    1.454002    2.834090   -0.035221
 C   -4.548210   -1.215448   -2.247954
 C   -3.805325    0.198782   -0.144716
 C   -2.356785    0.417924   -0.268686
 C   -0.472601    1.931245   -0.085910
 C   -1.456225   -0.643992   -0.586086
 N    4.284252   -2.423966   -0.399931
 C   -4.281620    1.543558    2.085629
 O   -2.011047   -1.866174   -0.814768
 C    5.312022   -0.666088   -1.791073
 C    2.753129   -1.391657    0.779817
 C    1.742560   -1.243750    1.834791
 C    1.840984   -2.152661    3.023830
 C    0.770909   -2.376665    2.007968
 C    3.801894    3.158925   -0.242196
 C    2.547596    3.708135   -0.040380
 C   -1.845231    1.686175   -0.051581
 N    3.300803   -2.564014    0.571395
 N    4.068947    1.851408   -0.359695
 N    0.149155    3.122792    0.074823
 H   -0.580777   -2.659156   -2.098560
 H   -0.407178   -3.111242   -0.377604
 H   -1.744636   -3.788791   -1.345674
 H    0.612072   -1.237365   -0.827249
 H   -4.274462   -2.257111   -2.053623
 H   -5.492924   -1.193880   -2.795704
 H   -3.752026   -0.786414   -2.861717
 H   -4.193393    2.602149    1.812417
 H   -5.047264    1.457747    2.859659
 H   -3.313913    1.231700    2.489240
 H    4.788616   -0.154854   -2.605850
 H    5.980213    0.076523   -1.341983
 H    5.888204   -1.505687   -2.183182
 H    1.380231   -0.230020    1.988097
 H    1.564854   -1.760254    3.998467
 H    2.675357   -2.849507    3.011343
 H    0.918179   -3.226811    1.345410
 H   -0.256453   -2.126484    2.259272
 H    4.667463    3.812303   -0.304948
 H    2.410369    4.778329    0.069920
 H   -2.512180    2.517687    0.143249
