52 
4z93_ligand_dft.xyz
 C   -1.293424   -2.835059   -1.236099
 C   -0.139787   -0.406871   -0.504846
 C    0.368122    0.858951   -0.120899
 C    1.627655    1.417157   -0.011089
 C    2.977163    0.967515   -0.214699
 C   -4.679902   -0.335389   -1.110426
 C   -4.799610    0.472963    0.928782
 C    4.603567   -0.918756   -0.774056
 N   -6.015796    0.107898    0.616480
 O   -5.941091   -0.391997   -0.671698
 C    3.419466   -0.333866   -0.130949
 C    1.385119    2.825516    0.250925
 C   -4.431497   -0.826228   -2.491692
 C   -3.885365    0.207608   -0.142007
 C   -2.442609    0.486007   -0.156949
 C   -0.558551    1.961867    0.195816
 C   -1.494937   -0.587160   -0.512747
 N    4.623543   -2.197854   -0.562567
 C   -4.511908    1.060569    2.272429
 O   -2.098741   -1.739152   -0.834288
 C    5.588335   -0.267092   -1.687535
 C    2.862690   -1.493450    0.577986
 C    1.820757   -1.514877    1.629080
 C    2.033319   -2.404637    2.834482
 C    0.993761   -2.769589    1.824463
 C    3.691068    3.173969   -0.271455
 C    2.405185    3.705968    0.146784
 C   -1.973301    1.714186    0.182840
 N    3.592837   -2.539250    0.340302
 N    3.962306    1.926898   -0.478785
 N    0.028596    3.108842    0.434394
 H   -0.721156   -2.588883   -2.137764
 H   -0.607051   -3.130271   -0.435943
 H   -1.986532   -3.648524   -1.447870
 H    0.541125   -1.207867   -0.759090
 H   -4.382975   -1.919443   -2.509158
 H   -5.239089   -0.506573   -3.155639
 H   -3.484162   -0.436152   -2.868176
 H   -4.338708    2.139380    2.204362
 H   -5.360420    0.891635    2.938525
 H   -3.616447    0.608373    2.709045
 H    5.084221    0.274285   -2.494100
 H    6.197991    0.462947   -1.149149
 H    6.231284   -1.039608   -2.115340
 H    1.320347   -0.572157    1.813500
 H    1.707492   -2.023383    3.797344
 H    2.948070   -2.987861    2.840791
 H    1.226423   -3.598464    1.161863
 H   -0.054596   -2.649457    2.082751
 H    4.502736    3.878279   -0.448601
 H    2.267209    4.772574    0.285256
 H   -2.649398    2.528808    0.417665
