52 
4zbi_ligand_ani.xyz
 O   -5.095378   -2.339316   -0.204612
 C   -3.759288   -2.343125    0.020205
 O   -3.212821   -3.354467    0.382811
 C   -3.034486   -1.074553   -0.223514
 N   -3.613491    0.178792   -0.129656
 C   -2.651474    1.095459   -0.462058
 C   -4.926941    0.612317    0.345825
 C   -4.837808    2.019035    0.958367
 C   -4.157167    3.008379   -0.003389
 C   -2.808191    2.478593   -0.425237
 C   -1.701248    3.231134   -0.782940
 C   -0.486324    2.606330   -1.134409
 C   -0.346719    1.229687   -1.128924
 C   -1.452692    0.435981   -0.776408
 C   -1.711914   -0.964664   -0.607395
 C   -0.721622   -2.085694   -0.753786
 C   -0.110685   -2.522884    0.582173
 C    0.731145   -1.452947    1.251424
 O    1.876963   -1.244454    0.434545
 C    2.851056   -0.409025    0.879161
 C    3.981509   -0.280930    0.001516
 C    4.065742   -0.976777   -1.232458
 C    5.166067   -0.832849   -2.039728
 C    6.228866    0.013703   -1.649978
 C    6.170287    0.698648   -0.464997
 C    5.044654    0.570730    0.393121
 C    4.965121    1.274052    1.627430
 C    3.871877    1.129405    2.433275
 C    2.798944    0.281635    2.066264
 H   -5.358092   -1.510119   -0.629341
 H   -5.299718   -0.099581    1.087003
 H   -5.634620    0.639399   -0.492213
 H   -4.269625    1.969141    1.894959
 H   -5.848762    2.354020    1.209597
 H   -4.059208    3.996050    0.461450
 H   -4.787624    3.138915   -0.893872
 H   -1.762078    4.317263   -0.789199
 H    0.360703    3.229923   -1.409569
 H    0.608774    0.774990   -1.380919
 H    0.078419   -1.776715   -1.439094
 H   -1.212438   -2.955418   -1.205093
 H    0.522327   -3.402933    0.417848
 H   -0.913415   -2.827233    1.260129
 H    1.043861   -1.790278    2.248687
 H    0.167885   -0.514157    1.358964
 H    3.241434   -1.623273   -1.517653
 H    5.226777   -1.369925   -2.982921
 H    7.094799    0.117050   -2.299574
 H    6.985822    1.351513   -0.161797
 H    5.787499    1.924724    1.914467
 H    3.810688    1.666506    3.377393
 H    1.948654    0.194620    2.735132
