58 
4zg7_ligand_ani.xyz
 C   -1.599707    0.374359    1.265297
 C   -0.210350    2.201989    0.258446
 C   -1.169907    3.068529   -0.273769
 C   -0.738558    4.247154   -0.852012
 N   -3.408084   -1.047913    0.365933
 C    0.630050    4.564401   -0.904189
 C    1.581943    3.709407   -0.386316
 C    1.160426    2.511665    0.201314
 C    1.856256    1.407733    0.806521
 C    0.905204    0.492288    1.204761
 C    1.070219   -0.848316    1.841079
 O    7.766417   -2.124656    0.799785
 O    7.303346   -3.497743   -0.872165
 C    4.022723   -0.087243    0.014648
 C    3.260856   -0.555896   -1.054028
 C    3.694685   -1.645988   -1.802171
 C    4.895187   -2.268657   -1.496996
 C    5.691616   -1.813748   -0.444658
 C    5.229155   -0.719834    0.284571
 C    6.982632   -2.552710   -0.197055
 C   -4.386410   -0.423370    1.268056
 C   -5.670371   -1.219009    1.044867
 C   -5.370953   -2.154403   -0.060287
 C   -4.034210   -2.021592   -0.434670
 C   -3.498539   -2.777420   -1.477956
 F   -2.477389    2.770072   -0.234673
Cl   -1.899927    5.343190   -1.518854
 S    3.597080    1.303263    1.036535
 F    5.973282   -0.234041    1.310308
 N   -0.348744    0.979140    0.885732
 C   -2.060665   -0.754402    0.326560
 O   -1.280283   -1.384538   -0.363106
 C   -4.335790   -3.675974   -2.122239
 C   -5.678489   -3.825406   -1.745214
 C   -6.201044   -3.065870   -0.714097
 C   -7.007462   -0.552107    1.215615
 C   -6.555109   -1.577983    2.208278
 H   -2.343729    1.164584    1.329888
 H   -1.492074   -0.056932    2.268022
 H    0.925037    5.500936   -1.365215
 H    2.637318    3.958959   -0.433594
 H    2.122932   -1.144265    1.814406
 H    0.750609   -0.849245    2.892260
 H    0.478105   -1.599031    1.305989
 H    7.362868   -1.359676    1.239787
 H    2.321128   -0.063354   -1.292914
 H    3.091823   -2.009386   -2.628423
 H    5.255192   -3.121203   -2.062511
 H   -4.527269    0.635411    1.009155
 H   -4.049115   -0.473748    2.310132
 H   -2.461894   -2.664200   -1.768689
 H   -3.939294   -4.277886   -2.936092
 H   -6.307316   -4.540236   -2.269307
 H   -7.239945   -3.168083   -0.410213
 H   -7.794800   -0.826370    0.519090
 H   -7.020175    0.491725    1.517944
 H   -6.253043   -1.243507    3.197192
 H   -7.032288   -2.553874    2.194440
