31 
4zh2_ligand_ani.xyz
 F   -4.132081   -0.382307   -0.173316
 C   -2.853664   -0.506074   -0.568402
 F   -2.428986   -1.725662   -0.173547
 F   -2.845632   -0.516593   -1.915619
 C   -1.978693    0.583192   -0.025726
 C   -0.642160    0.600186   -0.406470
 C   -2.474594    1.529245    0.861782
 C   -1.616725    2.504437    1.367334
 C   -0.277652    2.523636    0.997349
 C    0.225810    1.554990    0.125354
 C    1.669903    1.561621   -0.241256
 N    2.217815    2.713538   -0.402838
 O    3.548937    2.566326   -0.818326
 N    2.359377    0.382709   -0.445787
 C    2.042314   -0.903581    0.022289
 C    2.404285   -2.000729   -0.760727
 C    2.079634   -3.289876   -0.356344
 C    1.403761   -3.499686    0.842404
 C    1.060311   -2.406653    1.632476
 C    1.376399   -1.112008    1.233522
 H   -0.258770   -0.160188   -1.079052
 H   -3.521420    1.507941    1.150245
 H   -1.995945    3.256665    2.052983
 H    0.390928    3.288257    1.383482
 H    3.818560    3.482668   -0.949092
 H    3.236255    0.499885   -0.936244
 H    2.927558   -1.832499   -1.699962
 H    2.362041   -4.132605   -0.982209
 H    1.149506   -4.506808    1.161485
 H    0.528173   -2.559530    2.568200
 H    1.077991   -0.259266    1.837982
