51 
4zim_ligand_dft.xyz
 C   -1.120034   44.883493    5.481766
 C   -0.962417   49.409269   -1.829219
 C   -1.083105   49.030593   -3.167536
 C   -4.058037   45.128768    1.932314
 C   -3.417543   44.484628    3.983482
 C    0.163409   45.044818    6.240182
 C   -6.124245   44.737352    0.605391
 C   -0.993547   46.034925    8.236195
 C    1.317520   45.318770    8.359888
 C   -1.190438   45.514081    9.654625
 C    1.034571   44.831199    9.775573
 C   -2.245370   47.467417   -1.142480
 C   -2.855012   46.646604   -0.067163
 C   -2.354637   47.098016   -2.486939
 C   -2.197728   44.135459    5.993703
 C   -3.352415   43.922563    5.258439
 C   -1.783802   47.870703   -3.487117
 C   -2.161336   46.403067    1.121440
 C   -1.184522   45.411277    4.196870
 C   -4.142231   46.112599   -0.234836
 C   -1.543425   48.633323   -0.831624
 C   -2.757566   45.649806    2.123789
 C   -2.342396   45.228565    3.446905
 C   -4.767173   45.337379    0.740808
 N   -4.432281   44.433820    3.051973
 N    0.078222   45.280791    7.594287
 N   -6.706270   44.771823   -0.627186
 O    1.240339   44.917108    5.675290
 O   -6.705569   44.240925    1.566605
 O    0.008716   45.582893   10.393379
Cl   -0.377627   49.969582   -4.447510
Cl   -0.107374   50.851183   -1.370929
 H   -0.712856   47.098148    8.283512
 H   -1.917372   45.954466    7.663538
 H    2.052919   44.684801    7.863274
 H    1.714750   46.343969    8.389019
 H   -1.922973   46.124815   10.188529
 H   -1.556370   44.473988    9.615374
 H    0.754463   43.765541    9.744514
 H    1.921769   44.942817   10.403647
 H   -2.869781   46.180296   -2.753814
 H   -2.107957   43.692311    6.981619
 H   -4.170019   43.330574    5.656682
 H   -1.864558   47.574245   -4.527115
 H   -1.154355   46.790029    1.251820
 H   -0.329409   45.949033    3.799155
 H   -4.679969   46.367314   -1.144060
 H   -1.461400   48.962202    0.198965
 H   -5.356731   44.035037    3.139712
 H   -7.575653   44.267424   -0.717690
 H   -6.160175   44.900193   -1.463052
