48 
4zk5_ligand_xtb.xyz
 C    5.925619    0.274940    0.774563
 C    7.276594    0.080958    0.972137
 C    7.938024   -1.037679    0.496836
 C    1.067902    0.025129   -0.513576
 C    3.755593   -0.472802   -0.127873
 C    2.853584   -1.553119   -0.248111
 C    1.520495   -1.308272   -0.434669
 C   -0.285213    0.429595   -0.701483
 C   -0.539468    1.782605   -0.773111
 C    5.194655   -0.686182    0.079230
 C    7.208278   -1.982547   -0.203971
 C    5.851269   -1.813103   -0.411754
 F    7.976199    1.013831    1.653098
 N    0.372542    2.747038   -0.643680
 C    1.629180    2.407204   -0.431086
 C    2.048981    1.032885   -0.366853
 N    3.348610    0.779199   -0.176814
 N    2.548387    3.369580   -0.257087
 C   -1.362149   -0.574444   -0.875793
 O   -1.219301   -1.634531   -1.455207
 N   -2.554461   -0.212129   -0.323358
 C   -3.719095   -1.037287   -0.403739
 C   -4.478068   -1.263756    0.919604
 N   -5.632797   -0.610195    0.331543
 C   -4.995728   -0.353890   -0.944218
 C   -6.848953   -0.382704    0.869347
 O   -7.109831   -0.720515    2.010317
 C   -7.825570    0.304526   -0.024862
 C   -9.292663    0.013986    0.186643
 C   -8.887834    1.161655    0.621614
 H    5.435036    1.153860    1.159926
 H    8.995419   -1.154039    0.672781
 H    3.215680   -2.565927   -0.167346
 H    0.811504   -2.114657   -0.536178
 H   -1.536359    2.153064   -0.979467
 H    7.705364   -2.858472   -0.592437
 H    5.306020   -2.550995   -0.979675
 H    2.288557    4.331281   -0.380310
 H    3.510889    3.086374   -0.191853
 H   -2.624857    0.649784    0.193910
 H   -3.427213   -1.945710   -0.932736
 H   -4.073452   -0.731812    1.784595
 H   -4.659938   -2.304059    1.194892
 H   -5.468274   -0.858133   -1.790486
 H   -4.875590    0.709306   -1.174279
 H   -7.466793    0.554026   -1.019661
 H  -10.035264   -0.728946    0.042366
 H   -9.042026    2.090309    1.109701
