34 
4zlz_ligand_xtb.xyz
 C    4.646173   -1.368606   -0.532816
 C    3.286221    0.309501   -1.197639
 C    2.425164    0.138758   -0.114910
 C    1.257050    1.025052    0.008870
 C    0.328740    3.249663    0.192040
 C   -2.466694    0.769638   -0.000238
 C   -2.483321   -0.634102   -0.143035
 C    1.889130   -1.084535    2.028913
 C    2.732499   -0.857066    0.817564
 C    3.868364   -1.622579    0.583598
 N    4.366518   -0.416550   -1.406881
 C    1.426138    2.386666    0.103082
 C   -0.949160    2.757723    0.170156
 C   -1.171615    1.374094    0.053899
 N   -3.608519    1.458843    0.076044
 N   -1.366483   -1.363807   -0.213500
 N   -0.202960   -0.844156   -0.158208
 C   -0.059249    0.494644   -0.026941
 C   -3.755068   -1.392542   -0.225032
 N   -3.582214   -2.715549   -0.374084
 O   -4.861633   -0.865814   -0.162027
 H    5.539716   -1.943722   -0.737105
 H    3.081558    1.071940   -1.939219
 H    0.497631    4.312896    0.276329
 H    1.581611   -0.137566    2.469380
 H    0.989669   -1.626257    1.738367
 H    2.427289   -1.668813    2.771275
 H    4.147498   -2.404075    1.274524
 H    2.426244    2.795375    0.121615
 H   -1.785406    3.438537    0.236094
 H   -4.466009    0.913386    0.018088
 H   -3.620500    2.457530    0.170688
 H   -4.377815   -3.325460   -0.447613
 H   -2.639055   -3.066570   -0.424886
