27 
4zph_ligand_ani.xyz
 C    2.492490    1.613715    0.001360
 C    3.637378    0.871883   -0.008027
 C    3.585709   -0.557571   -0.009999
 C    2.363419   -1.186353   -0.001023
 C   -2.363336   -1.186341   -0.000043
 C   -3.585688   -0.557558   -0.009818
 C   -3.637446    0.871862   -0.008637
 C   -2.492623    1.613697    0.000970
 C   -0.000130    1.687482    0.010933
 N   -0.000005   -1.128334    0.009116
 C    1.149994   -0.445417    0.006869
 C   -1.208314    0.991191    0.008141
 C    1.208198    0.991247    0.008002
 C   -1.149960   -0.445454    0.007343
 N    4.774102   -1.282172   -0.081458
 N   -4.773889   -1.282350   -0.081439
 H    2.544961    2.700605    0.003075
 H    4.609842    1.358904   -0.022192
 H    2.270410   -2.267915   -0.007365
 H   -2.270085   -2.267869   -0.005637
 H   -4.610037    1.358720   -0.023778
 H   -2.544762    2.700665    0.002191
 H   -0.000460    2.777838    0.012972
 H    5.582848   -0.807528    0.290782
 H    4.711598   -2.234951    0.249387
 H   -4.711162   -2.234979    0.249813
 H   -5.582759   -0.807790    0.290793
