39 
4zs2_ligand_xtb.xyz
 C    4.146742   -0.331900    0.173946
 O    5.491588   -0.336803   -0.021336
 C    3.429280    0.778963   -0.244915
 C    2.052686    0.825248   -0.067829
 O    1.426922    1.960831   -0.491642
 C    0.128720    2.166927   -0.111852
 C   -0.382123    3.439046   -0.330973
 C   -1.683586    3.736026    0.046922
 O   -2.148265    4.991896   -0.189369
 C   -2.465648    2.759775    0.656056
 C   -1.948996    1.495969    0.864209
 C   -0.655245    1.180337    0.479120
 C   -0.125501   -0.222475    0.650249
 C    1.376352   -0.241791    0.521266
 C    2.111365   -1.337697    0.944584
 C    3.482050   -1.392893    0.780161
 C   -0.738717   -1.094235   -0.428387
 C   -0.400944   -0.847947   -1.755431
 C   -0.929236   -1.601613   -2.785087
 C   -1.811350   -2.633166   -2.506137
 C   -2.144010   -2.905951   -1.194674
 C   -1.617656   -2.144857   -0.148532
 C   -2.052788   -2.472662    1.240576
 O   -2.365205   -1.661599    2.068727
 O   -2.096511   -3.788675    1.528427
 H    5.869543   -1.152228    0.329556
 H    3.939583    1.609136   -0.703666
 H    0.233475    4.194554   -0.789432
 H   -3.054139    5.068210    0.133868
 H   -3.476262    2.991063    0.963283
 H   -2.549316    0.733025    1.335836
 H   -0.418997   -0.599497    1.633027
 H    1.595704   -2.163716    1.412581
 H    4.036945   -2.256910    1.119236
 H    0.284600   -0.046352   -1.984390
 H   -0.657733   -1.382945   -3.806722
 H   -2.237628   -3.220295   -3.305205
 H   -2.854773   -3.694235   -0.981387
 H   -1.807617   -4.335631    0.785342
