41 
4zs3_ligand_ani.xyz
 O    3.602673    0.708005    2.555875
 C    2.571764   -0.037582    2.096911
 O    1.807734   -0.542808    2.878174
 C    2.514649   -0.186196    0.593409
 C    3.719654   -0.368594   -0.084722
 C    3.763641   -0.526678   -1.469932
 N    4.985348   -0.647190   -2.133411
 C    2.559829   -0.476484   -2.179329
 C    1.363958   -0.308054   -1.500970
 C    1.301803   -0.189305   -0.114549
 C   -0.069434   -0.023261    0.523740
 C   -1.000919   -1.187443    0.209990
 C   -0.558915   -2.507464    0.060233
 C   -1.437804   -3.562908   -0.107837
 C   -2.814808   -3.309590   -0.123080
 O   -3.646037   -4.373213   -0.276147
 C   -3.284603   -2.010140    0.012331
 C   -2.371921   -0.968638    0.155187
 O   -2.910153    0.286046    0.261579
 C   -0.721780    1.297815    0.135921
 C   -2.110312    1.384701    0.082284
 C   -2.772860    2.585329   -0.136173
 C   -0.001034    2.471004   -0.099437
 C   -0.630997    3.681579   -0.346303
 C   -2.029179    3.737326   -0.355785
 O   -2.716031    4.888926   -0.577270
 H    4.042471    1.145296    1.813133
 H    4.649703   -0.423306    0.479538
 H    5.735902   -1.016884   -1.566128
 H    4.935763   -1.112011   -3.029122
 H    2.571671   -0.572466   -3.261716
 H    0.429740   -0.286074   -2.058791
 H    0.078842   -0.020372    1.613548
 H    0.511098   -2.703175    0.068896
 H   -1.090110   -4.583920   -0.222977
 H   -4.559893   -4.061085   -0.264180
 H   -4.347224   -1.780297    0.002636
 H   -3.856476    2.619613   -0.143627
 H    1.085612    2.427526   -0.099548
 H   -0.045259    4.580780   -0.526362
 H   -2.089163    5.608558   -0.720449
