41 
4zs3_ligand_dft.xyz
 O    3.752365    0.674154    2.374123
 C    2.786357   -0.120806    1.862348
 O    2.238181   -0.926275    2.572323
 C    2.508086    0.077607    0.400886
 C    3.615327    0.190008   -0.451762
 C    3.455110    0.337704   -1.828842
 N    4.554639    0.474869   -2.671177
 C    2.148373    0.400152   -2.333699
 C    1.061902    0.297378   -1.484951
 C    1.204661    0.125858   -0.103995
 C   -0.049764    0.015198    0.762919
 C   -0.776129   -1.282315    0.474577
 C   -0.262308   -2.513009    0.893513
 C   -0.888013   -3.707972    0.582177
 C   -2.063854   -3.688619   -0.173588
 O   -2.644478   -4.884258   -0.461495
 C   -2.602709   -2.479355   -0.596495
 C   -1.952557   -1.292379   -0.264942
 O   -2.554189   -0.145968   -0.719691
 C   -0.974198    1.192350    0.535800
 C   -2.148878    1.054828   -0.203260
 C   -2.982384    2.135250   -0.470656
 C   -0.666362    2.462960    1.017631
 C   -1.478958    3.560250    0.771511
 C   -2.642940    3.391694    0.016152
 O   -3.486499    4.418892   -0.269531
 H    4.009941    1.329925    1.711209
 H    4.621002    0.112332   -0.042847
 H    5.413650    0.069941   -2.326347
 H    4.386925    0.222829   -3.635037
 H    1.990487    0.529335   -3.401368
 H    0.061274    0.350964   -1.905292
 H    0.252985    0.007362    1.812279
 H    0.655016   -2.511942    1.475971
 H   -0.486333   -4.659987    0.910684
 H   -3.446934   -4.730688   -0.974052
 H   -3.523306   -2.430839   -1.171476
 H   -3.890501    1.994141   -1.044866
 H    0.245646    2.593747    1.595251
 H   -1.211747    4.539640    1.160832
 H   -3.148192    5.226101    0.135524
