63 
4zsa_ligand_xtb.xyz
 C    2.105628   -0.088470   -0.300556
 C   -3.551341    1.502209    0.240378
 C   -6.669525   -0.563683    0.255000
 C   -7.033574   -1.749866    0.898701
 C   -8.359609   -2.109329    1.003668
 C   -9.016450   -0.129424   -0.168316
 C  -11.278757    0.437194   -0.653928
 C   -4.273149   -1.144067   -0.090590
 C   11.454045    0.543010    0.481548
 C   10.551769   -0.539203   -0.086863
 N    9.124505   -0.324260    0.261316
 C    8.498504    0.790607   -0.495289
 C    7.072878    1.013881    0.012936
 N    6.332372   -0.199757   -0.200944
 C    4.903677   -0.122949   -0.217968
 C    4.209400   -1.119131   -0.903608
 C    2.836226   -1.103701   -0.931962
 C    0.624274   -0.195335   -0.351938
 O    0.088942   -1.267135   -0.627535
 N   -0.022752    0.957069   -0.075721
 C   -1.369648    1.256701    0.031597
 N   -1.660284    2.553471    0.258236
 N   -2.957513    2.714585    0.385395
 C   -4.900336    1.163615    0.308659
 C   -5.261238   -0.163525    0.152540
 C   -9.363130   -1.310248    0.475079
 O   -9.913101    0.742748   -0.735368
 C   -7.677619    0.233324   -0.273655
 C   -2.938832   -0.833531   -0.171897
 C   -2.558620    0.495667    0.002796
 C    2.815035    0.904326    0.381139
 C    4.194480    0.883379    0.427377
 C    6.883396   -1.282146    0.577358
 C    8.306961   -1.553851    0.093488
 H   -6.269724   -2.376251    1.334628
 H   -8.631704   -3.026142    1.509500
 H  -11.515254   -0.505491   -1.160969
 H  -11.620950    0.381459    0.385951
 H  -11.796948    1.253109   -1.157075
 H   -4.590312   -2.167363   -0.243498
 H   11.257596    1.516243    0.041126
 H   11.346277    0.614871    1.561851
 H   12.488426    0.289524    0.267774
 H   10.852767   -1.508823    0.316233
 H   10.632459   -0.579387   -1.174586
 H    9.074677   -0.068019    1.256457
 H    8.468611    0.510580   -1.549201
 H    9.095819    1.693617   -0.371946
 H    6.607804    1.817228   -0.559306
 H    7.115336    1.322939    1.075787
 H    4.760663   -1.899327   -1.409918
 H    2.278891   -1.874821   -1.441203
 H    0.521594    1.802338    0.033816
 H   -5.638631    1.923959    0.517362
 H  -10.392784   -1.618601    0.573937
 H   -7.437180    1.148711   -0.791377
 H   -2.193688   -1.589502   -0.368824
 H    2.298538    1.686944    0.916964
 H    4.713582    1.654560    0.979817
 H    6.270938   -2.171734    0.431465
 H    6.901972   -1.057164    1.662086
 H    8.760843   -2.368059    0.660817
 H    8.292685   -1.810779   -0.966593
