35 
4zsg_ligand_xtb.xyz
 C   -4.721711   -1.462659    0.015986
 C   -5.654577   -1.329901   -1.184904
 C   -2.413125   -0.618152   -0.039064
 C    2.650180    0.794769    0.026710
 C    4.028833    0.712325    0.049002
 C    4.646420   -0.527731    0.012894
 C    3.894807   -1.691185   -0.044010
 C    2.517088   -1.608874   -0.065010
Cl    6.373953   -0.627556    0.039765
 C    1.882396   -0.366842   -0.030514
 N    0.497819   -0.341434   -0.054350
 C   -0.310732    0.731294   -0.034445
 N   -0.016022    2.011059   -0.016586
 C   -1.233357    2.628260   -0.003521
 N   -1.333385    3.976726    0.087876
 N   -2.262970    1.812522   -0.021937
 N   -1.679862    0.566404   -0.038596
 O   -1.855750   -1.703679   -0.065371
 N   -3.732874   -0.405263   -0.012464
 C   -5.496227   -1.415316    1.331143
 H   -4.159717   -2.400126   -0.050042
 H   -6.200921   -0.390262   -1.136040
 H   -5.085907   -1.355044   -2.110933
 H   -6.369799   -2.147425   -1.194350
 H    2.151112    1.749351    0.054676
 H    4.625143    1.609910    0.095064
 H    4.385195   -2.651405   -0.071174
 H    1.923178   -2.509811   -0.108302
 H   -0.005571   -1.229521   -0.071848
 H   -0.508330    4.485181   -0.181422
 H   -2.219044    4.372909   -0.176386
 H   -4.032189    0.560360    0.019321
 H   -4.815570   -1.503646    2.174081
 H   -6.037718   -0.475481    1.416962
 H   -6.209969   -2.233133    1.374149
