38 
4zsj_ligand_ani.xyz
 C    3.726215   -1.328033   -0.055963
 C    2.336362   -1.221512   -0.037605
 C    1.673649    0.004624    0.024103
 C   -0.630705    0.970884    0.026141
 C   -1.735754    2.754571    0.027174
 C   -2.620356   -0.569045   -0.076155
 C   -4.781188   -1.683915   -0.199092
 C   -4.945289   -2.246599    1.211238
 C   -6.118952   -1.377808   -0.856730
 O   -1.987614   -1.620077   -0.012575
 N   -3.954434   -0.480158   -0.202198
 N   -1.970874    0.681711   -0.032087
 N   -2.692501    1.859929   -0.035688
 N   -1.976749    4.107355    0.026439
 N   -0.454432    2.272645    0.065153
 N    0.270379   -0.042761    0.037289
 C    2.421357    1.182073    0.071842
 C    3.806395    1.098663    0.054923
 C    4.450469   -0.131990   -0.008077
Cl    6.196754   -0.131549   -0.025840
 C    4.357759   -2.693957   -0.125235
 H    1.747669   -2.137490   -0.074404
 H   -4.238795   -2.425892   -0.795770
 H   -5.420679   -1.509737    1.870045
 H   -5.566350   -3.149498    1.193968
 H   -3.968600   -2.508738    1.627503
 H   -6.739796   -2.278184   -0.923862
 H   -6.671318   -0.632751   -0.270184
 H   -5.970014   -0.986850   -1.868342
 H   -4.372364    0.442528   -0.147757
 H   -2.897374    4.366825    0.352086
 H   -1.231987    4.657275    0.427375
 H   -0.162134   -0.965929    0.017067
 H    1.929599    2.146517    0.120330
 H    4.402793    2.005340    0.090789
 H    4.028927   -3.307336    0.721284
 H    4.050095   -3.209826   -1.042017
 H    5.446931   -2.648072   -0.109969
