57 
4zts_ligand_dft.xyz
 C    6.119960  -25.538056  -12.746764
 C    7.237067  -25.046366  -11.817834
 C    6.778654  -24.945497  -10.382331
 C    6.894869  -26.029887   -9.512268
 C    6.427677  -25.960496   -8.204158
 C    5.824709  -24.789318   -7.737856
 C    5.721214  -23.689242   -8.592252
 C    6.185043  -23.776654   -9.897972
 N    5.376299  -24.669815   -6.405950
 C    4.421049  -25.382420   -5.986011
 S    3.443873  -26.560800   -6.927206
 C    2.436926  -26.895503   -5.522084
 C    1.412620  -27.748871   -5.386764
 C    0.812051  -28.646746   -6.375738
 C    0.078039  -29.734979   -5.903535
 C   -0.486544  -30.626292   -6.824109
 N   -1.233662  -31.731817   -6.453356
 C   -1.257779  -32.427676   -5.246882
 C   -0.171332  -32.456884   -4.363031
 C   -0.250602  -33.184899   -3.184970
 C   -1.396919  -33.914375   -2.864766
 C   -2.468825  -33.911431   -3.764045
 C   -2.402704  -33.174929   -4.932351
 C   -1.510858  -34.689291   -1.631154
 N   -0.684169  -34.636179   -0.568174
 N   -1.120498  -35.490738    0.375535
 N   -2.176694  -36.039967   -0.109495
 N   -2.450399  -35.572048   -1.346854
 N   -0.406745  -30.446162   -8.147449
 C    0.266406  -29.383053   -8.584823
 C    0.908667  -28.468658   -7.762653
 C    2.891797  -26.102430   -4.336566
 O    2.389936  -26.143085   -3.233002
 N    3.973158  -25.314721   -4.677260
 C    4.616883  -24.429755   -3.723490
 H    6.469716  -25.604326  -13.782279
 H    5.768199  -26.528675  -12.439506
 H    5.262866  -24.856863  -12.717456
 H    8.092289  -25.729069  -11.884530
 H    7.590888  -24.067167  -12.161424
 H    7.364730  -26.946929   -9.860187
 H    6.545225  -26.806454   -7.533098
 H    5.273901  -22.773051   -8.219943
 H    6.090587  -22.914906  -10.554769
 H    1.000817  -27.792362   -4.379757
 H   -0.069228  -29.870099   -4.838188
 H   -1.755189  -32.125621   -7.224124
 H    0.749544  -31.942458   -4.611929
 H    0.618281  -33.201801   -2.532081
 H   -3.358047  -34.484830   -3.524626
 H   -3.250237  -33.160852   -5.611598
 H    0.126297  -34.064563   -0.388408
 H    0.294485  -29.257280   -9.664641
 H    1.419928  -27.620303   -8.200993
 H    4.095821  -24.544578   -2.773366
 H    5.669872  -24.699906   -3.617608
 H    4.552087  -23.396867   -4.072870
