59 
4zwy_ligand_dft.xyz
 C   -2.280460    0.437986    0.082831
 C   -3.290492   -0.704130   -0.086267
 C   -2.795079   -1.724566   -1.116633
 C   -1.352329   -2.153647   -0.840400
 C    0.916155   -1.301831   -0.127421
 O   -3.445861   -1.388283    1.157527
 C   -4.282722   -1.646551    3.334244
 C   -4.216671   -0.796522    2.095235
 O   -4.757686    0.269823    1.933578
 O   -3.559357   -2.912319   -1.095125
 O   -1.264498   -2.943880    0.317459
 C   -0.447638   -0.930328   -0.687117
 O    1.566113   -2.079779   -1.133544
 C    2.557821   -2.880231   -0.737602
 O    2.882254   -3.029824    0.422983
 C    3.235326   -3.537875   -1.903885
 O   -0.962889    0.029699    0.243569
 S   -2.449583    1.667100   -1.288517
 O   -3.714823    2.345471   -1.076017
 O   -2.137013    1.006351   -2.550883
 N   -1.218166    2.741114   -1.035036
 C   -1.159035    3.483120    0.227184
 C   -0.046619    4.529713    0.170385
 C    1.335640    3.963937   -0.183832
 C    1.761270    2.773627    0.679832
 C    3.112055    2.233167    0.251493
 O    3.401069    1.110070    1.105743
 S    4.581119    0.131219    0.590911
 O    5.856313    0.795414    0.747047
 O    4.170291   -0.365925   -0.711935
 N    4.434226   -1.014059    1.745197
 H   -2.549069    1.012623    0.972288
 H   -4.255399   -0.273743   -0.377316
 H   -2.829886   -1.240469   -2.100299
 H   -0.994919   -2.712755   -1.718241
 H    0.808260   -1.876428    0.792349
 H    1.512185   -0.406075    0.067941
 H   -4.713705   -2.623025    3.095426
 H   -3.273324   -1.817524    3.718851
 H   -4.891599   -1.144865    4.085793
 H   -4.491368   -2.689748   -1.205529
 H   -2.084773   -3.454810    0.360922
 H   -0.332301   -0.463003   -1.672585
 H    2.524713   -3.765662   -2.700333
 H    3.746537   -4.440671   -1.569222
 H    3.976090   -2.830531   -2.291826
 H   -0.340219    2.319921   -1.320708
 H   -0.994184    2.809791    1.080626
 H   -2.127020    3.970759    0.363777
 H   -0.316371    5.299291   -0.560086
 H   -0.003437    5.014069    1.153115
 H    2.074893    4.768307   -0.089888
 H    1.354128    3.675694   -1.244528
 H    1.805091    3.065875    1.735603
 H    1.032163    1.956437    0.610227
 H    3.085254    1.895804   -0.790854
 H    3.906960    2.978031    0.365122
 H    5.330842   -1.246398    2.153104
 H    3.868847   -1.813133    1.445330
