53 
4zx0_ligand_ani.xyz
 C   -0.809634   -1.755873   -0.728439
 C   -1.381128   -3.023121   -0.113565
 C   -2.479284   -2.714065    0.913914
 C   -3.494994   -1.736932    0.299280
 C   -2.803319   -0.583254   -0.351512
 C   -3.228246    0.673333   -0.250780
 O   -1.931641   -3.773795   -1.189109
 O   -3.135695   -3.913251    1.268672
 O   -4.312979   -2.451342   -0.617336
 O   -2.803566    1.596037   -1.175002
 C   -3.111641    2.903880   -0.947060
 O   -3.758618    3.269790    0.003728
 C   -2.591557    3.786244   -2.037248
 O   -1.788663   -0.888865   -1.230554
 S    0.249405   -0.920661    0.491863
 O    1.354009   -1.839921    0.764455
 O   -0.577607   -0.417415    1.571443
 N    0.823393    0.420179   -0.312474
 C    1.877884    0.203711   -1.312154
 C    2.971042    1.208073   -0.940861
 O    3.815942    0.668213    0.114042
 S    4.890290   -0.501065   -0.203589
 O    6.153933   -0.047635    0.317440
 O    4.714361   -0.903090   -1.579953
 N    4.394684   -1.729458    0.772379
 C    2.200903    2.336981   -0.276116
 C    1.162099    1.577976    0.558610
 C   -0.073449    2.401136    0.861439
 O   -0.705871    2.997002    0.014566
 O   -0.362030    2.434419    2.162274
 C   -1.541557    3.172418    2.521658
 H   -0.160250   -2.026780   -1.564289
 H   -0.572419   -3.582609    0.375360
 H   -2.023242   -2.276946    1.805042
 H   -4.170811   -1.369242    1.082256
 H   -3.930181    1.037011    0.486882
 H   -2.282789   -4.579675   -0.779546
 H   -3.957672   -3.908169    0.749596
 H   -3.712155   -2.773460   -1.316195
 H   -2.410819    4.776693   -1.617848
 H   -1.682667    3.379600   -2.483305
 H   -3.358602    3.876338   -2.813789
 H    2.239781   -0.827626   -1.299418
 H    1.483539    0.431965   -2.307360
 H    3.601365    1.509590   -1.780712
 H    3.408567   -1.958113    0.653819
 H    4.650028   -1.551173    1.736685
 H    2.836797    2.986510    0.328646
 H    1.685736    2.939907   -1.030184
 H    1.596670    1.231615    1.502185
 H   -1.706094    2.962511    3.577753
 H   -2.393298    2.849029    1.916970
 H   -1.378457    4.241374    2.365410
