53 
4zx0_ligand_dft.xyz
 C   -0.770501   -1.875727   -0.605297
 C   -1.738464   -2.894161   -0.002963
 C   -2.954471   -2.231839    0.669341
 C   -3.553148   -1.165124   -0.262065
 C   -2.482544   -0.251498   -0.783492
 C   -2.641403    1.065569   -0.854599
 O   -2.171385   -3.698225   -1.088837
 O   -3.917141   -3.231084    0.928147
 O   -4.281557   -1.808597   -1.302076
 O   -1.666035    1.876782   -1.368342
 C   -1.942222    3.216669   -1.424390
 O   -2.984117    3.685921   -1.048606
 C   -0.772305    3.968929   -1.981183
 O   -1.364282   -0.846703   -1.326524
 S    0.369920   -1.269684    0.735704
 O    1.557615   -2.110329    0.566288
 O   -0.282218   -1.247554    2.036408
 N    0.612704    0.311271    0.297932
 C    1.473238    0.585334   -0.860238
 C    2.710338    1.231734   -0.241525
 O    3.530977    0.251423    0.418737
 S    4.573064   -0.632263   -0.480998
 O    5.895236   -0.092015   -0.281084
 O    4.002647   -0.753345   -1.804401
 N    4.487999   -2.076899    0.284190
 C    2.119391    2.083716    0.872761
 C    0.875813    1.312051    1.357945
 C   -0.331029    2.241745    1.520908
 O   -0.346883    3.406717    1.189582
 O   -1.352552    1.616917    2.091254
 C   -2.526246    2.408320    2.308394
 H   -0.095793   -2.384872   -1.295193
 H   -1.200548   -3.507870    0.731640
 H   -2.642407   -1.773189    1.611149
 H   -4.290376   -0.575379    0.288763
 H   -3.553489    1.557012   -0.541836
 H   -2.814188   -4.310945   -0.699544
 H   -4.591356   -3.117885    0.236889
 H   -3.641340   -2.354946   -1.789456
 H   -1.096000    4.962201   -2.291606
 H   -0.029719    4.069318   -1.183057
 H   -0.321974    3.431374   -2.818723
 H    1.705676   -0.319592   -1.420299
 H    0.955220    1.286712   -1.521972
 H    3.303677    1.802523   -0.959132
 H    3.518008   -2.372183    0.404652
 H    5.005608   -2.064934    1.156485
 H    2.841525    2.252638    1.672511
 H    1.809198    3.053402    0.476239
 H    1.037691    0.808280    2.313431
 H   -3.283982    1.708418    2.658240
 H   -2.841627    2.899558    1.385861
 H   -2.327586    3.167348    3.068868
