52 
4zx6_ligand_ani.xyz
 C    6.037681    2.838645   -0.069789
 C    4.753088    2.293689    0.555778
 C    5.046084    1.785915    1.977390
 C    3.694133    3.405317    0.605239
 C    4.262595    1.119600   -0.298348
 O    4.911174    0.673918   -1.244256
 N    3.072940    0.566869    0.049483
 C    2.561352   -0.613911   -0.640855
 C    3.404298   -1.837987   -0.232244
 O    3.266176   -2.482399    0.799422
 N    4.370915   -2.159585   -1.137747
 O    5.239493   -3.164432   -0.741183
 C    1.080490   -0.792531   -0.394924
 C    0.586247   -1.258391    0.823721
 C   -0.781207   -1.350230    1.033670
 C    0.175149   -0.427591   -1.392411
 C   -1.193152   -0.507133   -1.175173
 C   -1.694055   -0.974503    0.043196
 C   -3.159261   -1.071777    0.271996
 C   -4.009200   -0.036345   -0.116952
 C   -3.716676   -2.204086    0.876132
 C   -5.091711   -2.303117    1.060561
 C   -5.928682   -1.266660    0.661729
 C   -5.385775   -0.118630    0.083949
 C   -6.273957    1.010224   -0.319978
 N   -7.479080    0.953721   -0.739551
 N   -5.676666    2.262909   -0.255245
 O   -6.575160    3.318621   -0.426174
 H    6.423143    3.672253    0.527861
 H    5.853596    3.195818   -1.087280
 H    6.804836    2.061644   -0.120624
 H    5.443418    2.601318    2.592467
 H    5.784911    0.977423    1.959805
 H    4.143342    1.408773    2.470617
 H    4.082391    4.260964    1.168801
 H    3.437705    3.747362   -0.403112
 H    2.772740    3.080072    1.099906
 H    2.568414    0.894570    0.859324
 H    2.716581   -0.451366   -1.710927
 H    4.876665   -1.372427   -1.544369
 H    4.941380   -3.351851    0.172456
 H    1.278320   -1.584457    1.593848
 H   -1.151715   -1.704786    1.992383
 H    0.543277   -0.062662   -2.349554
 H   -1.888363   -0.222502   -1.961984
 H   -3.595143    0.856631   -0.578526
 H   -3.065856   -3.021310    1.178602
 H   -5.512347   -3.194146    1.518846
 H   -7.002875   -1.335651    0.823636
 H   -7.831621    0.003343   -0.810889
 H   -5.165024    2.416424    0.609733
 H   -7.412654    2.848505   -0.638191
