77 
4zxx_ligand_ani.xyz
 C   -1.002806   -2.341028   -0.528742
 C    1.166622   -1.960194    1.596720
 C    1.287446   -1.864166    0.061431
 C   -3.301816   -2.562131    0.186239
 C    0.600144    1.175613    1.045074
 C   -0.734104    0.886409    1.313225
 C   -1.784424    1.483108    0.610811
 C   -1.498701    2.407089   -0.392159
 C   -2.714614   -0.878337   -1.463475
 C   -1.365639   -1.283977   -1.334766
 C   -4.235615    1.832480    0.743993
 N    1.346226   -0.831133    2.340947
 C    1.713380    0.491912    1.840645
 C    2.066243    1.250235    3.134068
 C    1.195295    0.580934    4.198904
 C    1.226145   -0.892825    3.797692
 N   -5.436087   -0.197591   -1.735411
 C   -4.468080    0.473699   -2.399301
 C   -3.135294    0.184592   -2.309974
 C   -5.068491   -1.177276   -0.939198
 C   -3.698720   -1.558521   -0.725911
 C   -1.987854   -2.959288    0.273477
 N    0.341036   -2.804056   -0.538677
 O    0.912103   -3.031064    2.132816
 N   -6.061550   -1.822161   -0.213293
 C   -0.175214    2.724734   -0.657533
 C    0.865892    2.127603    0.045362
 S    2.521926    2.646189   -0.399835
 O    2.381986    3.870623   -1.187010
 O    3.357204    2.649666    0.804214
 C    3.193434    1.357250   -1.512838
 C    2.300943    1.144408   -2.726583
 C    4.605267    1.796158   -1.885474
 N   -3.096478    1.092817    0.933049
 O   -4.247913    2.882538    0.121017
 C    2.708301   -2.097970   -0.450260
 C    2.876555   -2.359455   -1.815455
 C    4.144579   -2.481686   -2.372914
 C    5.276571   -2.352559   -1.571747
 C    5.122644   -2.104561   -0.211440
 C    3.850304   -1.979514    0.344272
 C   -5.486011    1.293122    1.404539
 H    0.984884   -0.867761   -0.272288
 H   -4.038818   -3.026589    0.835716
 H   -0.969742    0.155588    2.080005
 H   -2.306363    2.861552   -0.952477
 H   -0.608739   -0.764415   -1.912104
 H    2.592204    0.403218    1.192445
 H    1.906624    2.325962    3.036546
 H    3.128214    1.089058    3.349099
 H    0.168884    0.963168    4.131259
 H    1.553858    0.749830    5.217702
 H    0.326807   -1.450200    4.075312
 H    2.087360   -1.423900    4.225339
 H   -4.817282    1.290499   -3.030845
 H   -2.388513    0.773672   -2.834136
 H   -1.702006   -3.745073    0.969979
 H    0.398511   -3.676706   -0.020802
 H   -6.984263   -1.615078   -0.576404
 H   -5.912036   -2.814310   -0.089421
 H    0.067453    3.460294   -1.419695
 H    3.243341    0.448382   -0.902213
 H    2.245667    2.058907   -3.325320
 H    2.719049    0.340509   -3.344939
 H    1.283854    0.853554   -2.444063
 H    5.087421    1.034242   -2.508220
 H    5.204941    1.948999   -0.984586
 H    4.573430    2.738343   -2.441553
 H   -3.173165    0.215555    1.425925
 H    1.995776   -2.467833   -2.443635
 H    4.251533   -2.682621   -3.436758
 H    6.268982   -2.448532   -2.004620
 H    5.995834   -2.006973    0.427286
 H    3.762965   -1.789098    1.411253
 H   -5.753492    1.948582    2.239568
 H   -6.302636    1.334932    0.680431
 H   -5.374698    0.270814    1.776874
