62 
4zxy_ligand_dft.xyz
 C    0.603825   -0.728860    0.962966
 C   -2.601302   -2.727889    1.392103
 C   -1.364730   -2.142368    1.638440
 C    0.301864    0.670697    1.534093
 C   -3.248919   -2.570894    0.164098
 C   -2.637269   -1.760721   -0.797175
 C   -1.406690   -1.159095   -0.549534
 C   -4.542393   -3.312135   -0.105157
 C   -0.271799    2.952550    0.858272
 C   -3.208327    3.707604   -1.456032
 C   -6.046441   -1.223682    0.064393
 C    7.262851   -0.940002   -1.972285
 N    7.830042   -0.327393   -0.901266
 C    7.036474    0.074992    0.068223
 C    5.611602   -0.118530    0.054502
 C    5.042230   -0.722654   -1.095167
 C    5.921969   -1.140186   -2.132651
 C    4.759413    0.243410    1.120057
 C    3.402230    0.054697    1.047448
 C    2.823487   -0.522310   -0.112954
 C    3.645979   -0.906034   -1.156433
 N    1.437704   -0.688609   -0.226129
 N    7.645078    0.670688    1.157700
 C   -0.740458   -1.370256    0.661055
 O   -0.068404    0.793523    2.692187
 N    0.407370    1.684435    0.643921
 C   -1.636865    2.938580    0.201145
 C   -1.977415    3.828141   -0.813476
 C   -4.100025    2.698720   -1.116130
 C   -3.754624    1.800268   -0.101230
 C   -2.539499    1.938727    0.562068
 N   -4.599235    0.740312    0.291031
 C   -5.390002    0.003329   -0.554282
 O   -5.585200    0.294042   -1.721884
 C   -5.695171   -2.503001   -0.716141
 H    1.082077   -1.287313    1.778716
 H   -3.061149   -3.340767    2.163558
 H   -0.879750   -2.283986    2.599666
 H   -3.129409   -1.581827   -1.749559
 H   -0.968621   -0.516693   -1.308483
 H   -4.328617   -4.159495   -0.770151
 H   -4.888396   -3.751802    0.838530
 H    0.344222    3.764576    0.460900
 H   -0.353432    3.083177    1.940253
 H   -3.474456    4.404080   -2.245492
 H   -7.123956   -1.040917   -0.000996
 H   -5.802252   -1.335976    1.127529
 H    7.964511   -1.262692   -2.737812
 H    5.529894   -1.615982   -3.025723
 H    5.175588    0.653049    2.035305
 H    2.783116    0.341287    1.890045
 H    3.216162   -1.364623   -2.044492
 H    1.185412   -1.400817   -0.899235
 H    8.617900    0.880921    0.977890
 H    7.148762    1.430933    1.598435
 H    0.637970    1.414122   -0.303801
 H   -1.278932    4.605899   -1.111277
 H   -5.040572    2.588116   -1.637493
 H   -2.274952    1.236403    1.349243
 H   -4.346037    0.292168    1.160275
 H   -5.482600   -2.226895   -1.754137
 H   -6.570325   -3.160092   -0.752229
