43 
4zy0_ligand_xtb.xyz
 C   -3.200530   -3.158142   -0.001437
 C   -4.067129   -1.929448    0.296600
 C   -5.474494   -2.149967   -0.259856
 C   -4.147191   -1.680726    1.807600
 C   -3.467319   -0.695558   -0.381960
 O   -4.076549   -0.013173   -1.189488
 N   -2.203062   -0.400957   -0.023395
 C   -1.456885    0.701098   -0.612603
 C   -1.906888    2.019501    0.050903
 O   -1.277953    2.640911    0.889804
 N   -3.087802    2.439253   -0.413892
 O   -3.667382    3.562358    0.184892
 C    0.019122    0.485096   -0.445216
 C    0.859421    0.432382   -1.549356
 C    2.216545    0.234475   -1.389652
 C    0.565779    0.346955    0.825272
 C    1.923477    0.154584    0.986635
 C    2.769919    0.090063   -0.118488
 C    4.204769   -0.124814    0.054984
 C    4.957625    0.344543    1.169401
 C    6.268303    0.015475    1.096733
 S    6.632476   -0.888527   -0.321270
 C    4.995715   -0.804794   -0.827129
 H   -2.208063   -3.074136    0.436461
 H   -3.091213   -3.292984   -1.075291
 H   -3.675134   -4.047206    0.408162
 H   -6.092825   -1.274828   -0.078979
 H   -5.433266   -2.314685   -1.333324
 H   -5.936521   -3.013066    0.212704
 H   -4.644403   -2.519226    2.290540
 H   -3.160866   -1.571383    2.253974
 H   -4.719860   -0.778973    2.013712
 H   -1.727704   -0.940688    0.681213
 H   -1.727161    0.751934   -1.674398
 H   -3.739598    1.847507   -0.927222
 H   -2.974830    3.875375    0.800771
 H    0.447471    0.550549   -2.541211
 H    2.859248    0.209188   -2.256622
 H   -0.070097    0.413162    1.695398
 H    2.330178    0.039477    1.979982
 H    4.535364    0.925742    1.968905
 H    7.053827    0.247996    1.787694
 H    4.705515   -1.290501   -1.737396
