74 
4zyi_ligand_dft.xyz
 C   -0.856353    4.597110    0.561967
 C   -1.525126    3.673636    1.359309
 C   -6.972832   -3.514063    2.033051
 C   -2.058712    0.612522   -2.783481
 C   -2.763730   -0.088073   -1.654782
 C   -2.066727   -0.218942   -0.462217
 C   -2.655981   -0.875835    0.615547
 C   -3.939012   -1.392564    0.514438
 C   -4.645172   -1.268402   -0.699097
 C   -4.048231   -0.617270   -1.776455
 C   -6.624768   -1.746732   -1.915107
 C   -5.542356   -1.426452    2.271210
 C   -6.309676   -2.527600    2.990973
 C    1.419684   -0.285977   -1.554891
 C    1.934653   -1.299756   -2.363211
 C    3.261106   -1.687471   -2.257266
 C    4.122810   -1.093099   -1.319375
 C    3.590646   -0.087087   -0.497010
 C    2.268257    0.315746   -0.626591
Cl   -0.935820    6.297447    0.961852
 C   -1.461999    2.325890    1.031950
 C   -0.734931    1.884463   -0.076404
 C   -0.069588    2.829548   -0.855405
 C   -0.127788    4.185946   -0.545005
 C   -0.680056    0.384182   -0.398058
 N    0.046321    0.093271   -1.638695
 C   -0.578012    0.253790   -2.858394
 O   -5.880555   -1.826509   -0.720632
 O   -4.473554   -2.079760    1.562578
 O   -0.008657    0.133716   -3.927928
 C   -4.970926   -0.379778    3.218578
 N    5.445755   -1.499144   -1.192149
 C    5.917500   -2.689130   -1.863457
 C    6.435906   -0.618535   -0.620761
 N    7.214076   -1.162586    3.607530
 C    7.753165   -0.157559    1.489857
 C    7.964087   -0.358496    2.848097
 C    6.212254   -1.796598    2.996727
 C    5.917765   -1.666955    1.641813
 C    6.702692   -0.825960    0.860699
 H   -2.091137    4.007816    2.221954
 H   -7.716631   -3.008395    1.407160
 H   -6.228167   -3.958621    1.368307
 H   -7.477536   -4.315852    2.581415
 H   -2.128441    1.702138   -2.651470
 H   -2.490188    0.376098   -3.757805
 H   -2.126497   -1.013457    1.554398
 H   -4.567864   -0.524718   -2.724160
 H   -6.825127   -0.704412   -2.194608
 H   -7.568570   -2.254405   -1.713637
 H   -6.111358   -2.252070   -2.742867
 H   -6.204368   -0.944785    1.540620
 H   -5.610164   -3.053641    3.652961
 H   -7.063350   -2.056738    3.634366
 H    1.298934   -1.774150   -3.099623
 H    3.627106   -2.456875   -2.927588
 H    4.200303    0.374924    0.272321
 H    1.900637    1.106541    0.020381
 H   -1.999638    1.609822    1.646960
 H    0.509914    2.510279   -1.716265
 H    0.390821    4.913528   -1.159580
 H   -0.123644   -0.113371    0.402505
 H   -5.776980    0.136792    3.750328
 H   -4.394848    0.370205    2.666132
 H   -4.311920   -0.851810    3.955145
 H    6.865065   -2.997145   -1.414220
 H    5.208405   -3.512093   -1.728057
 H    6.075338   -2.541283   -2.943218
 H    7.378973   -0.746765   -1.166715
 H    6.139629    0.424617   -0.788369
 H    8.403177    0.510452    0.930192
 H    8.780593    0.151268    3.355636
 H    5.606796   -2.446783    3.625077
 H    5.087430   -2.207071    1.198397
