74 
4zyi_ligand_ani.xyz
 C   -1.430676    4.592659    0.388553
 C   -2.270779    3.702532    1.043951
 C   -7.369074   -3.418873    2.005492
 C   -2.063634    0.309813   -2.701607
 C   -2.845296   -0.367322   -1.608417
 C   -2.270588   -0.395833   -0.348629
 C   -2.952647   -0.998468    0.711226
 C   -4.214983   -1.537023    0.527211
 C   -4.801338   -1.498337   -0.756659
 C   -4.116077   -0.916316   -1.812489
 C   -6.709235   -1.961247   -2.081656
 C   -5.930732   -1.352020    2.144393
 C   -6.815713   -2.323563    2.910237
 C    1.283143   -0.371259   -1.109481
 C    1.900594   -1.382618   -1.842002
 C    3.220140   -1.728655   -1.588095
 C    3.979567   -1.061641   -0.620121
 C    3.347566   -0.051519    0.118588
 C    2.019476    0.268433   -0.108187
Cl   -1.638078    6.304863    0.624378
 C   -2.100746    2.337371    0.848212
 C   -1.104362    1.838984    0.006587
 C   -0.267821    2.759407   -0.629346
 C   -0.425883    4.130084   -0.451066
 C   -0.938894    0.319960   -0.186183
 N   -0.074972   -0.023587   -1.328369
 C   -0.579868    0.022050   -2.618600
 O   -6.039821   -2.056208   -0.845164
 O   -4.875949   -2.137284    1.561215
 O    0.121960   -0.106699   -3.604750
 C   -5.342402   -0.260390    3.023626
 N    5.316753   -1.402012   -0.326961
 C    5.835223   -2.610949   -0.937522
 C    6.274091   -0.304119   -0.365861
 N    9.688824   -0.836585    2.235997
 C    8.698284    0.060061    0.237356
 C    9.765076   -0.127165    1.109481
 C    8.507401   -1.388535    2.517911
 C    7.380212   -1.266473    1.711871
 C    7.469275   -0.523754    0.537209
 H   -3.051422    4.075382    1.699096
 H   -7.919435   -2.991545    1.157475
 H   -6.555139   -4.023454    1.595890
 H   -8.049246   -4.076651    2.556141
 H   -2.159590    1.399700   -2.593116
 H   -2.411199    0.044039   -3.699275
 H   -2.514899   -1.037023    1.705884
 H   -4.566560   -0.880436   -2.799267
 H   -6.838041   -0.914238   -2.385051
 H   -7.688323   -2.417975   -1.928881
 H   -6.173752   -2.504565   -2.870988
 H   -6.512738   -0.900326    1.330081
 H   -6.227909   -2.764166    3.726855
 H   -7.634523   -1.756232    3.375338
 H    1.353055   -1.908949   -2.614713
 H    3.664447   -2.523178   -2.177641
 H    3.893656    0.450292    0.912110
 H    1.546803    1.046018    0.486003
 H   -2.770076    1.653210    1.366468
 H    0.524792    2.395428   -1.278500
 H    0.229035    4.833594   -0.956119
 H   -0.450420   -0.095133    0.701045
 H   -6.141362    0.313217    3.507439
 H   -4.736370    0.434437    2.431906
 H   -4.707467   -0.704329    3.798445
 H    6.825486   -2.823754   -0.525977
 H    5.182156   -3.457713   -0.703779
 H    5.937493   -2.534011   -2.035705
 H    6.629986   -0.122966   -1.395482
 H    5.762823    0.614097   -0.061950
 H    8.826893    0.655180   -0.663105
 H   10.734295    0.319836    0.889587
 H    8.458160   -1.966829    3.439262
 H    6.447172   -1.748461    1.985125
