74 
4zyi_ligand_xtb.xyz
 C   -1.017046    4.586172    1.073860
 C   -1.681789    3.567170    1.738094
 C   -5.647100   -4.649758    2.353010
 C   -2.036073    1.086018   -2.591932
 C   -2.730108    0.215100   -1.595872
 C   -2.037732   -0.080134   -0.432566
 C   -2.617650   -0.891164    0.524895
 C   -3.891048   -1.421826    0.350024
 C   -4.583522   -1.145543   -0.847667
 C   -3.989721   -0.324772   -1.798648
 C   -6.520593   -1.474528   -2.208009
 C   -5.684170   -2.187819    1.782634
 C   -5.807720   -3.234046    2.891941
 C    1.393054   -0.037276   -1.512806
 C    1.870095   -0.980610   -2.414519
 C    3.183707   -1.396407   -2.369406
 C    4.070682   -0.897659   -1.407775
 C    3.573222    0.040379   -0.494441
 C    2.263020    0.467559   -0.552642
Cl   -1.165882    6.214415    1.637401
 C   -1.558946    2.268418    1.282625
 C   -0.779134    1.972981    0.170037
 C   -0.121145    3.007184   -0.482544
 C   -0.236005    4.312222   -0.035720
 C   -0.665320    0.527029   -0.290730
 N    0.042408    0.386779   -1.553235
 C   -0.571514    0.682865   -2.729154
 O   -5.814111   -1.721304   -1.017096
 O   -4.324882   -2.238600    1.350549
 O   -0.016441    0.650102   -3.807740
 C   -6.031039   -0.787847    2.288762
 N    5.375884   -1.328290   -1.338237
 C    5.823156   -2.488050   -2.066560
 C    6.399759   -0.519524   -0.729460
 N    7.282735   -1.503907    3.359769
 C    7.817725   -0.348430    1.344227
 C    8.059276   -0.690425    2.663894
 C    6.224037   -2.011548    2.754137
 C    5.888111   -1.737568    1.437265
 C    6.702222   -0.882123    0.706720
 H   -2.288334    3.790438    2.601528
 H   -6.438314   -4.879109    1.642482
 H   -4.690355   -4.745414    1.847163
 H   -5.688879   -5.373395    3.163457
 H   -2.062933    2.128348   -2.256536
 H   -2.497178    1.034019   -3.578476
 H   -2.092456   -1.143272    1.433625
 H   -4.502572   -0.103194   -2.720875
 H   -6.752133   -0.411238   -2.327663
 H   -7.449408   -2.035710   -2.115649
 H   -5.969982   -1.831002   -3.083947
 H   -6.351687   -2.454249    0.955555
 H   -5.035709   -3.036164    3.637312
 H   -6.783242   -3.124321    3.368287
 H    1.210574   -1.377462   -3.168608
 H    3.521480   -2.110166   -3.102765
 H    4.207444    0.433707    0.284811
 H    1.920069    1.201328    0.162170
 H   -2.079415    1.473003    1.793783
 H    0.490048    2.802227   -1.348929
 H    0.278190    5.110512   -0.547280
 H   -0.100118   -0.031928    0.464870
 H   -7.062051   -0.758764    2.629918
 H   -5.905533   -0.056469    1.492770
 H   -5.375915   -0.517841    3.114600
 H    6.724359   -2.876282   -1.592087
 H    5.063793   -3.268890   -2.032604
 H    6.050389   -2.261636   -3.116297
 H    7.320947   -0.614592   -1.317008
 H    6.107365    0.536461   -0.771298
 H    8.482483    0.321072    0.818568
 H    8.916708   -0.296351    3.193767
 H    5.613461   -2.671374    3.356786
 H    5.011018   -2.177237    0.988950
