52 
4zyq_ligand_xtb.xyz
 C    6.027211    2.817573    0.171939
 C    4.710138    2.230654    0.681354
 C    4.911778    1.672308    2.095013
 C    3.630076    3.318662    0.681348
 C    4.289388    1.099015   -0.259153
 O    4.930617    0.772559   -1.244420
 N    3.142405    0.475390    0.072379
 C    2.550651   -0.572182   -0.747046
 C    3.290483   -1.899432   -0.477801
 O    2.860786   -2.828280    0.184062
 N    4.483482   -1.939441   -1.078336
 O    5.310332   -3.038901   -0.828905
 C    1.083410   -0.692788   -0.452972
 C    0.652514   -1.001505    0.832195
 C   -0.696091   -1.107786    1.110869
 C    0.140165   -0.498396   -1.452780
 C   -1.209062   -0.591806   -1.171456
 C   -1.646221   -0.895680    0.115285
 C   -3.082796   -0.982681    0.418176
 C   -3.964125   -0.035772   -0.092634
 C   -3.582199   -2.004325    1.223749
 C   -4.934568   -2.080234    1.501632
 C   -5.806969   -1.138940    0.985902
 C   -5.323607   -0.105368    0.188809
 C   -6.262197    0.893275   -0.369349
 N   -7.450455    0.694156   -0.796339
 N   -5.753224    2.150326   -0.519950
 O   -6.680829    3.131486   -0.904413
 H    6.342674    3.642821    0.805238
 H    5.909448    3.178443   -0.846309
 H    6.803734    2.057254    0.169980
 H    5.315837    2.449762    2.739692
 H    5.615085    0.842411    2.079428
 H    3.978491    1.325080    2.533702
 H    3.950691    4.152134    1.302548
 H    3.465687    3.687996   -0.328499
 H    2.682518    2.951278    1.070151
 H    2.649485    0.719085    0.915820
 H    2.718452   -0.303746   -1.797260
 H    4.964672   -1.119871   -1.446589
 H    4.745420   -3.634548   -0.297265
 H    1.375117   -1.181794    1.613748
 H   -1.018172   -1.339086    2.115494
 H    0.463998   -0.271262   -2.458054
 H   -1.931696   -0.448526   -1.961008
 H   -3.591043    0.762883   -0.716534
 H   -2.908535   -2.753330    1.612264
 H   -5.312767   -2.878536    2.122700
 H   -6.862139   -1.192579    1.213179
 H   -7.763314   -0.267496   -0.768811
 H   -5.114219    2.520166    0.169882
 H   -7.470002    2.595985   -1.136855
