47 
4zzd_ligand_ani.xyz
 N    0.825713   -2.458768   -0.403850
 C    1.513097   -3.595686   -0.088908
 O    1.030413   -4.709229   -0.071611
 N    2.877028   -3.425802    0.218142
 C    3.604926   -2.252275    0.358358
 O    4.780018   -2.269138    0.649469
 C    2.767867   -1.042898    0.118120
 N    3.270508    0.147705    0.305179
 C    2.454065    1.219781    0.109728
 C    2.954811    2.513559    0.372747
 C    2.166623    3.631409    0.255860
 C    2.737332    4.999021    0.545478
 C    0.805209    3.483860   -0.128272
 C   -0.087844    4.689453   -0.237110
 C    0.301500    2.224259   -0.410352
 C    1.120090    1.086355   -0.333206
 N    0.664843   -0.187559   -0.664033
 C    1.415694   -1.274371   -0.310342
 C   -0.621000   -0.407158   -1.331473
 C   -1.775219   -0.711242   -0.349154
 O   -1.897028   -2.091125   -0.086156
 C   -3.117428   -0.235509   -0.891883
 O   -3.089727    1.179178   -0.968457
 C   -4.301879   -0.671600   -0.024395
 O   -5.434965   -0.010557   -0.567334
 C   -4.136999   -0.254832    1.434486
 O   -5.423158   -0.370859    2.034856
 H    3.370521   -4.286361    0.409899
 H    3.993557    2.574940    0.688873
 H    2.186594    5.500544    1.348329
 H    2.689130    5.648412   -0.335393
 H    3.784368    4.926915    0.851200
 H   -0.198178    5.200097    0.726687
 H    0.309338    5.424643   -0.946162
 H   -1.085735    4.400464   -0.579444
 H   -0.753916    2.126618   -0.659874
 H   -0.512116   -1.252711   -2.016175
 H   -0.835466    0.480770   -1.926451
 H   -1.549597   -0.152916    0.576292
 H   -0.988074   -2.467608   -0.080239
 H   -3.264248   -0.669377   -1.895065
 H   -4.014617    1.434819   -1.111437
 H   -4.420201   -1.762871   -0.082465
 H   -6.075976    0.029010    0.160981
 H   -3.782142    0.785942    1.457066
 H   -3.404628   -0.898119    1.942267
 H   -5.444746    0.188836    2.818818
