51 
5a09_ligand_ani.xyz
 C    1.859457    0.585202    0.875737
 N    0.888365    1.365987    0.110756
 C   -0.353483    0.928110   -0.268646
 N   -0.770402   -0.277558    0.298409
 C   -0.125984   -0.816518    1.421134
 C    1.173142   -0.507146    1.649162
 C    3.011511    0.076715   -0.007414
 C    2.758412   -0.696539   -1.138398
 C    3.805578   -1.126964   -1.941754
 C    5.123329   -0.790650   -1.614260
 C    5.386403   -0.031790   -0.470084
 C    4.329700    0.390661    0.326035
 C    6.207959   -1.236112   -2.456047
 N    7.076066   -1.595483   -3.134077
 C    2.015369   -1.180235    2.670649
 O    2.899279   -0.562565    3.242726
 C    1.818446   -2.654017    2.987451
 C   -1.979225   -0.868905   -0.217029
 C   -3.166518   -0.147845   -0.202950
 C   -4.345538   -0.759427   -0.612809
 C   -4.342475   -2.073549   -1.073603
 C   -3.146892   -2.783256   -1.109750
 C   -1.969218   -2.188334   -0.672089
 C   -5.635713    0.011049   -0.604365
 F   -6.636505   -0.709424   -0.062165
 F   -6.028099    0.335209   -1.852158
 F   -5.538223    1.156966    0.091844
 C   -0.983070   -1.669566    2.309513
 O   -1.038165    1.554814   -1.058665
 C    1.313239    2.628666   -0.455641
 C    0.671998    3.846999    0.187212
 O    0.300239    3.621870    1.457446
 O    0.560228    4.914066   -0.361207
 H    2.327646    1.266511    1.599839
 H    1.738545   -0.967551   -1.397225
 H    3.609841   -1.723977   -2.827049
 H    6.410513    0.220969   -0.213593
 H    4.534021    0.959972    1.230622
 H    2.780449   -3.071344    3.290758
 H    1.427961   -3.211287    2.132894
 H    1.121522   -2.771475    3.824205
 H   -3.151353    0.886388    0.123193
 H   -5.271304   -2.531137   -1.398367
 H   -3.133770   -3.807776   -1.467350
 H   -1.032266   -2.739837   -0.670001
 H   -0.930156   -2.723755    2.009983
 H   -2.034601   -1.374542    2.226802
 H   -0.680434   -1.594830    3.355736
 H    1.096566    2.661879   -1.525070
 H    2.397552    2.722881   -0.332443
 H   -0.074686    4.458749    1.779040
