44 
5a0a_ligand_ani.xyz
 F   -6.526271   -0.039838    0.342266
 C   -5.519638   -0.659182   -0.303746
 F   -5.475854   -0.166111   -1.553754
 F   -5.866408   -1.957898   -0.400423
 C   -4.213247   -0.486233    0.419172
 C   -4.169639   -0.674430    1.798167
 C   -2.956888   -0.550982    2.468017
 C   -1.802428   -0.226899    1.765137
 C   -3.058604   -0.185471   -0.293927
 C   -1.854432   -0.042445    0.382726
 N   -0.670912    0.349796   -0.334477
 C   -0.268784   -0.457655   -1.399299
 O   -0.930157   -1.399565   -1.792969
 C    0.006943    1.534870   -0.015464
 C   -0.815062    2.582570    0.676622
 C    1.305248    1.671578   -0.378034
 C    2.187097    2.759302    0.118089
 O    3.070864    3.210330   -0.593113
 C    2.028713    3.290259    1.532361
 C    1.947628    0.713581   -1.343572
 N    0.924315   -0.106404   -1.975444
 C    3.056420   -0.132662   -0.717596
 C    4.394105    0.124601   -1.017018
 N    5.421411   -0.567913   -0.530827
 C    5.129397   -1.570079    0.305238
 C    6.247654   -2.328452    0.835008
 N    7.103394   -2.964058    1.285181
 C    3.830983   -1.910923    0.686943
 C    2.779258   -1.176721    0.162459
 H   -5.080604   -0.914161    2.336788
 H   -2.912133   -0.694684    3.542797
 H   -0.851156   -0.107495    2.277793
 H   -3.081186   -0.062849   -1.371218
 H   -0.736846    2.486270    1.766574
 H   -1.874981    2.465152    0.427082
 H   -0.498813    3.590274    0.399055
 H    1.325148    4.129137    1.548326
 H    1.663635    2.522099    2.218322
 H    2.999109    3.657319    1.870885
 H    2.444299    1.302790   -2.124131
 H    1.251489   -0.811386   -2.619945
 H    4.652835    0.944308   -1.687867
 H    3.659669   -2.732944    1.374292
 H    1.754876   -1.413028    0.438361
