70 
5a0b_ligand_ani.xyz
 C    0.598994    3.413619   -1.822215
 C    2.076546    3.357565   -1.369290
 N    2.182238    2.651290   -0.063978
 C    3.556920    2.166063    0.262444
 C    3.519300    1.366596    1.558860
 C    4.605346    3.275739    0.303866
 C    1.501338    3.449685    1.015436
 C    0.288273    4.202012    0.437973
 N   -0.303851    3.440439   -0.666979
 C   -1.110005    2.383299   -0.290230
 O   -1.413194    2.202761    0.878736
 C   -1.663665    1.446466   -1.370074
 N   -1.446088    0.048987   -0.991896
 C   -0.157112   -0.298261   -0.707796
 O    0.771482    0.487170   -0.872584
 C   -2.538930   -0.903746   -1.191101
 C   -3.843066   -0.446583   -0.521749
 C   -5.056695   -0.735939   -1.144681
 C   -6.264253   -0.392630   -0.553662
 C   -6.266092    0.254213    0.686363
 C   -7.516221    0.609439    1.314948
 N   -8.520685    0.893240    1.818201
 C   -5.053125    0.556714    1.311994
 C   -3.851395    0.212353    0.706110
 C   -2.112075   -2.277054   -0.752320
 C   -3.062529   -3.323605   -0.931894
 N   -3.833178   -4.176259   -1.086591
 C   -0.879661   -2.578111   -0.260029
 C   -0.462528   -3.946296    0.161908
 N    0.065665   -1.564707   -0.158738
 C    1.331165   -1.770562    0.513601
 C    2.511284   -1.796834   -0.221786
 C    1.367372   -1.930355    1.899771
 C    2.583928   -2.110418    2.547469
 C    3.770132   -2.111085    1.816206
 C    3.728506   -1.954937    0.433864
 C    4.998673   -1.858136   -0.364661
 F    5.304348   -0.573293   -0.651529
 F    4.891606   -2.500846   -1.542831
 F    6.054147   -2.378774    0.285619
 H    0.383052    2.537344   -2.428509
 H    0.438658    4.308401   -2.435664
 H    2.482024    4.372085   -1.276290
 H    2.677831    2.818092   -2.108546
 H    1.628986    1.780323   -0.180707
 H    3.815964    1.477758   -0.554638
 H    2.698770    0.638376    1.541369
 H    4.460439    0.825613    1.699191
 H    3.373870    2.023588    2.424100
 H    5.578571    2.851299    0.570379
 H    4.360278    4.037160    1.052493
 H    4.711284    3.765934   -0.668879
 H    1.159912    2.754142    1.786455
 H    2.205203    4.155606    1.469189
 H   -0.469637    4.356614    1.205813
 H    0.589318    5.178316    0.042954
 H   -2.744955    1.601517   -1.414534
 H   -1.255810    1.654458   -2.361875
 H   -2.787441   -0.954859   -2.264739
 H   -5.059417   -1.253947   -2.101780
 H   -7.204828   -0.626131   -1.042147
 H   -5.052224    1.071792    2.267272
 H   -2.916225    0.506307    1.173616
 H    0.588083   -4.125060   -0.092857
 H   -1.085434   -4.716027   -0.297227
 H   -0.543317   -4.056857    1.252168
 H    2.465971   -1.671308   -1.298621
 H    0.437610   -1.898820    2.461500
 H    2.609085   -2.236046    3.625330
 H    4.725920   -2.225093    2.318549
