70 
5a0b_ligand_dft.xyz
 C    0.836549    3.296255   -2.110302
 C    2.220762    3.242923   -1.417182
 N    2.051584    2.664363   -0.050956
 C    3.322929    2.085944    0.544743
 C    2.987662    1.350236    1.834922
 C    4.417946    3.127412    0.714179
 C    1.288899    3.616167    0.825545
 C    0.182680    4.288356   -0.010866
 N   -0.212481    3.407088   -1.101553
 C   -1.064987    2.377999   -0.751510
 O   -1.493822    2.278183    0.382962
 C   -1.546107    1.407628   -1.836306
 N   -1.399448    0.026929   -1.397499
 C   -0.195329   -0.330580   -0.912733
 O    0.754023    0.467696   -0.900843
 C   -2.584073   -0.837190   -1.446260
 C   -3.671331   -0.398923   -0.477430
 C   -4.986479   -0.288542   -0.923396
 C   -6.000616    0.066828   -0.041989
 C   -5.691385    0.318066    1.296354
 C   -6.727670    0.702484    2.215117
 N   -7.556418    1.018813    2.960198
 C   -4.371190    0.205378    1.749570
 C   -3.370678   -0.155956    0.863000
 C   -2.170472   -2.273312   -1.209199
 C   -3.146295   -3.255425   -1.549542
 N   -3.968723   -4.017552   -1.846382
 C   -0.980587   -2.622566   -0.686502
 C   -0.564989   -4.035340   -0.413080
 N   -0.030697   -1.617916   -0.431653
 C    1.138451   -1.867291    0.363735
 C    2.403057   -1.798785   -0.209803
 C    0.989284   -2.138048    1.721117
 C    2.115089   -2.366641    2.507407
 C    3.384554   -2.285363    1.947252
 C    3.522310   -1.988766    0.592453
 C    4.893647   -1.787803    0.003730
 F    5.287796   -0.497304    0.165558
 F    4.918367   -2.034471   -1.310654
 F    5.813682   -2.550715    0.594428
 H    0.698321    2.388901   -2.692028
 H    0.805475    4.153734   -2.789400
 H    2.666697    4.233591   -1.308631
 H    2.911702    2.609329   -1.975512
 H    1.447241    1.830960   -0.191783
 H    3.635989    1.347118   -0.198474
 H    2.158914    0.648351    1.691799
 H    3.862293    0.768338    2.133116
 H    2.746356    2.037397    2.651462
 H    5.321921    2.615335    1.053720
 H    4.164310    3.877010    1.469858
 H    4.665854    3.634498   -0.222364
 H    0.854931    3.028757    1.633798
 H    1.986525    4.348822    1.235325
 H   -0.677814    4.499538    0.621779
 H    0.531949    5.228224   -0.447110
 H   -2.615818    1.600788   -1.953620
 H   -1.073699    1.555064   -2.809635
 H   -2.988023   -0.765475   -2.464452
 H   -5.227609   -0.491757   -1.963330
 H   -7.025300    0.152376   -0.386255
 H   -4.142726    0.404487    2.790670
 H   -2.345771   -0.226038    1.212635
 H    0.407577   -4.242542   -0.869870
 H   -1.301532   -4.731141   -0.816481
 H   -0.472375   -4.222960    0.660667
 H    2.508519   -1.587349   -1.266897
 H   -0.004769   -2.172748    2.157335
 H    1.999562   -2.596282    3.561067
 H    4.264598   -2.453903    2.558442
