15 
5a1f_ligand_ani.xyz
 C   -2.282705    0.420671    0.071118
 C   -1.018172   -0.463778    0.034177
 C    1.348503   -0.525302    0.647551
 C    2.574206    0.075687   -0.035746
 O   -3.353094   -0.245839   -0.328252
 O   -2.267876    1.570787    0.429235
 O   -1.103836   -1.634322   -0.304604
 O    3.688408   -0.108541    0.374408
 N    0.118041    0.193553    0.364859
 O    2.333590    0.788611   -1.146431
 H    1.556905   -0.593304    1.718632
 H    1.214932   -1.540934    0.262369
 H   -3.044851   -1.151919   -0.539917
 H   -0.034789    1.099920    0.796273
 H    1.372991    0.822136   -1.288819
