89 
5a2i_ligand_ani.xyz
 N   -0.848607    1.327454   -1.406807
 C   -2.244545    1.633426   -0.994589
 C   -3.115790    0.671839   -1.823074
 O   -2.665630    0.255959   -2.885046
 C   -2.593049    3.088075   -1.311684
 N   -4.346107    0.309213   -1.381985
 C   -5.000164    0.726348   -0.147333
 C   -4.441472    0.119871    1.149021
 O   -4.892980    0.475608    2.228318
 C   -6.456560    0.273923   -0.360662
 C   -6.314589   -0.962819   -1.251224
 C   -5.171125   -0.588247   -2.196781
 N   -3.469174   -0.816310    1.014143
 C   -2.692338   -1.282860    2.136012
 C   -1.470858   -0.360108    2.377775
 O   -1.548697    0.854014    2.256713
 C   -2.354604   -2.763349    1.899912
 C   -1.402735   -2.941434    0.732554
 O   -0.297084   -3.583164    1.050848
 O   -1.630078   -2.498210   -0.388740
 N   -0.305021   -0.960604    2.782637
 C    0.937648   -0.226056    2.723168
 C    1.357615    0.065594    1.265790
 O    0.724886   -0.334759    0.293057
 C    2.020873   -1.032187    3.469985
 O    3.283744   -0.395790    3.474082
 N    2.499158    0.806139    1.126852
 C    3.307183    0.600404   -0.075175
 C    3.916577   -0.817468   -0.024102
 O    4.479896   -1.211118    0.997590
 C    4.423794    1.645663   -0.220866
 C    3.924973    3.055357   -0.552632
 C    3.420190    3.866413    0.649256
 N    2.564274    4.989359    0.285909
 C    1.323278    4.726309   -0.287769
 N    0.717701    3.595281   -0.314539
 N    0.769402    5.844774   -0.897983
 N    3.874269   -1.590080   -1.144042
 C    2.826598   -1.583361   -2.159722
 C    1.533723   -2.196055   -1.611861
 O    1.552986   -3.138802   -0.834045
 C    3.416511   -2.501377   -3.241925
 C    4.168775   -3.562166   -2.430676
 C    4.700261   -2.806198   -1.204702
 O    0.436118   -1.667182   -2.119207
 H   -0.268226    2.185431   -1.309979
 H   -0.448612    0.568862   -0.823587
 H   -0.909504    0.996288   -2.388815
 H   -2.325319    1.442308    0.078358
 H   -1.869161    3.748133   -0.821096
 H   -2.555471    3.269107   -2.393565
 H   -3.595111    3.351264   -0.958282
 H   -4.940950    1.812577   -0.007130
 H   -6.956829    0.084544    0.592148
 H   -7.003605    1.063799   -0.885243
 H   -7.236290   -1.207897   -1.785326
 H   -6.032496   -1.834204   -0.649313
 H   -4.572346   -1.441588   -2.529167
 H   -5.527558   -0.063962   -3.092967
 H   -3.182936   -1.139446    0.098872
 H   -3.327202   -1.183464    3.022574
 H   -3.288377   -3.273405    1.648721
 H   -1.947934   -3.235252    2.796208
 H    0.330460   -3.548769    0.279611
 H   -0.205455   -1.958476    2.660315
 H    0.807811    0.734572    3.235433
 H    2.099910   -2.038575    3.027716
 H    1.702723   -1.142154    4.511905
 H    3.819259   -0.800213    2.765978
 H    3.037033    0.865575    1.988324
 H    2.624683    0.687044   -0.924699
 H    5.082351    1.317059   -1.035313
 H    5.040495    1.646137    0.688794
 H    4.731382    3.615024   -1.042908
 H    3.119055    2.974308   -1.294092
 H    4.267700    4.260917    1.221280
 H    2.860644    3.225073    1.334072
 H    3.054930    5.733412   -0.197147
 H    1.225051    2.890457    0.214106
 H   -0.195044    5.692484   -1.158798
 H    0.880663    6.699141   -0.368263
 H    2.621361   -0.580418   -2.536611
 H    4.112951   -1.916244   -3.849908
 H    2.652157   -2.916944   -3.905089
 H    3.476847   -4.342826   -2.109204
 H    4.969473   -4.033022   -3.007189
 H    5.755521   -2.524189   -1.304220
 H    4.598791   -3.369814   -0.273079
 H   -0.340390   -1.998926   -1.603459
