89 
5a2i_ligand_dft.xyz
 N   -1.344444    1.613563   -1.146344
 C   -2.827325    1.603459   -1.117983
 C   -3.223242    0.341240   -1.897522
 O   -2.520183   -0.006447   -2.841681
 C   -3.374054    2.855329   -1.796464
 N   -4.321657   -0.332618   -1.505164
 C   -5.194051    0.002638   -0.376875
 C   -4.561872   -0.219775    1.005386
 O   -5.096794    0.231839    1.999895
 C   -6.405825   -0.921468   -0.596921
 C   -5.792581   -2.149474   -1.277348
 C   -4.750167   -1.545693   -2.219321
 N   -3.413661   -0.951274    1.027864
 C   -2.606481   -1.046348    2.217500
 C   -1.537198    0.075032    2.181083
 O   -1.800427    1.161248    1.689649
 C   -2.057172   -2.475188    2.371506
 C   -0.995265   -2.756389    1.331432
 O    0.166502   -3.070537    1.859835
 O   -1.199051   -2.637386    0.128234
 N   -0.319840   -0.189486    2.732989
 C    0.795636    0.693351    2.468933
 C    1.330352    0.437213    1.037440
 O    0.584633   -0.016930    0.163839
 C    1.834544    0.532097    3.581420
 O    2.812009    1.544777    3.414963
 N    2.607284    0.781541    0.806376
 C    3.292083    0.482108   -0.439882
 C    4.300060   -0.647125   -0.169101
 O    5.097606   -0.510190    0.747040
 C    4.081003    1.684770   -0.979932
 C    3.221073    2.911197   -1.307444
 C    3.090810    3.902654   -0.141901
 N    2.138788    4.972617   -0.404622
 C    0.802235    4.709377   -0.548947
 N    0.206779    3.624885   -0.158930
 N    0.073570    5.689025   -1.181092
 N    4.314385   -1.711830   -1.011136
 C    3.211882   -2.113715   -1.873283
 C    1.981284   -2.458552   -1.042675
 O    2.083986   -2.796427    0.130294
 C    3.761708   -3.375252   -2.568668
 C    4.647463   -4.007287   -1.489892
 C    5.273826   -2.804142   -0.779970
 O    0.855965   -2.381710   -1.708539
 H   -0.909820    2.538126   -0.839583
 H   -0.938119    0.909600   -0.507383
 H   -1.049879    1.354783   -2.095314
 H   -3.106950    1.570932   -0.066182
 H   -3.037307    3.750483   -1.266186
 H   -3.048946    2.907084   -2.840320
 H   -4.467261    2.845538   -1.780961
 H   -5.494867    1.053858   -0.397845
 H   -6.917038   -1.137059    0.342765
 H   -7.116959   -0.429275   -1.267649
 H   -6.530289   -2.751628   -1.810875
 H   -5.305474   -2.791079   -0.534889
 H   -3.889062   -2.191392   -2.404667
 H   -5.179555   -1.268695   -3.188167
 H   -3.002544   -1.287694    0.167457
 H   -3.267703   -0.820686    3.061135
 H   -2.888659   -3.170764    2.229988
 H   -1.650390   -2.642189    3.371406
 H    0.878674   -3.085096    1.150651
 H   -0.073365   -1.149955    2.932328
 H    0.416038    1.720697    2.491602
 H    2.289442   -0.468509    3.528967
 H    1.319832    0.633427    4.543806
 H    3.506704    1.419695    4.072887
 H    3.176669    1.049916    1.607574
 H    2.517330    0.203800   -1.154451
 H    4.597177    1.343464   -1.884234
 H    4.867984    1.935720   -0.258519
 H    3.654070    3.444590   -2.160794
 H    2.220013    2.590723   -1.621072
 H    4.056704    4.373378    0.061464
 H    2.806483    3.394935    0.785750
 H    2.495642    5.742982   -0.951820
 H    0.865335    2.987622    0.279438
 H   -0.919598    5.627022   -1.009750
 H    0.424264    6.634738   -1.126227
 H    2.943869   -1.347420   -2.604412
 H    4.359579   -3.061542   -3.429752
 H    2.965700   -4.030581   -2.929757
 H    4.035932   -4.581398   -0.787958
 H    5.399378   -4.678507   -1.909467
 H    6.243244   -2.527931   -1.207320
 H    5.407376   -2.955159    0.292611
 H    0.091593   -2.537758   -1.095514
