92 
5a2j_ligand_ani.xyz
 N   -0.402014   -1.721455   -1.807563
 C   -1.527225   -2.029701   -2.724690
 C   -2.772896   -1.281307   -2.218072
 O   -3.012997   -0.177513   -2.709383
 C   -1.670634   -3.525229   -2.975160
 N   -3.533215   -1.765470   -1.201066
 C   -4.481130   -0.845332   -0.542386
 C   -3.681360    0.203633    0.260009
 O   -3.279661   -0.045510    1.398549
 C   -5.309962   -1.762132    0.354153
 C   -4.349150   -2.901550    0.706714
 C   -3.476118   -3.075553   -0.540464
 N   -3.469428    1.379061   -0.389004
 C   -2.428996    2.338189   -0.045750
 C   -1.056386    1.830925   -0.544336
 O   -0.760356    0.639229   -0.490989
 C   -2.366923    2.697969    1.444710
 C   -1.748275    4.054520    1.664412
 O   -1.700651    4.379090    2.964029
 O   -1.343354    4.798218    0.795801
 N   -0.222018    2.783380   -1.020606
 C    0.894618    2.514967   -1.917805
 C    1.675568    1.265924   -1.478278
 O    1.742562    0.287015   -2.215428
 C    1.763826    3.775977   -2.005245
 O    0.870275    4.814281   -2.391068
 C    2.903264    3.616884   -2.997840
 N    2.265247    1.329209   -0.261786
 C    2.766198    0.172030    0.467651
 C    2.471269    0.474176    1.947044
 O    2.698717    1.598521    2.379198
 C    4.292061    0.003002    0.276741
 C    4.684307   -0.473651   -1.128031
 C    5.028406   -1.967998   -1.227096
 N    4.087137   -2.891955   -0.617036
 C    2.811024   -3.093992   -1.095339
 N    2.041940   -3.866709   -0.233306
 N    2.285345   -2.637919   -2.171703
 N    1.997375   -0.503922    2.769257
 C    1.282496   -1.708043    2.381047
 C   -0.113752   -1.462084    1.814015
 O   -0.619668   -2.257336    1.040462
 C    1.176657   -2.482420    3.707670
 C    1.049161   -1.373347    4.757274
 C    1.916839   -0.234388    4.210886
 O   -0.722543   -0.391691    2.289931
 H   -0.355884   -0.698240   -1.673808
 H   -0.546679   -2.128162   -0.871026
 H    0.531087   -2.035815   -2.169369
 H   -1.330395   -1.527462   -3.673579
 H   -2.592605   -3.736276   -3.523348
 H   -0.829525   -3.872153   -3.584791
 H   -1.671141   -4.110634   -2.052061
 H   -5.077702   -0.335875   -1.303786
 H   -6.174483   -2.135892   -0.205770
 H   -5.680053   -1.237126    1.237828
 H   -4.867982   -3.823482    0.981802
 H   -3.722689   -2.592524    1.546576
 H   -3.856450   -3.860695   -1.204999
 H   -2.450696   -3.318797   -0.254361
 H   -3.609922    1.301163   -1.392690
 H   -2.683868    3.250473   -0.592909
 H   -1.806553    1.951487    2.020612
 H   -3.379147    2.714237    1.858491
 H   -1.302719    5.264664    3.014177
 H   -0.507979    3.755349   -0.957792
 H    0.532051    2.278644   -2.928923
 H    2.163159    4.001245   -1.003345
 H    1.331588    5.655502   -2.294671
 H    3.521961    4.519383   -3.031328
 H    2.503859    3.431588   -4.000061
 H    3.543043    2.775230   -2.715224
 H    2.098190    2.137521    0.327147
 H    2.247726   -0.717851    0.092991
 H    4.744090    0.976558    0.494502
 H    4.678740   -0.693031    1.033413
 H    3.881016   -0.242425   -1.833433
 H    5.566855    0.080079   -1.471310
 H    5.993492   -2.154485   -0.743014
 H    5.154286   -2.241501   -2.282155
 H    4.185744   -3.012547    0.382282
 H    2.531130   -4.647077    0.184285
 H    1.165411   -4.145896   -0.655002
 H    2.915952   -2.040346   -2.692572
 H    1.821530   -2.285756    1.631758
 H    0.339044   -3.186047    3.709245
 H    2.099353   -3.051925    3.856340
 H    0.009604   -1.043660    4.828189
 H    1.369452   -1.701489    5.749564
 H    1.485587    0.758274    4.370391
 H    2.926338   -0.227379    4.639688
 H   -1.622329   -0.319642    1.881921
