43 
5a3h_ligand_xtb.xyz
 C    4.137258    0.857164    0.416661
 C    3.125321    1.552851   -0.491097
 C    1.686906    1.101785   -0.195722
 C    1.613441   -0.432800   -0.125923
 C    2.763939   -1.012826    0.716465
 C    2.805304   -2.543515    0.603123
 F    3.200182    2.918441   -0.296875
 O    0.829582    1.537166   -1.220879
 O    0.433692   -0.905949    0.498983
 O    4.022762   -0.534749    0.291179
 O    2.931396   -2.971358   -0.722955
 C   -0.776701   -0.521855   -0.071994
 C   -1.800007   -1.628836    0.223890
 C   -3.165244   -1.202434   -0.321733
 C   -3.545963    0.179891    0.225221
 C   -2.407316    1.167692   -0.051394
 C   -2.663017    2.539277    0.579530
 O   -1.440051   -2.838274   -0.395172
 O   -4.177568   -2.108817    0.041618
 O   -4.717293    0.654404   -0.378909
 O   -1.191714    0.690299    0.501727
 O   -1.580950    3.401355    0.356470
 H    5.157219    1.115893    0.126045
 H    3.965121    1.173286    1.456076
 H    3.355676    1.374067   -1.548497
 H    1.377859    1.508378    0.779394
 H    1.668218   -0.819042   -1.155412
 H    2.585310   -0.734399    1.766498
 H    3.640482   -2.908983    1.214952
 H    1.870557   -2.955737    0.984411
 H    0.806616    2.502782   -1.230177
 H    3.737820   -2.580148   -1.080711
 H   -0.674674   -0.404119   -1.166821
 H   -1.860239   -1.754708    1.316144
 H   -3.092386   -1.144790   -1.420683
 H   -3.684521    0.087995    1.314920
 H   -2.291783    1.283797   -1.139922
 H   -2.835670    2.405288    1.656411
 H   -3.544836    2.990161    0.124575
 H   -0.497927   -2.985900   -0.245437
 H   -3.854300   -2.994927   -0.161614
 H   -5.362266   -0.064244   -0.345262
 H   -0.790286    2.908397    0.608318
