17 
5a3w_ligand_ani.xyz
 O    2.700778   -1.677531   -0.421353
 C    2.586672   -0.421504    0.054276
 O    3.540207    0.161075    0.494260
 C    1.211772    0.186938   -0.008060
 C    1.103572    1.572292   -0.081549
 C   -0.163361    2.145120   -0.137271
 C    0.044300   -0.571683    0.050352
 C   -1.167845    0.097336    0.007593
 N   -1.284142    1.423196   -0.096809
 C   -2.455571   -0.687425    0.070908
 O   -3.553518    0.067536    0.004805
 O   -2.480448   -1.887452    0.172660
 H    1.877937   -1.944148   -0.854130
 H    2.000779    2.180791   -0.094328
 H   -0.281678    3.222949   -0.212149
 H    0.029759   -1.651736    0.169247
 H   -3.251193    0.994309   -0.071444
