21 
5a4l_ligand_dft.xyz
 N   -0.517402   -0.649536   -0.007605
 C    0.834333   -0.345140   -0.003760
 C    1.857092   -1.295607   -0.004554
 C    3.159665   -0.835363   -0.000344
 F    4.159259   -1.730089   -0.000871
 C    3.488183    0.520267    0.004497
 C    2.473249    1.467497    0.005085
 C    1.154074    1.026107    0.000949
 S   -0.325087    1.962139    0.001433
 C   -1.220224    0.431011   -0.005075
 N   -2.593361    0.502009   -0.006210
 C   -3.563800   -0.513193    0.001324
 O   -4.726794   -0.172165   -0.000487
 C   -3.105989   -1.944655    0.010727
 H    1.636217   -2.356061   -0.008291
 H    4.531635    0.813267    0.007845
 H    2.713088    2.525337    0.008933
 H   -3.015689    1.421582   -0.010973
 H   -2.469490   -2.145053    0.876070
 H   -3.995787   -2.573992    0.032024
 H   -2.501721   -2.164030   -0.873189
