21 
5a4l_ligand_xtb.xyz
 N   -0.518515   -0.634626   -0.007699
 C    0.815683   -0.351317   -0.003316
 C    1.837285   -1.293366   -0.007169
 C    3.134386   -0.826339   -0.002728
 F    4.142837   -1.720862   -0.007339
 C    3.455617    0.526620    0.006178
 C    2.444509    1.468140    0.009413
 C    1.133869    1.026528    0.003899
 S   -0.332288    1.964722    0.003481
 C   -1.236459    0.424293   -0.005638
 N   -2.590966    0.494365   -0.009906
 C   -3.537897   -0.526341   -0.000985
 O   -4.703511   -0.221104   -0.013208
 C   -3.006684   -1.921783    0.025720
 H    1.618151   -2.347577   -0.013946
 H    4.491678    0.823773    0.010010
 H    2.670457    2.522298    0.015965
 H   -2.992285    1.425811   -0.021320
 H   -3.839624   -2.618732    0.040408
 H   -2.383617   -2.097855   -0.847460
 H   -2.381090   -2.063461    0.903358
