21 
5a4q_ligand_xtb.xyz
 N   -0.750119    1.505921   -0.002600
 C    0.545222    1.084780   -0.002329
 C    1.673057    1.899931    0.003872
 C    2.923263    1.319717    0.005495
 C    3.058259   -0.067791    0.000996
Cl    4.640887   -0.759224    0.004728
 C    1.958873   -0.908318   -0.005098
 C    0.708909   -0.318507   -0.006631
 S   -0.849167   -1.090608   -0.010627
 C   -1.583399    0.529895   -0.005500
 N   -2.924103    0.761490   -0.006025
 C   -4.044166   -0.051958    0.004577
 O   -5.130264    0.473355    0.004872
 C   -3.824573   -1.534439    0.014572
 H    1.551464    2.970508    0.008190
 H    3.808349    1.935518    0.010939
 H    2.074601   -1.979759   -0.007607
 H   -3.147786    1.753639   -0.010204
 H   -4.793459   -2.026143    0.025591
 H   -3.273455   -1.844264   -0.871020
 H   -3.259127   -1.831551    0.895424
