21 
5a4q_ligand_dft.xyz
 N   -0.757439    1.519381    0.000077
 C    0.552519    1.076678    0.000033
 C    1.680939    1.900553   -0.000238
 C    2.941448    1.326381   -0.000300
 C    3.078169   -0.066492   -0.000088
Cl    4.681820   -0.762051   -0.000136
 C    1.979889   -0.913739    0.000186
 C    0.722710   -0.318273    0.000247
 S   -0.844694   -1.092716    0.000593
 C   -1.577140    0.520698    0.000198
 N   -2.935253    0.755966    0.000109
 C   -4.074992   -0.046841   -0.000145
 O   -5.157731    0.498451    0.000123
 C   -3.911972   -1.545683   -0.000943
 H    1.555820    2.977628   -0.000412
 H    3.828938    1.948996   -0.000520
 H    2.108829   -1.989950    0.000383
 H   -3.154437    1.746410    0.000644
 H   -4.910868   -1.981587   -0.002832
 H   -3.369893   -1.888461   -0.888100
 H   -3.372938   -1.889422    0.887687
