22 
5a4t_ligand_xtb.xyz
 N    0.610421    1.493081   -0.001230
 C   -0.681283    1.068382   -0.004715
 C   -1.809448    1.886189   -0.004092
 C   -3.056737    1.305560   -0.002967
 C   -3.199072   -0.090554   -0.002666
 C   -4.493096   -0.658986    0.006037
 N   -5.542929   -1.119190    0.016104
 C   -2.085518   -0.928248   -0.006285
 C   -0.839693   -0.337752   -0.006992
 S    0.723644   -1.103593   -0.005992
 C    1.448377    0.518751   -0.000449
 N    2.786205    0.755731    0.005734
 C    3.911377   -0.054533    0.004610
 O    4.993487    0.476866    0.009103
 C    3.698915   -1.537893   -0.001367
 H   -1.684485    2.956537   -0.003108
 H   -3.944263    1.920106   -0.001184
 H   -2.200833   -2.001018   -0.006958
 H    3.007558    1.748550    0.011202
 H    3.142053   -1.841838   -0.885504
 H    4.670734   -2.024203   -0.004253
 H    3.144221   -1.848417    0.881911
