23 
5a54_ligand_dft.xyz
 C    4.133467   -1.575465   -0.000267
 O    5.406205    0.452537    0.000334
 O   -4.277986   -1.742777   -0.000478
 O   -5.110377    0.254604    0.000674
 C   -2.666872    1.428096   -0.000193
 C   -1.397791    1.976533   -0.000277
 C   -1.743646   -0.838716    0.000087
 N    1.026963    1.544476   -0.000143
 N    3.188192    0.742697    0.000025
 S    1.073918   -1.070688    0.000154
 C    4.318625   -0.079948    0.000062
 C   -2.817933    0.038436   -0.000018
 C    1.831110    0.528265   -0.000024
 C   -0.285741    1.126504   -0.000148
 C   -0.479759   -0.269364    0.000008
 N   -4.170668   -0.525220    0.000058
 H    3.588470   -1.910794   -0.888499
 H    5.125832   -2.026003   -0.000774
 H    3.589260   -1.911184    0.888318
 H   -3.551072    2.052741   -0.000257
 H   -1.247866    3.050021   -0.000439
 H   -1.914281   -1.908032    0.000188
 H    3.424067    1.729626   -0.000204
