52 
5a5v_ligand_xtb.xyz
 C    3.407807   -0.339845    1.280139
 C    3.126412   -1.071232    0.139334
 C    1.885901   -1.705311    0.004635
 C    0.944587   -1.611457    1.026143
 C    1.248769   -0.883649    2.172316
 C    2.465553   -0.243657    2.290470
 C   -0.350749   -2.350118    0.933569
 O   -0.763928   -3.079140    1.808174
 N   -0.969087   -2.210371   -0.282609
 C   -2.262804   -2.823362   -0.513956
 C   -3.429541   -1.898877   -0.166570
 C   -3.562812   -0.739476   -1.151911
 C   -4.660062    0.244911   -0.744505
 C   -4.302622    1.118835    0.459661
 C   -3.435252    2.336210    0.123107
 N   -2.065101    2.030102   -0.221025
 C   -1.074864    2.099909    0.696536
 O   -1.285015    2.303884    1.876349
 C    0.314410    2.015159    0.146619
 C    0.688904    1.276306   -0.970333
 C    2.013279    1.323955   -1.421078
 C    2.951729    2.103304   -0.772671
 C    2.582928    2.824392    0.351034
 C    1.283401    2.770986    0.805538
 O    1.688163   -2.411548   -1.158403
 O    4.037558   -1.161040   -0.873399
 O   -0.188940    0.462120   -1.644927
 O    2.305579    0.558446   -2.523085
 H    4.368517    0.142162    1.360582
 H    0.511935   -0.825058    2.956970
 H    2.689515    0.329223    3.175747
 H   -0.794697   -1.347002   -0.784297
 H   -2.298967   -3.713879    0.117838
 H   -2.316782   -3.124357   -1.565323
 H   -3.272680   -1.523574    0.845365
 H   -4.351633   -2.483316   -0.166280
 H   -3.801272   -1.146050   -2.138850
 H   -2.613560   -0.211335   -1.230401
 H   -5.562549   -0.325149   -0.511490
 H   -4.895923    0.893615   -1.592201
 H   -3.792530    0.531692    1.222348
 H   -5.225586    1.499727    0.901045
 H   -3.391239    2.977540    1.008474
 H   -3.882908    2.896550   -0.702793
 H   -1.837047    1.843959   -1.183064
 H    3.968974    2.124437   -1.136206
 H    3.316282    3.423078    0.867337
 H    0.976118    3.316285    1.683739
 H    0.821892   -2.843410   -1.115739
 H    3.678901   -1.789531   -1.517201
 H    0.323660    0.054679   -2.361854
 H    3.263738    0.497918   -2.614430
