19 
5a5z_ligand_ani.xyz
 C   -2.792275   -1.114347   -0.641931
 N    0.405591   -0.401599    1.193451
 O    3.429698   -0.067405   -0.729615
 S   -2.001780    1.468965    0.096436
 C   -1.890656   -0.347101    0.313399
 O    1.692310    1.322991   -0.418271
 C   -0.440676   -0.812416    0.196029
 O   -0.056121   -1.512512   -0.724567
 C    1.819352   -0.597923    0.989781
 C    2.411251    0.213250   -0.152801
 H   -3.824606   -0.765727   -0.554274
 H   -2.459171   -0.985388   -1.674982
 H   -2.755080   -2.183340   -0.411537
 H    0.142350    0.432612    1.700805
 H   -1.399923    1.514447   -1.103298
 H   -2.223384   -0.500874    1.348481
 H    2.155492    1.777768   -1.140892
 H    2.032576   -1.647117    0.784378
 H    2.352028   -0.328007    1.906951
