31 
5a6i_ligand_dft.xyz
 O    0.948009   -2.788593   -0.649335
 C    0.856706   -1.622618   -0.306872
 C   -0.503926   -1.020390   -0.107458
 C   -1.562473   -1.895044    0.195553
 C   -2.849474   -1.423918    0.338803
 O   -3.859139   -2.262361    0.652075
 C   -0.757853    0.326096   -0.302396
 C   -2.066612    0.801778   -0.174778
 N   -2.308675    2.213099   -0.389629
 O   -3.471820    2.629905   -0.274640
 O   -1.374034    2.935919   -0.669792
 C   -3.127725   -0.052134    0.152581
 O   -4.409335    0.301107    0.308587
 C    2.081005   -0.793577   -0.096350
 C    3.232177   -1.130482   -0.816578
 C    4.407986   -0.420925   -0.632692
 C    4.479062    0.628998    0.290268
 C    5.756325    1.408541    0.466966
 C    3.336094    0.940922    1.027684
 C    2.147616    0.245084    0.835834
 H   -1.364134   -2.954580    0.314045
 H   -4.678196   -1.746555    0.693431
 H    0.022837    1.024386   -0.575258
 H   -4.466157    1.267500    0.141188
 H    3.185466   -1.957266   -1.517941
 H    5.291342   -0.686695   -1.207862
 H    6.630215    0.749991    0.441184
 H    5.875826    2.143034   -0.338283
 H    5.766209    1.952345    1.415851
 H    3.375230    1.737798    1.765572
 H    1.279185    0.496545    1.436926
