31 
5a6i_ligand_xtb.xyz
 O    0.936266   -2.837221   -0.816419
 C    0.846253   -1.699488   -0.404838
 C   -0.490661   -1.075028   -0.172441
 C   -1.555331   -1.899366    0.207287
 C   -2.820840   -1.383367    0.400846
 O   -3.835488   -2.179842    0.786948
 C   -0.713573    0.269391   -0.391266
 C   -1.993718    0.805653   -0.216507
 N   -2.176519    2.196562   -0.458929
 O   -3.306330    2.661251   -0.312382
 O   -1.223552    2.861457   -0.791056
 C   -3.064297   -0.005883    0.188775
 O   -4.321178    0.418326    0.391279
 C    2.030269   -0.860764   -0.123732
 C    3.193873   -1.076128   -0.863292
 C    4.321702   -0.319769   -0.627111
 C    4.331028    0.653750    0.368815
 C    5.559496    1.472608    0.609560
 C    3.180012    0.843473    1.125113
 C    2.039599    0.102276    0.883639
 H   -1.386772   -2.954583    0.352893
 H   -4.641150   -1.645545    0.857864
 H    0.074903    0.928115   -0.720554
 H   -4.358358    1.384956    0.195488
 H    3.185631   -1.836599   -1.629655
 H    5.212644   -0.483860   -1.215879
 H    6.431519    0.829755    0.716697
 H    5.738457    2.134290   -0.237781
 H    5.457062    2.079891    1.505008
 H    3.177118    1.581883    1.913769
 H    1.163971    0.249852    1.498600
