31 
5a6i_ligand_ani.xyz
 O    0.972832   -2.772360   -0.621750
 C    0.865730   -1.604931   -0.290564
 C   -0.501010   -1.003634   -0.124875
 C   -1.546155   -1.892209    0.173919
 C   -2.838291   -1.431865    0.321837
 O   -3.847311   -2.281568    0.627605
 C   -0.785794    0.341465   -0.324423
 C   -2.097333    0.797799   -0.183671
 N   -2.353186    2.213971   -0.379858
 O   -3.510520    2.623370   -0.234918
 O   -1.426446    2.937033   -0.676442
 C   -3.139706   -0.067327    0.148669
 O   -4.439537    0.252649    0.320647
 C    2.099359   -0.783549   -0.065187
 C    3.248061   -1.148999   -0.771863
 C    4.427861   -0.439920   -0.616923
 C    4.505617    0.639142    0.270389
 C    5.788748    1.412829    0.428381
 C    3.367828    0.972619    1.004868
 C    2.177268    0.272121    0.843815
 H   -1.332936   -2.949818    0.286096
 H   -4.655573   -1.748257    0.676782
 H   -0.027079    1.062084   -0.598393
 H   -4.534713    1.215771    0.179439
 H    3.191728   -2.000974   -1.443431
 H    5.309728   -0.726982   -1.187149
 H    6.617461    0.753019    0.709374
 H    6.070847    1.908910   -0.507599
 H    5.697996    2.182805    1.199720
 H    3.407121    1.798924    1.710554
 H    1.302480    0.552481    1.426235
