22 
5a6n_ligand_xtb.xyz
 O    6.751019  112.193286  100.930125
 S    7.942190  112.950990  100.691702
 O    9.202365  112.279907  100.560209
 N    7.711345  113.888461   99.314407
 C    8.096142  114.230361  101.924306
 C    6.965240  114.764457  102.507785
 C    7.106406  115.786143  103.436113
 C    8.365941  116.250708  103.767957
 C    9.504312  115.694189  103.180194
 C    9.360525  114.673147  102.242368
 C   10.804897  116.199178  103.561324
 N   12.013466  115.672907  103.215446
 N   12.953242  116.440273  103.773752
 N   12.362880  117.362368  104.406624
 N   11.048962  117.257825  104.308942
 H    8.428186  113.729667   98.625462
 H    6.791590  113.765325   98.923558
 H    6.000817  114.366829  102.236316
 H   10.198366  114.204433  101.750815
 H    6.234409  116.218030  103.902124
 H    8.498345  117.043886  104.487230
 H   12.242356  114.858627  102.668241
