58 
5a81_ligand_dft.xyz
 C    7.468510   -0.281167   -0.159101
 C    5.977876   -0.408433   -0.153894
 C    5.316337   -1.574353    0.015433
 C    3.872704   -1.648555    0.014525
 C    3.138182   -2.828339    0.220093
 C    1.761546   -2.768285    0.216415
 N    1.073620   -1.635127   -0.024365
 C    1.750516   -0.524056   -0.239425
 N    1.043232    0.677272   -0.508017
 C   -0.415130    0.598474   -0.512193
 C   -1.004487    1.880625   -1.111977
 C   -0.770162    3.105389   -0.232870
 N   -1.243277    2.819116    1.168832
 C   -0.534020    1.639086    1.777531
 C   -0.935432    0.437626    0.934956
 O   -2.344345    0.451079    0.963272
 C   -2.984253   -0.796185    0.676350
 C   -4.473074   -0.558931    0.492126
 C   -4.758004    0.426750   -0.649395
 C   -6.260388    0.617543   -0.875264
 C   -6.959576   -0.721704   -1.121185
 C   -6.689242   -1.701396    0.023290
 C   -5.186790   -1.896584    0.244441
 C    3.157763   -0.465984   -0.188780
 N    3.842954    0.718124   -0.348763
 C    5.226544    0.855075   -0.316487
 O    5.738657    1.956098   -0.409057
 H    7.810535    0.153471   -1.103892
 H    7.795115    0.401854    0.631356
 H    7.950552   -1.251053   -0.017158
 H    5.872080   -2.497858    0.158237
 H    3.649954   -3.769489    0.390570
 H    1.162956   -3.655838    0.395996
 H    1.377296    1.085495   -1.377920
 H   -0.762705   -0.262364   -1.095462
 H   -0.573795    2.082935   -2.098302
 H   -2.077650    1.734722   -1.263913
 H   -1.318301    3.978453   -0.591993
 H    0.289612    3.355275   -0.149414
 H   -1.147392    3.649564    1.756908
 H   -2.238642    2.554668    1.145061
 H    0.538792    1.830249    1.746181
 H   -0.884182    1.538116    2.805453
 H   -0.527061   -0.475811    1.378780
 H   -2.555560   -1.231908   -0.236338
 H   -2.792095   -1.491115    1.504994
 H   -4.864085   -0.128782    1.426125
 H   -4.296043    0.042069   -1.572135
 H   -4.286672    1.394899   -0.435582
 H   -6.428331    1.298195   -1.716964
 H   -6.698847    1.096508    0.011169
 H   -8.036632   -0.567749   -1.243166
 H   -6.593004   -1.153955   -2.062670
 H   -7.143871   -1.316939    0.946524
 H   -7.161601   -2.667594   -0.181202
 H   -4.751158   -2.373836   -0.645775
 H   -5.012245   -2.577510    1.086177
 H    3.336251    1.592633   -0.366717
