58 
5a82_ligand_ani.xyz
 O    5.862523   -2.552456   -0.132661
 C    5.563654   -1.368832   -0.097564
 C    6.540025   -0.267159   -0.192722
 C    7.972186   -0.682808   -0.279540
 N    4.241189   -0.977860    0.031877
 C    3.800804    0.334981    0.051399
 C    4.715894    1.364222   -0.114628
 C    6.107624    1.012993   -0.221305
 C    2.427657    0.641086    0.252918
 N    1.966964    1.877385    0.166873
 C    2.859361    2.871581   -0.037185
 C    4.210729    2.682590   -0.168277
 N    1.549648   -0.401171    0.521570
 C    0.151884   -0.098265    0.835017
 C   -0.627394    0.162024   -0.474700
 C   -0.726972   -1.123395   -1.290573
 N   -1.495361   -2.095564   -0.464586
 C   -0.718851   -2.491492    0.744184
 C   -0.480102   -1.255934    1.622767
 O   -1.982286    0.505589   -0.201117
 C   -2.231380    1.842283    0.170734
 C   -3.738308    2.040141    0.366808
 C   -4.271309    1.143347    1.517505
 C   -5.490937    0.292431    1.161834
 S   -5.193827   -0.728773   -0.285020
 O   -6.470431   -1.278826   -0.725710
 O   -4.089281   -1.641521    0.037823
 C   -4.620818    0.461383   -1.511990
 C   -4.516049    1.886430   -0.958921
 H    8.123388   -1.354575   -1.130184
 H    8.263079   -1.244978    0.613591
 H    8.636807    0.180001   -0.385776
 H    3.580959   -1.739647   -0.071880
 H    6.828842    1.822065   -0.327775
 H    2.438625    3.874575   -0.085058
 H    4.881573    3.524040   -0.315435
 H    1.945434   -1.120133    1.115884
 H    0.119970    0.822119    1.430995
 H   -0.133251    0.959807   -1.038347
 H    0.271463   -1.513894   -1.506236
 H   -1.241444   -0.936767   -2.236446
 H   -1.824554   -2.895483   -1.013755
 H   -2.336010   -1.581591   -0.140814
 H   -1.244671   -3.270160    1.303171
 H    0.243932   -2.908628    0.425406
 H    0.149597   -1.517480    2.480822
 H   -1.440701   -0.918590    2.037224
 H   -1.862982    2.521527   -0.614164
 H   -1.699884    2.086751    1.103235
 H   -3.859442    3.087540    0.668216
 H   -3.479346    0.470512    1.861466
 H   -4.540074    1.768427    2.375784
 H   -5.734094   -0.423334    1.952745
 H   -6.382645    0.889100    0.948485
 H   -5.349148    0.411840   -2.327623
 H   -3.661212    0.095393   -1.878168
 H   -5.524933    2.297557   -0.831029
 H   -4.035508    2.506917   -1.725395
