58 
5a82_ligand_dft.xyz
 O    5.828069   -2.502297   -0.062411
 C    5.499621   -1.330692   -0.013206
 C    6.434593   -0.192481   -0.147550
 C    7.877985   -0.553450   -0.302895
 N    4.166096   -0.980722    0.169703
 C    3.676258    0.306576    0.169696
 C    4.557867    1.374411   -0.010876
 C    5.963728    1.074054   -0.158208
 C    2.306598    0.580292    0.361373
 N    1.806701    1.799808    0.291868
 C    2.651371    2.826598    0.071354
 C    4.013635    2.669145   -0.056803
 N    1.435053   -0.510374    0.607076
 C    0.017364   -0.196004    0.751255
 C   -0.569698    0.106360   -0.644879
 C   -0.604176   -1.145207   -1.507200
 N   -1.416578   -2.192445   -0.808912
 C   -0.812040   -2.596602    0.502544
 C   -0.727456   -1.367953    1.399174
 O   -1.906629    0.538487   -0.546098
 C   -2.105737    1.920479   -0.280138
 C   -3.559640    2.126906    0.139551
 C   -3.876571    1.324162    1.434616
 C   -5.113829    0.428257    1.358015
 S   -5.054237   -0.707030   -0.029566
 O   -6.352213   -1.337205   -0.204817
 O   -3.874876   -1.583934    0.181959
 C   -4.706551    0.390958   -1.429586
 C   -4.559470    1.856492   -1.001500
 H    8.021058   -1.174718   -1.192785
 H    8.214938   -1.151361    0.549799
 H    8.503726    0.338214   -0.384738
 H    3.523150   -1.760996    0.160926
 H    6.652627    1.906214   -0.281526
 H    2.194358    3.809565    0.013031
 H    4.658782    3.528570   -0.205254
 H    1.768235   -1.054965    1.398519
 H   -0.122564    0.696517    1.373008
 H    0.053437    0.857094   -1.143453
 H    0.399469   -1.545548   -1.660487
 H   -1.077940   -0.940575   -2.468508
 H   -1.525334   -3.012344   -1.409108
 H   -2.383161   -1.832838   -0.606931
 H   -1.460287   -3.361139    0.933829
 H    0.168255   -3.029033    0.287830
 H   -0.249982   -1.652009    2.342842
 H   -1.746191   -1.053711    1.640964
 H   -1.872869    2.505632   -1.181191
 H   -1.431358    2.255624    0.518403
 H   -3.648533    3.195668    0.364297
 H   -3.019175    0.698652    1.695748
 H   -4.028533    2.008696    2.273905
 H   -5.212099   -0.208293    2.241994
 H   -6.044206    0.991487    1.244918
 H   -5.548452    0.260113   -2.113599
 H   -3.793293    0.017432   -1.891894
 H   -5.542184    2.246218   -0.714961
 H   -4.260912    2.426229   -1.888138
