51 
5a8y_ligand_ani.xyz
 C   -4.731998    0.276871   -0.973654
 C   -5.817223    0.485477   -0.134050
 C   -5.656421    0.346519    1.247477
 C   -6.776724    0.564966    2.130011
 N   -7.676166    0.741004    2.838728
 C   -4.409586   -0.006224    1.774739
 C   -3.334068   -0.212985    0.924751
 C   -3.487130   -0.067523   -0.451344
 C   -2.306300   -0.309764   -1.388943
 C   -1.840360   -1.740517   -1.428861
 C   -0.615274   -2.167597   -0.999841
 C   -0.134682   -3.570131   -1.166361
 C   -2.770549   -2.692373   -1.943037
 N   -3.508423   -3.477990   -2.371888
 N   -1.151426    0.514223   -1.053472
 N   -1.139381    1.875830   -1.146492
 C    0.078461    2.170967   -0.715024
 N    0.476153    3.493302   -0.664313
 C    1.696756    3.966448   -0.230388
 O    2.622095    3.300942    0.153226
 O    1.682905    5.316614   -0.307862
 C    2.893752    5.940317    0.127372
 N    0.848779    1.116741   -0.349461
 C    0.037474    0.093484   -0.581921
 N    0.262132   -1.252999   -0.405523
 C    1.414773   -1.676924    0.336787
 C    2.676900   -1.212220   -0.017819
 C    1.270678   -2.570250    1.399929
 C    2.390116   -3.008496    2.096573
 C    3.657662   -2.567582    1.732054
 C    3.789526   -1.670128    0.675049
 C    5.153575   -1.151852    0.316396
 F    5.647056   -0.347192    1.278244
 F    6.039155   -2.155308    0.163853
 F    5.142295   -0.443368   -0.826567
 H   -4.858930    0.376414   -2.050580
 H   -6.786743    0.755636   -0.541584
 H   -4.291447   -0.116524    2.848311
 H   -2.366274   -0.491056    1.334341
 H   -2.647838   -0.000186   -2.384088
 H   -0.357737   -4.174978   -0.277426
 H   -0.617947   -4.058302   -2.016333
 H    0.951591   -3.594550   -1.304597
 H   -0.210511    4.172067   -0.961791
 H    3.737157    5.605747   -0.481512
 H    2.731457    7.010511    0.007068
 H    3.096342    5.695045    1.172836
 H    2.778012   -0.477463   -0.812465
 H    0.275069   -2.911250    1.668843
 H    2.272932   -3.703895    2.921312
 H    4.540479   -2.908514    2.262571
