51 
5a8y_ligand_xtb.xyz
 C   -4.769008    0.213599   -0.892461
 C   -5.782382    0.380708    0.029466
 C   -5.467860    0.562414    1.376323
 C   -6.500335    0.739467    2.327140
 N   -7.335125    0.881567    3.099316
 C   -4.135400    0.568054    1.787920
 C   -3.130870    0.390605    0.857553
 C   -3.439435    0.220989   -0.487015
 C   -2.346255   -0.024975   -1.509701
 C   -2.020802   -1.509466   -1.538917
 C   -0.921467   -2.048758   -0.956643
 C   -0.673204   -3.523251   -0.972732
 C   -2.976148   -2.314626   -2.176871
 N   -3.778621   -2.938012   -2.712346
 N   -1.129427    0.659561   -1.182850
 N   -0.933481    1.991604   -1.298432
 C    0.275506    2.161383   -0.795690
 N    0.864321    3.394004   -0.735904
 C    2.105697    3.659030   -0.209629
 O    2.855906    2.871792    0.286108
 O    2.348944    4.981886   -0.341612
 C    3.604626    5.416076    0.164247
 N    0.865738    1.025992   -0.362248
 C   -0.041389    0.108604   -0.619705
 N    0.043291   -1.241105   -0.388375
 C    1.164893   -1.718584    0.331413
 C    2.442876   -1.323200   -0.046096
 C    0.983483   -2.535447    1.441521
 C    2.078945   -2.977776    2.161707
 C    3.356800   -2.601405    1.789993
 C    3.527391   -1.771113    0.688639
 C    4.928439   -1.381481    0.301924
 F    5.545847   -0.676750    1.261875
 F    5.699335   -2.472179    0.095611
 F    4.996034   -0.662101   -0.820613
 H   -5.009732    0.069862   -1.935180
 H   -6.815426    0.374975   -0.283577
 H   -3.897268    0.708992    2.831672
 H   -2.100069    0.396003    1.183012
 H   -2.692794    0.317292   -2.494484
 H   -1.009848   -3.985385   -0.045541
 H   -1.227977   -3.980633   -1.788471
 H    0.387575   -3.733481   -1.092953
 H    0.329438    4.162313   -1.113764
 H    4.418423    4.871465   -0.317834
 H    3.666694    6.477508   -0.060756
 H    3.659084    5.248554    1.241599
 H    2.584438   -0.660852   -0.883663
 H   -0.013389   -2.808895    1.752139
 H    1.933187   -3.609611    3.023702
 H    4.216459   -2.938620    2.347845
