48 
5a8z_ligand_xtb.xyz
 C    5.527328   -0.030020   -0.441709
 C    4.398482    0.245796   -1.189512
 C    3.175599   -0.315982   -0.844907
 C    3.088498   -1.157974    0.259131
 C    4.210868   -1.446281    1.009637
 C    5.436600   -0.878927    0.660816
 C    1.928058    0.006303   -1.652778
 N   -0.554690   -0.679328   -0.400556
 C    0.076618   -1.637105   -1.274918
 N    1.149187   -1.180516   -1.937806
 C   -1.815930   -1.080942    0.125643
 C   -1.895392   -2.190500    0.959884
 C   -3.125759   -2.596755    1.446773
 C   -4.277841   -1.894143    1.130664
 C   -4.187186   -0.794032    0.291975
 C   -2.966591   -0.395633   -0.234723
 C   -5.386971    0.043335   -0.066853
 F   -5.153939    1.337144    0.272327
 F   -6.500929   -0.323757    0.555958
 F   -5.632071    0.049266   -1.381304
 O   -0.399343   -2.730432   -1.398848
 C    6.586053   -1.161352    1.440339
 N    7.505178   -1.382285    2.085793
 C   -0.080821    0.590279   -0.293236
 C    1.078434    0.981867   -0.877890
 C    1.557256    2.347113   -0.793802
 N    0.817699    3.164491    0.095360
 N    0.072549    2.571584    1.140410
 C   -0.863825    1.595131    0.525917
 O    2.464914    2.834841   -1.410755
 C   -0.640281    3.599633    1.919217
 H    6.479621    0.401983   -0.707783
 H    4.463994    0.906949   -2.039518
 H    2.140613   -1.606221    0.523729
 H    4.149160   -2.107826    1.860415
 H    2.231153    0.470690   -2.599386
 H    1.576996   -1.860389   -2.551818
 H   -1.002638   -2.740601    1.209767
 H   -3.187430   -3.465872    2.081531
 H   -5.235799   -2.199679    1.520622
 H   -2.929762    0.423224   -0.937026
 H    1.255140    4.056971    0.299409
 H    0.695199    2.045160    1.784293
 H   -1.441428    1.095754    1.306990
 H   -1.545260    2.164385   -0.114909
 H    0.072266    4.275512    2.390509
 H   -1.246739    3.132847    2.693207
 H   -1.285839    4.171483    1.253545
