47 
5aad_ligand_xtb.xyz
Cl   -6.460337   28.535768   76.068146
 C   -5.471834   29.805152   76.708805
 C   -5.470774   30.112240   78.074811
 C   -6.276633   29.476583   79.090764
 C   -7.395535   28.660006   78.989591
 N   -7.779583   28.364226   80.240755
 C   -8.847666   27.483832   80.635770
 C   -8.397456   26.042743   80.583115
 C   -7.300415   25.646561   81.338474
 C   -6.856935   24.338054   81.289522
 C   -7.507258   23.413948   80.488003
 C   -8.599103   23.804245   79.732867
 C   -9.040520   25.116047   79.776706
 N   -6.979486   28.913415   81.154083
 C   -6.075893   29.593282   80.487497
 C   -4.572198   31.141017   78.409132
 N   -4.265095   31.720704   79.606976
 C   -3.368022   32.638378   79.348531
 C   -2.758774   33.489649   80.325270
 C   -1.838455   34.510731   80.132427
 N   -1.560678   35.020344   81.343382
 C   -0.667083   36.095855   81.660344
 N   -2.237389   34.399262   82.309472
 C   -2.970701   33.469450   81.731506
 C   -3.857705   32.563253   82.495570
 N   -3.055433   32.703964   78.009277
 C   -3.809826   31.754912   77.386162
 N   -3.837113   31.455721   76.098133
 C   -4.669315   30.477306   75.788122
 H   -4.705008   30.206217   74.742843
 H   -7.944244   28.300527   78.144685
 H   -5.311203   30.148747   80.987669
 H   -9.119840   27.754379   81.660131
 H   -9.706634   27.641696   79.978033
 H   -6.796567   26.375254   81.956901
 H   -9.891671   25.417701   79.182561
 H   -6.002731   24.037389   81.878018
 H   -7.162035   22.391301   80.450839
 H   -9.107096   23.087866   79.104145
 H   -2.399151   33.319672   77.562512
 H   -1.380517   34.898843   79.244152
 H   -0.671531   36.216953   82.741257
 H    0.346104   35.867490   81.324427
 H   -0.996848   37.024654   81.190581
 H   -3.870555   32.858102   83.540642
 H   -4.863144   32.593915   82.082039
 H   -3.500111   31.538645   82.410347
