37 
5ab9_ligand_ani.xyz
 C    4.710185   -0.925206    0.986061
 N    1.726481   -1.680390   -0.441187
 C    4.305708   -0.280307   -0.343661
 N   -4.437258    0.604965    0.278070
 C    2.991605    0.430593   -0.244540
 C    2.875961    1.799340   -0.069990
 C    1.620832    2.417842    0.081517
 C    0.455462    1.676982    0.058908
 C    0.534216    0.287407   -0.123483
 C   -0.391709   -0.801872   -0.212932
 C    0.409563   -1.926569   -0.401782
 C    1.817804   -0.329611   -0.272147
 C   -1.880414   -0.768823   -0.113663
 C   -2.362959   -0.323337    1.277496
 C   -3.885672   -0.292083    1.341121
 C   -4.044461    0.103162   -1.075919
 C   -2.526778    0.080800   -1.220561
 H    4.825317   -0.168100    1.769236
 H    3.943863   -1.636100    1.312041
 H    5.658044   -1.464521    0.887928
 H    4.205534   -1.064865   -1.102284
 H    5.085087    0.414996   -0.679709
 H   -3.964950    1.539875    0.399988
 H   -5.465326    0.694641    0.360193
 H    3.776630    2.409098   -0.051713
 H    1.570233    3.494947    0.216363
 H   -0.506067    2.170078    0.181079
 H    0.034055   -2.944313   -0.511717
 H   -2.227577   -1.803493   -0.258150
 H   -1.948982    0.669126    1.497737
 H   -1.972252   -1.003547    2.039815
 H   -4.263588   -1.302801    1.168741
 H   -4.240869    0.042480    2.313732
 H   -4.510481    0.724543   -1.838001
 H   -4.421973   -0.916072   -1.188300
 H   -2.253180   -0.318153   -2.201696
 H   -2.124136    1.100244   -1.172016
