46 
5abe_ligand_ani.xyz
 O    3.587038    0.744002   -0.895611
 C    2.861102    1.444587   -0.190262
 N    3.314432    2.611814    0.327390
 C    4.694356    3.027177    0.164937
 C    1.418924    1.076386    0.138621
 C    1.001244   -0.218864   -0.554096
 C    1.740869   -1.468148   -0.021011
 O    2.778810   -1.885256   -0.880673
 C    0.664488   -2.551781    0.020415
 O    0.433189   -2.982365   -1.310185
 C   -0.606917   -1.818284    0.432751
 C   -0.788526   -1.562371    1.915382
 O    0.305771   -0.826221    2.433796
 N   -0.484357   -0.561174   -0.432673
 C   -1.454336    0.530044   -0.173825
 C   -2.893809    0.082549   -0.400248
 C   -3.903808    1.209967   -0.202410
 C   -5.347611    0.764581   -0.425396
 C   -6.352598    1.899184   -0.240603
 H    2.727612    3.137900    0.954687
 H    4.758392    4.111798    0.283295
 H    5.035523    2.754453   -0.835675
 H    5.360212    2.547118    0.893497
 H    0.770139    1.900713   -0.184229
 H    1.292342    0.977815    1.222929
 H    1.221271   -0.131323   -1.624168
 H    2.127510   -1.283588    0.987958
 H    3.298639   -1.081937   -1.073560
 H    0.925568   -3.385676    0.686224
 H    1.309264   -2.981352   -1.731345
 H   -1.459926   -2.403560    0.079553
 H   -1.732940   -1.022714    2.074846
 H   -0.873368   -2.539311    2.413716
 H    0.146056   -0.669574    3.372091
 H   -0.726619   -0.930948   -1.373979
 H   -1.239825    1.367600   -0.850697
 H   -1.327778    0.907473    0.849487
 H   -2.978725   -0.309449   -1.425341
 H   -3.146720   -0.749217    0.270912
 H   -3.671690    2.037444   -0.889216
 H   -3.806135    1.618716    0.814777
 H   -5.583889   -0.052850    0.269467
 H   -5.444563    0.346787   -1.436809
 H   -7.380111    1.555929   -0.400004
 H   -6.157995    2.714872   -0.946923
 H   -6.291503    2.316980    0.771340
