46 
5abe_ligand_xtb.xyz
 O    3.484802    0.687842   -0.964466
 C    2.817632    1.412732   -0.249894
 N    3.277270    2.538338    0.304561
 C    4.629897    3.012970    0.109567
 C    1.348987    1.106664    0.089860
 C    0.935876   -0.183566   -0.607600
 C    1.768317   -1.414074   -0.140289
 O    2.635901   -1.879003   -1.119912
 C    0.707312   -2.504080    0.121064
 O    0.337305   -3.114420   -1.086156
 C   -0.527093   -1.728528    0.586830
 C   -0.556009   -1.351002    2.066387
 O    0.558831   -0.575036    2.436109
 N   -0.503385   -0.597731   -0.402746
 C   -1.488364    0.484611   -0.208727
 C   -2.925709   -0.012572   -0.336130
 C   -3.910301    1.156332   -0.252249
 C   -5.358502    0.687082   -0.382688
 C   -6.332895    1.852605   -0.273073
 H    2.675559    3.099042    0.887360
 H    4.622963    3.993931   -0.365520
 H    5.145391    2.303418   -0.533989
 H    5.149494    3.080487    1.065279
 H    0.747788    1.951146   -0.249554
 H    1.252713    1.001738    1.170288
 H    1.096554   -0.055957   -1.683313
 H    2.296279   -1.172638    0.789880
 H    3.283441   -1.171394   -1.297266
 H    1.052224   -3.242073    0.853285
 H    1.151934   -3.350667   -1.555448
 H   -1.415598   -2.333632    0.388070
 H   -1.486211   -0.810615    2.292415
 H   -0.576059   -2.297359    2.619106
 H    0.676526   -0.616114    3.391440
 H   -0.746558   -1.090633   -1.271844
 H   -1.310308    1.238119   -0.979433
 H   -1.321800    0.939061    0.768165
 H   -3.056845   -0.519313   -1.295190
 H   -3.161002   -0.724497    0.456091
 H   -3.695005    1.874077   -1.045995
 H   -3.785051    1.669619    0.703289
 H   -5.575936   -0.042063    0.400341
 H   -5.492543    0.191054   -1.345730
 H   -7.355107    1.500765   -0.376940
 H   -6.142907    2.586238   -1.052645
 H   -6.236718    2.343902    0.692203
