24 
5abp_ligand_ani.xyz
 C   -0.389228   -1.433890    0.496621
 C   -1.481163   -0.371303    0.509806
 C   -1.215447    0.668481   -0.574067
 C    0.177126    1.256822   -0.405924
 C    1.197912    0.125328   -0.377807
 C    2.608097    0.593030   -0.065629
 O   -0.520683   -2.138323   -0.720904
 O   -2.771653   -0.926790    0.346930
 O   -2.149885    1.724059   -0.454812
 O    0.251975    1.981891    0.799566
 O    0.879091   -0.847234    0.630007
 O    3.518227   -0.481310   -0.117919
 H   -0.511066   -2.121170    1.343776
 H   -1.478228    0.131801    1.480057
 H   -1.290773    0.191163   -1.564806
 H    0.397520    1.910764   -1.268616
 H    1.198473   -0.373552   -1.359758
 H    2.610020    1.091747    0.913884
 H    2.931145    1.320124   -0.818845
 H    0.191482   -2.790944   -0.761439
 H   -2.708139   -1.558602   -0.384588
 H   -3.002028    1.299934   -0.270121
 H   -0.557148    2.515070    0.831755
 H    3.178368   -1.145478    0.497760
