15 
5acw_ligand_xtb.xyz
 C    1.603474   -0.396143   -0.001075
 N    1.217526   -1.646155   -0.001209
 N   -0.110427   -1.666462   -0.001206
 C   -0.535149   -0.435772   -0.000932
 N    0.520262    0.442991   -0.000058
 S    3.266606    0.089861    0.002466
 C    0.500243    1.880069    0.000436
 C   -1.961001   -0.011669   -0.000055
 F   -2.253743    0.759410   -1.068819
 F   -2.802090   -1.032804   -0.006251
 F   -2.255219    0.747564    1.076887
 H    3.026852    1.404471   -0.031612
 H    1.021351    2.262579    0.880933
 H    0.976640    2.263730   -0.904735
 H   -0.527996    2.232396    0.026682
