70 
5acy_ligand_ani.xyz
 O    4.185004   -4.083894    1.032657
 C    4.836931   -3.134801    0.636513
 C    6.350014   -3.205311    0.567614
 N    4.243053   -1.946066    0.237850
 C    4.994949   -0.700539    0.028664
 C    5.043284   -0.325601   -1.451189
 C    2.837902   -1.859228    0.086123
 C    2.183947   -0.635823    0.310020
 C    2.917313    0.646594    0.667397
 N    2.655748    1.648568   -0.361571
 C    3.020373    2.988255   -0.213635
 C    3.029729    3.809607   -1.350781
 C    3.341154    5.157687   -1.245733
 C    3.649890    5.723079   -0.012417
 C    3.642056    4.913942    1.117965
 C    3.333262    3.560932    1.027191
 C    4.402079    0.374340    0.939485
 C    2.090624   -2.959133   -0.364616
 C    0.724057   -2.857463   -0.531582
 C    0.043079   -1.665676   -0.258289
 C    0.804001   -0.574882    0.158721
 C   -1.425151   -1.557943   -0.436409
 C   -1.995716   -0.392218   -0.960214
 C   -3.367133   -0.283612   -1.132317
 C   -4.215015   -1.338993   -0.793067
 C   -3.652976   -2.498834   -0.259588
 C   -2.279158   -2.608820   -0.087964
 C   -5.705935   -1.209703   -0.997895
 N   -6.268113   -0.001546   -0.322802
 C   -6.132411   -0.081713    1.188915
 C   -6.556912    1.235215    1.823207
 C   -7.986090    1.598345    1.418590
 C   -8.119755    1.625336   -0.104530
 C   -7.688713    0.293935   -0.704258
 H    6.638167   -4.245308    0.716844
 H    6.729157   -2.854291   -0.396768
 H    6.805567   -2.598760    1.358037
 H    6.013441   -0.871531    0.378792
 H    5.654839   -1.048405   -2.002565
 H    5.476504    0.671818   -1.586511
 H    4.044418   -0.340819   -1.897416
 H    2.463295    1.037362    1.586674
 H    2.788451    1.308366   -1.304040
 H    2.786811    3.383724   -2.322378
 H    3.343588    5.772050   -2.142889
 H    3.893478    6.778730    0.065855
 H    3.882371    5.336268    2.091140
 H    3.353643    2.950976    1.925740
 H    4.983464    1.299449    0.848799
 H    4.496557    0.025538    1.973675
 H    2.579938   -3.899659   -0.577196
 H    0.175146   -3.725514   -0.889592
 H    0.303480    0.364995    0.380575
 H   -1.348413    0.435060   -1.243730
 H   -3.789188    0.636860   -1.533691
 H   -4.300301   -3.325158    0.026688
 H   -1.863401   -3.516694    0.342984
 H   -6.217624   -2.097318   -0.606421
 H   -5.948946   -1.144046   -2.064155
 H   -5.700873    0.810245   -0.637553
 H   -5.095758   -0.334428    1.417458
 H   -6.769517   -0.902622    1.540433
 H   -5.866180    2.019943    1.486217
 H   -6.457965    1.166276    2.911468
 H   -8.280324    2.560286    1.852622
 H   -8.673911    0.841533    1.821193
 H   -9.145131    1.854855   -0.411690
 H   -7.472860    2.410399   -0.519245
 H   -7.771161    0.299088   -1.795766
 H   -8.323690   -0.516656   -0.324700
