58 
5adq_ligand_ani.xyz
 C    5.739943   -0.802767   -0.272942
 N    4.571454   -0.308568    0.238652
 O    5.859060   -1.817843   -0.943069
 C    6.928010    0.011763    0.050696
 N   -1.772048   -1.174022   -0.349526
 O    6.762455    1.145339    0.801318
 C    7.992888    1.695782    0.939426
 O   -1.013012   -3.267574   -0.798003
 C    8.929603    0.949757    0.302406
 O   -2.676192    4.836609   -0.790691
 C    8.233565   -0.153303   -0.279931
 O   -6.156754   -2.452742    1.220310
 C    3.263143   -0.795092    0.067972
 C    2.976981   -1.950659   -0.662391
 C    1.656623   -2.350966   -0.803103
 C    0.609253   -1.617501   -0.247273
 C    0.908124   -0.482909    0.509613
 C    2.223457   -0.073927    0.666804
 C   -0.785515   -2.107440   -0.486136
 C   -3.133903   -1.482234   -0.738610
 C   -4.160576   -0.624358    0.046717
 C   -3.780273    0.857248   -0.112225
 C   -3.279764    1.632489    0.931934
 C   -2.900373    2.962891    0.750620
 C   -3.016340    3.551824   -0.505045
 C   -2.155994    5.618027    0.263178
 C   -3.511527    2.792038   -1.568309
 C   -3.878161    1.471366   -1.368378
 C   -4.188907   -1.052055    1.533090
 C   -4.852486   -2.408309    1.756176
 C   -6.151160   -2.226401   -0.172945
 C   -5.583665   -0.852957   -0.520174
 H    4.654835    0.543941    0.776353
 H   -1.508958   -0.197988   -0.351166
 H    8.047708    2.610689    1.511691
 H    9.989131    1.158258    0.251148
 H    8.629952   -0.970042   -0.869520
 H    3.783228   -2.518311   -1.108521
 H    1.416296   -3.252518   -1.359281
 H    0.122714    0.079044    1.011156
 H    2.439107    0.818957    1.250355
 H   -3.275919   -2.548464   -0.554141
 H   -3.269731   -1.329958   -1.819753
 H   -3.165083    1.207522    1.925910
 H   -2.518826    3.519355    1.599312
 H   -2.883824    5.728041    1.078091
 H   -1.231114    5.183992    0.665947
 H   -1.940145    6.597817   -0.164948
 H   -3.596397    3.261638   -2.543322
 H   -4.248925    0.908600   -2.223973
 H   -4.766682   -0.306589    2.095272
 H   -3.169936   -1.078857    1.937229
 H   -4.240365   -3.219166    1.325807
 H   -4.957003   -2.607513    2.827283
 H   -7.192801   -2.303122   -0.499699
 H   -5.580750   -3.021398   -0.683580
 H   -5.587743   -0.722745   -1.607802
 H   -6.246766   -0.087203   -0.099659
