58 
5ads_ligand_xtb.xyz
 C   -2.936312    5.558653    0.503488
 O   -3.380266    4.756521   -0.562781
 C   -3.509058    3.415959   -0.355995
 C   -3.218583    2.754436    0.828451
 C   -3.383157    1.380882    0.919730
 C   -3.843348    0.625613   -0.148538
 C   -4.132946    1.305750   -1.332013
 C   -3.970850    2.668800   -1.439782
 C   -4.012303   -0.887717   -0.090484
 C   -3.041417   -1.504408   -1.126267
 N   -1.674062   -1.098125   -0.915130
 C   -0.758122   -1.927066   -0.372327
 O   -1.004101   -3.082985   -0.080567
 C    0.628867   -1.376312   -0.236171
 C    0.978665   -0.078780    0.129442
Cl   -0.211660    1.122864    0.535492
 C    2.304393    0.302287    0.226051
 C    3.326370   -0.605934   -0.047975
 N    4.635749   -0.152211    0.047754
 C    5.799960   -0.831128   -0.203876
 O    5.875882   -1.989942   -0.552225
 C    6.992204    0.007222   -0.009023
 C    8.316514   -0.314284   -0.167089
 C    9.045623    0.853047    0.142080
 C    8.119346    1.798918    0.465182
 O    6.877511    1.303829    0.378407
 C    2.994689   -1.915097   -0.392972
 C    1.667932   -2.277812   -0.471340
 C   -5.468558   -1.250063   -0.444691
 C   -5.765882   -2.734394   -0.212852
 O   -5.483695   -3.136449    1.103643
 C   -4.126790   -2.926607    1.428261
 C   -3.733421   -1.452566    1.311728
 H   -3.620386    5.507882    1.356951
 H   -1.929326    5.276222    0.828080
 H   -2.917030    6.577099    0.118709
 H   -2.857111    3.290137    1.692358
 H   -3.132367    0.912027    1.857207
 H   -4.495359    0.765481   -2.193638
 H   -4.196959    3.184738   -2.359614
 H   -3.342071   -1.206262   -2.134643
 H   -3.049734   -2.592793   -1.062776
 H   -1.451305   -0.129507   -1.081151
 H    2.543481    1.314064    0.518815
 H    4.740064    0.815258    0.325319
 H    8.698005   -1.268043   -0.466514
 H   10.108945    0.973623    0.126474
 H    8.217275    2.824534    0.762832
 H    3.775288   -2.629480   -0.592018
 H    1.396552   -3.292046   -0.721227
 H   -5.690162   -1.006374   -1.483792
 H   -6.130075   -0.659265    0.192857
 H   -5.196233   -3.350592   -0.925547
 H   -6.830944   -2.929502   -0.361001
 H   -3.478173   -3.549371    0.797407
 H   -4.017521   -3.258419    2.463006
 H   -4.327456   -0.894633    2.038207
 H   -2.676534   -1.355317    1.562026
