60 
5adt_ligand_xtb.xyz
 C    8.100196    2.933621    0.966649
 C    7.850999    1.552880    0.500506
 O    6.589176    1.092592    0.404543
 N    8.744977    0.679268    0.154204
 C    8.053003   -0.436097   -0.195602
 C    6.714069   -0.192628   -0.044688
 C    5.545643   -1.050269   -0.281477
 O    5.658180   -2.189146   -0.679981
 N    4.364927   -0.414107   -0.005086
 C    3.068769   -0.907134   -0.112347
 C    2.019116   -0.036373    0.177132
 C    0.707297   -0.462545    0.077606
Cl   -0.534125    0.681791    0.495720
 C    2.782738   -2.220913   -0.478688
 C    1.469039   -2.630768   -0.556178
 C    0.404401   -1.767369   -0.302937
 C   -0.973996   -2.346416   -0.409879
 O   -1.218900   -3.471069   -0.018261
 N   -1.877990   -1.569066   -1.041441
 C   -3.263861   -1.946476   -1.168434
 C   -4.161142   -1.194569   -0.158421
 C   -3.827419   -1.703084    1.258318
 C   -5.044828   -1.576770    2.192727
 O   -5.916944   -0.543383    1.799191
 C   -6.541653   -0.803266    0.561066
 C   -5.633536   -1.544097   -0.430973
 C   -3.964717    0.305839   -0.328825
 C   -3.738803    1.168271    0.733518
 C   -3.552952    2.528055    0.543415
 C   -3.590227    3.068409   -0.734102
 O   -3.408013    4.384530   -1.040716
 C   -3.178620    5.289223    0.010727
 C   -3.840595    2.216899   -1.809398
 C   -4.028400    0.867822   -1.604307
 H    7.579687    3.646408    0.329108
 H    7.735334    3.058368    1.985190
 H    9.167576    3.124961    0.936594
 H    8.540147   -1.328281   -0.527706
 H    4.437931    0.545562    0.307807
 H    2.224108    0.978302    0.485112
 H    3.587234   -2.903956   -0.692047
 H    1.234059   -3.650791   -0.818368
 H   -1.647940   -0.615739   -1.275303
 H   -3.316927   -3.021943   -0.984862
 H   -3.589020   -1.753913   -2.193931
 H   -2.971005   -1.160287    1.656713
 H   -3.537748   -2.752984    1.202442
 H   -4.734259   -1.327246    3.209587
 H   -5.593956   -2.529406    2.228038
 H   -6.820084    0.178779    0.169820
 H   -7.460986   -1.388218    0.725880
 H   -5.758188   -2.623711   -0.324852
 H   -5.916519   -1.270045   -1.447142
 H   -3.723857    0.801317    1.745748
 H   -3.381240    3.151214    1.407150
 H   -4.020826    5.315545    0.709863
 H   -2.260942    5.047203    0.557265
 H   -3.070270    6.266047   -0.458256
 H   -3.886572    2.639533   -2.800839
 H   -4.234123    0.248492   -2.464647
