39 
5aep_ligand_ani.xyz
Cl    4.491170   -2.645056   -1.660586
 C    3.804766   -1.585661   -0.463818
 C    2.583904   -0.971682   -0.709185
 C    4.478260   -1.368297    0.729937
 C    3.904568   -0.529479    1.680929
 C    2.683657    0.112870    1.474850
 C    2.098932    0.997416    2.546908
 C    2.051892   -0.099823    0.235756
 N    0.805864    0.529689   -0.077711
 C    0.486448    1.882562   -0.218656
 C    1.411779    3.033810   -0.321895
 N    2.756790    2.793661   -0.385029
 O    0.959980    4.167959   -0.323423
 C   -0.874320    1.980118   -0.312253
 C   -0.358842   -0.181729   -0.134640
 C   -1.433153    0.677989   -0.251416
 C   -2.860023    0.403505   -0.316285
 N   -3.653040    1.324105   -0.839366
 C   -4.973054    1.011234   -0.944672
 N   -5.585302   -0.088135   -0.566923
 N   -4.775246   -0.983200    0.001815
 C   -3.401632   -0.811763    0.181577
 C   -5.171767   -2.183115    0.511965
 C   -4.063672   -2.798923    1.045269
 C   -2.950798   -1.951436    0.855180
 H    2.054936   -1.143839   -1.642815
 H    5.430590   -1.855924    0.915716
 H    4.417160   -0.373166    2.628227
 H    2.568195    0.786131    3.511495
 H    2.271208    2.056472    2.322770
 H    1.019819    0.844288    2.641729
 H    3.319249    3.609479   -0.581509
 H    3.124560    1.902329   -0.683901
 H   -1.427332    2.906293   -0.426671
 H   -0.316203   -1.261698   -0.118433
 H   -5.623489    1.753262   -1.396438
 H   -6.210785   -2.469459    0.443064
 H   -4.061232   -3.762640    1.531316
 H   -1.941540   -2.107678    1.205977
