28 
5afk_ligand_dft.xyz
 O    1.007154   -1.958898    0.021887
 C    1.220705   -0.753483    0.024139
 N    0.220458    0.205148    0.012765
 C   -1.159875   -0.021447    0.008184
 C   -1.786828   -1.269208    0.059500
 C   -3.176719   -1.361451    0.055570
 C   -3.942349   -0.210133    0.000219
 F   -5.281849   -0.300794   -0.003831
 C   -3.360108    1.048192   -0.052257
 C   -1.981527    1.108540   -0.046480
 F   -1.376491    2.317603   -0.096502
 N    2.486515   -0.240315    0.035896
 C    3.634711   -1.141025   -0.024122
 C    4.789066   -0.199554   -0.371845
 C    4.383041    1.114457    0.305441
 C    2.864956    1.166607    0.092832
 H    0.481336    1.176226   -0.049981
 H   -1.171962   -2.157133    0.098671
 H   -3.665396   -2.328205    0.094815
 H   -3.956407    1.951092   -0.095840
 H    3.465098   -1.921419   -0.769116
 H    3.789279   -1.633724    0.944602
 H    4.845904   -0.061515   -1.457443
 H    5.754921   -0.576550   -0.027071
 H    4.888673    1.991588   -0.105523
 H    4.603100    1.067028    1.377440
 H    2.359121    1.686528    0.915912
 H    2.614909    1.683192   -0.846283
