28 
5afk_ligand_ani.xyz
 O    1.025931   -1.939623    0.006263
 C    1.218370   -0.730252   -0.002914
 N    0.208618    0.215997    0.001474
 C   -1.171507   -0.022201    0.005012
 C   -1.790582   -1.269303    0.080976
 C   -3.179005   -1.362217    0.086041
 C   -3.943500   -0.211472    0.015671
 F   -5.282162   -0.313946    0.021868
 C   -3.368827    1.049644   -0.061184
 C   -1.991753    1.107820   -0.064240
 F   -1.377301    2.310142   -0.136281
 N    2.485451   -0.219484   -0.025085
 C    3.616704   -1.140564   -0.078345
 C    4.805120   -0.213812   -0.330777
 C    4.395216    1.083287    0.372452
 C    2.886601    1.173479    0.118266
 H    0.447011    1.190703   -0.100532
 H   -1.177646   -2.158377    0.133570
 H   -3.671133   -2.327560    0.144046
 H   -3.970364    1.950051   -0.116209
 H    3.460840   -1.881793   -0.866208
 H    3.706492   -1.686263    0.869542
 H    4.920066   -0.043329   -1.407604
 H    5.745675   -0.626295    0.045137
 H    4.927157    1.962123   -0.000977
 H    4.583992    1.009467    1.449302
 H    2.363702    1.663944    0.948773
 H    2.672430    1.736506   -0.799721
