29 
5afn_ligand_xtb.xyz
 O    4.563836   -0.642410   -0.617266
 C    3.460875   -0.175971   -0.460761
 C    2.151278   -0.670842   -1.056530
 C    1.058604    0.035094   -0.245295
 C    0.568636   -0.853761    0.901274
 C   -0.641664   -0.274947    1.647654
 C   -1.819433   -0.099397    0.731111
 C   -2.164867    1.154323    0.243500
 C   -3.229274    1.305795   -0.628140
 C   -3.963793    0.201979   -1.024787
 C   -3.630574   -1.052226   -0.541700
 C   -2.566138   -1.200126    0.328777
 C    1.775473    1.297139    0.268821
 N    3.163120    0.907926    0.285656
 H    2.091126   -1.756262   -1.011047
 H    2.129615   -0.375207   -2.107074
 H    0.204533    0.300545   -0.871815
 H    0.283789   -1.823500    0.488018
 H    1.387884   -1.016326    1.605007
 H   -0.381706    0.684332    2.098047
 H   -0.906793   -0.962253    2.454279
 H   -1.596494    2.021015    0.551824
 H   -3.485424    2.287973   -0.998294
 H   -4.794322    0.318670   -1.705127
 H   -4.203303   -1.917023   -0.843428
 H   -2.312917   -2.180911    0.705866
 H    1.446830    1.587555    1.268994
 H    1.615672    2.146760   -0.408409
 H    3.874234    1.466068    0.728149
