176 
5ah2_ligand_ani.xyz
 C  -10.129257   -1.496640    0.134846
 O  -10.963672   -1.928591    0.916617
 C  -10.260575   -1.748976   -1.355906
 N   -9.048856   -0.785345    0.592404
 C   -9.002364   -0.623059    2.042962
 C   -8.067538   -0.153149   -0.275660
 C   -8.146320    1.398795   -0.364099
 C   -9.486509    1.859621   -0.940312
 C   -7.843727    2.121622    0.951070
 C   -6.629886   -0.603619    0.069060
 O   -6.249516   -0.773218    1.219038
 C   -3.570407   -0.338965   -0.003800
 N   -5.779745   -0.823467   -0.979403
 O   -3.669670    0.852461   -0.240618
 C   -4.457277   -1.368949   -0.709211
 C   -3.880738   -1.673421   -2.116448
 C   -5.856308   -0.367446   -2.363456
 C   -5.849598   -2.678640   -3.391507
 C   -5.033759   -1.420573   -3.109474
 N   -2.626996   -0.823249    0.883802
 O   -0.000158    0.200816    0.073211
 O   -0.199881   -1.124595    2.846493
 C   -0.782130    0.848547    0.759886
 C   -1.903568    0.216059    1.607016
 C   -1.356404   -0.276194    2.951746
 C   -2.397440   -0.834685    3.883396
 C   -1.967259   -2.118701    0.717032
 N   -0.698840    2.195971    0.855626
 C    0.365738    2.939458    0.218010
 C    0.632067    4.206490    1.049531
 O   -0.177793    4.603172    1.878597
 C    0.072709    3.225094   -1.275641
 C   -1.349614    3.673790   -1.643286
 C   -1.491500    3.683371   -3.167295
 C   -1.721037    5.039312   -1.065981
 C    3.565918    3.195785    1.129933
 N    1.789908    4.879268    0.807926
 O    3.233060    3.088472    2.298156
 C    2.996308    4.301830    0.227303
 C    3.956516    5.502883    0.201538
 C    2.076290    6.100488    1.566981
 C    4.096863    7.685624    1.548094
 C    3.602351    6.245640    1.492307
 N    4.543385    2.380140    0.603694
 C    4.658899    1.950517   -0.783083
 C    3.661741    0.787852   -1.022251
 O    3.615012   -0.084635   -0.158851
 C    6.095684    1.444070   -1.005974
 C    6.491385    1.119142   -2.452115
 C    7.826547    0.367565   -2.460724
 C    6.592532    2.377667   -3.319705
 N    2.881135    0.718132   -2.147827
 C    3.047052    1.631190   -3.268765
 C    2.266495   -0.601153   -2.391244
 C    0.969136   -0.543412   -3.240003
 C    1.173684   -0.690009   -4.752316
 C   -0.049646   -1.583843   -2.761015
 C    3.304936   -1.579322   -2.979868
 O    4.124649   -1.215497   -3.812772
 N    3.231053   -2.891938   -2.607662
 C    2.613863   -3.472710   -1.421697
 C    3.511987   -3.296961   -0.178204
 O    4.727086   -3.247148   -0.298323
 C    2.529378   -4.960351   -1.813543
 C    3.838619   -5.183739   -2.578179
 C    4.070944   -3.862653   -3.323596
 N    2.892839   -3.259834    1.052819
 C    1.529514   -3.714391    1.303353
 C    3.709230   -2.889583    2.217101
 C    2.967791   -1.863252    3.101040
 O    2.783085   -2.073475    4.302666
 C    4.200751   -4.057306    3.088430
 C    5.188022   -5.024435    2.415112
 C    4.483014   -6.157378    1.668624
 C    6.140429   -5.614760    3.462635
 N    2.541548   -0.762396    2.452977
 C    1.783256    0.325336    3.038183
 C    0.502685   -0.177786    3.702429
 O    0.649740   -0.614586    4.995129
 O   -0.578179    0.734407    3.585422
 H  -11.157756   -2.349087   -1.504214
 H  -10.365166   -0.809878   -1.907657
 H   -9.395265   -2.290234   -1.753156
 H   -8.071618   -0.139422    2.331064
 H   -9.869219   -0.045753    2.389316
 H   -9.052679   -1.608629    2.513816
 H   -8.277727   -0.526468   -1.276917
 H   -7.355529    1.676354   -1.076840
 H   -9.497507    2.950001   -1.044760
 H  -10.317928    1.581175   -0.282512
 H   -9.677071    1.433365   -1.932787
 H   -8.675919    2.034559    1.660773
 H   -6.943342    1.726940    1.434911
 H   -7.693643    3.190301    0.764141
 H   -4.547571   -2.259761   -0.080371
 H   -3.051637   -0.982831   -2.317895
 H   -3.489349   -2.694113   -2.184759
 H   -6.890248   -0.311659   -2.712167
 H   -5.388306    0.623575   -2.456787
 H   -6.689263   -2.455483   -4.059237
 H   -6.257011   -3.103892   -2.467708
 H   -5.232837   -3.443862   -3.874394
 H   -4.658358   -1.017036   -4.055849
 H   -2.644182    0.992777    1.835866
 H   -1.889753   -1.165634    4.788143
 H   -3.111079   -0.047236    4.141562
 H   -2.929433   -1.677154    3.432750
 H   -2.018292   -2.704500    1.641028
 H   -2.433284   -2.676383   -0.096949
 H   -0.910638   -1.963212    0.470446
 H   -1.262526    2.707460    1.520363
 H    1.252704    2.298025    0.240646
 H    0.276103    2.286391   -1.806352
 H    0.801537    3.956896   -1.653817
 H   -2.050815    2.927660   -1.242767
 H   -2.508491    3.963103   -3.464994
 H   -0.796303    4.400909   -3.623182
 H   -1.278607    2.694762   -3.590858
 H   -1.742472    5.028783    0.028444
 H   -1.004177    5.808478   -1.383630
 H   -2.714294    5.341168   -1.417884
 H    2.797176    3.916059   -0.777792
 H    5.007620    5.204611    0.147203
 H    3.725876    6.128466   -0.669284
 H    1.552870    6.952727    1.111662
 H    1.702071    5.996171    2.589794
 H    3.796260    8.174833    2.481521
 H    3.685518    8.270200    0.715537
 H    5.189373    7.733536    1.480450
 H    4.023060    5.675495    2.330329
 H    4.774585    1.641152    1.260309
 H    4.463345    2.807234   -1.426968
 H    6.777247    2.202751   -0.599213
 H    6.215936    0.544740   -0.386052
 H    5.733878    0.446872   -2.883837
 H    8.620149    0.979635   -2.012483
 H    8.132309    0.117342   -3.482976
 H    7.759716   -0.566757   -1.891538
 H    7.365241    3.053952   -2.930382
 H    5.654914    2.943000   -3.360972
 H    6.863351    2.115409   -4.349294
 H    3.195251    2.653277   -2.914173
 H    2.134665    1.637755   -3.868685
 H    3.883529    1.334882   -3.917723
 H    1.978416   -0.943907   -1.397176
 H    0.534300    0.444520   -3.023940
 H    1.964081   -0.047807   -5.153120
 H    0.243620   -0.460930   -5.283343
 H    1.453992   -1.720288   -4.999107
 H   -1.017943   -1.423345   -3.249653
 H   -0.199292   -1.508779   -1.678139
 H    0.260143   -2.607187   -3.009284
 H    1.634765   -3.017360   -1.244760
 H    2.416131   -5.635670   -0.958375
 H    1.664261   -5.100637   -2.469839
 H    4.654402   -5.338376   -1.865878
 H    3.795115   -6.044959   -3.250702
 H    5.115414   -3.538351   -3.300471
 H    3.757622   -3.900347   -4.373680
 H    1.134403   -4.254069    0.439478
 H    1.507116   -4.390235    2.167586
 H    0.870243   -2.863482    1.528937
 H    4.585958   -2.393016    1.774121
 H    4.692115   -3.593535    3.948889
 H    3.340458   -4.601606    3.499838
 H    5.783354   -4.446525    1.694829
 H    5.209764   -6.783468    1.138215
 H    3.938264   -6.799105    2.373708
 H    3.760262   -5.787209    0.937043
 H    6.862178   -6.296336    2.998653
 H    5.581926   -6.183782    4.218143
 H    6.702695   -4.829654    3.981736
 H    2.826606   -0.658784    1.482576
 H    2.367368    0.899013    3.768805
 H    1.486672    1.011967    2.243283
 H    1.395673   -1.262338    4.973205
