89 
5ahj_ligand_xtb.xyz
 C    3.785518    0.713170    0.927553
 N    3.216070    1.941488    0.867792
 C    2.026147    2.180273    1.655638
 C    1.581669    3.646861    1.569502
 C    1.321769    4.036197    0.140476
 C    0.095853    3.759607   -0.450868
 C   -0.129035    4.057159   -1.782501
 C    0.873451    4.636835   -2.542208
 C    2.096429    4.923967   -1.961868
 C    2.319422    4.624238   -0.628379
 C    0.940716    1.219381    1.150063
 O    1.091966    0.570706    0.139791
 O   -0.119351    1.158951    1.914149
 O    3.583304   -0.039603    1.865894
 C    4.697357    0.350962   -0.230492
 C    4.452975   -1.133504   -0.582148
 N    3.142659   -1.454217   -0.595172
 C    2.663309   -2.820159   -0.563321
 C    1.326514   -2.890604   -1.299705
 N    0.349295   -2.208327   -0.690420
 C   -0.971523   -1.999575   -1.231175
 C   -1.718055   -1.068755   -0.293752
 N   -2.774877   -0.449465   -0.822262
 C   -3.659704    0.403668   -0.054906
 C   -5.089521   -0.160045   -0.135664
 C   -5.198530   -1.579086    0.434029
 C   -4.745160   -1.710362    1.886179
 O   -5.205313   -2.957634    2.357797
 O   -5.455026   -0.143194   -1.502281
 C   -3.564094    1.840074   -0.583810
 C   -4.187931    2.908380    0.322028
 C   -4.017552    4.278768   -0.333822
 C   -3.567461    2.917264    1.718345
 O   -1.378063   -0.911468    0.875443
 C   -1.783507   -3.323228   -1.433598
 O   -1.517233   -3.873508   -2.686581
 C   -1.530057   -4.296885   -0.282339
 O    1.184145   -3.509925   -2.342119
 C    2.502466   -3.294459    0.914466
 C    3.851397   -3.629416    1.538684
 O    1.815132   -2.324698    1.673216
 O    5.349496   -1.907449   -0.824717
 C    6.160148    0.557727    0.162678
 H    3.272147    2.459562    0.001685
 H    2.237369    1.908719    2.695822
 H    2.367988    4.271528    1.995991
 H    0.677504    3.760906    2.168918
 H   -0.686883    3.312173    0.144284
 H   -1.087037    3.837848   -2.230654
 H    0.699874    4.867790   -3.582205
 H    2.879907    5.381685   -2.547475
 H    3.272410    4.864450   -0.176540
 H   -0.712597    0.412695    1.611643
 H    4.454132    0.955283   -1.110422
 H    2.446926   -0.746159   -0.392676
 H    3.390864   -3.451605   -1.080839
 H    0.498121   -1.871424    0.260831
 H   -0.885826   -1.531097   -2.221436
 H   -3.054846   -0.621195   -1.776476
 H   -3.313687    0.364405    0.979230
 H   -5.752298    0.506125    0.438731
 H   -6.243009   -1.899218    0.392117
 H   -4.618757   -2.268383   -0.181958
 H   -3.652016   -1.654524    1.955283
 H   -5.177300   -0.892958    2.485249
 H   -4.837283   -3.123047    3.231439
 H   -6.310487   -0.573413   -1.601806
 H   -4.045939    1.872619   -1.562310
 H   -2.504886    2.069693   -0.720074
 H   -5.260082    2.709973    0.418098
 H   -4.516655    5.046248    0.252715
 H   -4.444953    4.282109   -1.333695
 H   -2.963910    4.538586   -0.407949
 H   -2.482427    2.959051    1.659231
 H   -3.911234    3.787819    2.271868
 H   -3.844573    2.031850    2.284387
 H   -2.850997   -3.065241   -1.457947
 H   -0.544870   -3.962206   -2.773345
 H   -2.214666   -5.136987   -0.361426
 H   -0.513023   -4.678036   -0.330153
 H   -1.679999   -3.799554    0.672342
 H    1.860385   -4.184245    0.920260
 H    3.704100   -3.980612    2.557538
 H    4.479488   -2.742072    1.564718
 H    4.359199   -4.399030    0.965419
 H    2.438260   -1.607432    1.885771
 H    6.390435    1.616673    0.252810
 H    6.356819    0.069185    1.114083
 H    6.801767    0.106969   -0.589910
