89 
5ahj_ligand_dft.xyz
 C    3.890916    0.855210    0.833669
 N    3.151971    1.994318    0.721477
 C    1.989136    2.150540    1.566888
 C    1.496278    3.610552    1.590198
 C    1.119064    4.115108    0.217496
 C   -0.157521    3.875556   -0.297331
 C   -0.489761    4.262809   -1.590372
 C    0.452759    4.904605   -2.390393
 C    1.723700    5.160749   -1.885587
 C    2.053139    4.769237   -0.589757
 C    0.901764    1.185017    1.080935
 O    1.003601    0.541818    0.054647
 O   -0.145279    1.132520    1.885732
 O    3.846850    0.153686    1.840922
 C    4.764661    0.482687   -0.357983
 C    4.515138   -1.007912   -0.678326
 N    3.201472   -1.363959   -0.689024
 C    2.780227   -2.749091   -0.547232
 C    1.421891   -2.901733   -1.236006
 N    0.376002   -2.391575   -0.554114
 C   -0.917805   -2.147320   -1.151128
 C   -1.662198   -1.187125   -0.233944
 N   -2.682127   -0.518608   -0.790324
 C   -3.594551    0.324137   -0.031586
 C   -5.008992   -0.261007   -0.109642
 C   -5.099050   -1.712723    0.361197
 C   -4.618040   -1.954240    1.784585
 O   -4.894591   -3.308289    2.086826
 O   -5.395055   -0.146814   -1.472168
 C   -3.495458    1.772125   -0.524343
 C   -4.324405    2.793284    0.266808
 C   -4.092129    4.198604   -0.294807
 C   -4.010899    2.754784    1.766111
 O   -1.357307   -1.069575    0.960835
 C   -1.774131   -3.424672   -1.416798
 O   -1.351935   -4.080853   -2.579895
 C   -1.823834   -4.342349   -0.199326
 O    1.320233   -3.428135   -2.343395
 C    2.738175   -3.164736    0.949852
 C    4.117996   -3.407645    1.548156
 O    2.022218   -2.201586    1.710988
 O    5.431051   -1.783511   -0.882794
 C    6.240838    0.723366   -0.040925
 H    3.063788    2.389568   -0.206137
 H    2.265484    1.847780    2.579437
 H    2.296446    4.222524    2.017657
 H    0.639961    3.664026    2.268955
 H   -0.894066    3.377318    0.328274
 H   -1.486501    4.063943   -1.973389
 H    0.196259    5.206641   -3.401093
 H    2.460825    5.670514   -2.498807
 H    3.045610    4.977986   -0.196058
 H   -0.721113    0.381862    1.578137
 H    4.472872    1.072093   -1.237098
 H    2.499888   -0.661633   -0.471463
 H    3.483060   -3.378046   -1.095107
 H    0.535598   -2.024830    0.384233
 H   -0.773862   -1.668219   -2.128575
 H   -2.916593   -0.684635   -1.760149
 H   -3.253555    0.273284    1.003882
 H   -5.660840    0.361504    0.523991
 H   -6.146244   -2.038471    0.302447
 H   -4.528938   -2.353478   -0.319401
 H   -3.542729   -1.749023    1.863978
 H   -5.143376   -1.274734    2.477623
 H   -4.455913   -3.525253    2.916898
 H   -6.221222   -0.628937   -1.595052
 H   -3.787477    1.808008   -1.580290
 H   -2.434799    2.051866   -0.476485
 H   -5.387335    2.554968    0.126590
 H   -4.749724    4.928509    0.189098
 H   -4.285595    4.234198   -1.372898
 H   -3.057850    4.522248   -0.125887
 H   -2.932859    2.864629    1.942029
 H   -4.520029    3.569768    2.291307
 H   -4.329230    1.816448    2.233907
 H   -2.795543   -3.079538   -1.630342
 H   -0.376054   -4.032762   -2.617961
 H   -2.400218   -5.235527   -0.452544
 H   -0.815154   -4.649818    0.093770
 H   -2.302431   -3.851857    0.656330
 H    2.149657   -4.087433    1.018841
 H    4.005497   -3.791282    2.566428
 H    4.691336   -2.477307    1.591771
 H    4.688433   -4.126939    0.954168
 H    2.620629   -1.448905    1.862925
 H    6.432089    1.790034    0.110417
 H    6.521239    0.180431    0.864918
 H    6.859620    0.356269   -0.861432
