19 
5ai0_ligand_xtb.xyz
 C   -3.383269    0.100346    0.022932
 C   -2.792825   -1.105850    0.366576
 C   -2.594520    1.166589   -0.375485
 C   -1.419172   -1.243222    0.326083
 C   -1.217928    1.038974   -0.415718
 C   -0.619534   -0.166634   -0.055577
 C    0.824394   -0.321163   -0.078962
 C    1.858047    0.667626    0.149885
 N    1.431156   -1.455051   -0.303971
 N    3.014291    0.062798    0.041951
 N    1.716491    1.998960    0.386943
 O    2.745901   -1.231948   -0.245728
 H   -4.457228    0.206815    0.058170
 H   -3.407570   -1.941378    0.666860
 H   -3.053203    2.102014   -0.660327
 H   -0.944757   -2.176102    0.588117
 H   -0.610353    1.862214   -0.761509
 H    0.879268    2.276565    0.874221
 H    2.561921    2.458523    0.687431
