19 
5ai0_ligand_ani.xyz
 C   -3.394473    0.106532   -0.006163
 C   -2.809365   -1.083992    0.417428
 C   -2.592512    1.152455   -0.455830
 C   -1.427346   -1.233228    0.392082
 C   -1.210019    1.011469   -0.472058
 C   -0.620190   -0.182198   -0.043415
 C    0.843531   -0.339000   -0.061306
 C    1.855621    0.654016    0.168299
 N    1.451892   -1.461930   -0.327288
 N    3.024690    0.106654    0.005077
 N    1.664467    1.990739    0.464714
 O    2.772668   -1.204080   -0.296886
 H   -4.475660    0.216886    0.011415
 H   -3.434806   -1.902731    0.764729
 H   -3.045041    2.081310   -0.791837
 H   -0.963125   -2.162595    0.709220
 H   -0.575005    1.823424   -0.819661
 H    0.932006    2.148131    1.145037
 H    2.521460    2.463647    0.724445
