36 
5ai1_ligand_ani.xyz
 C    4.501196   -0.158892    0.074009
 C    3.735421    0.975912    0.122136
 C    2.326869    0.900909   -0.002307
 C    1.700651   -0.355123   -0.193645
 C    2.522792   -1.504614   -0.220326
 C    3.885716   -1.420364   -0.095016
 C    1.530935    2.083711    0.069435
 C    0.174210    2.020778   -0.060590
 C   -0.477187    0.781151   -0.267246
 C    0.255803   -0.413577   -0.320838
 C   -1.945936    0.647522   -0.487983
 C   -2.492842   -0.578240    0.276539
 C   -1.792731   -1.765007   -0.277262
 C   -0.458846   -1.667033   -0.465983
 C   -2.960157    1.756666   -0.198380
 C   -4.307910    1.011704   -0.324222
 C   -3.981944   -0.465682   -0.059726
 C   -2.321690   -0.484433    1.807442
 O    5.851949   -0.033180    0.197409
 O   -4.768318   -1.381446   -0.096940
 H    4.218925    1.939829    0.259420
 H    2.078549   -2.490218   -0.334369
 H    4.496065   -2.321792   -0.123111
 H    2.027305    3.038270    0.223626
 H   -0.420044    2.929900   -0.012533
 H   -2.106372    0.400636   -1.547135
 H   -2.335566   -2.694129   -0.434831
 H    0.096857   -2.557329   -0.729685
 H   -2.818713    2.162019    0.810856
 H   -2.882282    2.588364   -0.905740
 H   -5.084640    1.363926    0.363033
 H   -4.712046    1.080763   -1.339955
 H   -2.787042    0.421909    2.205990
 H   -1.261356   -0.478313    2.081642
 H   -2.798172   -1.350634    2.278328
 H    6.253387   -0.908520    0.144497
