40 
5ai5_ligand_xtb.xyz
 N   -1.141271    0.131507   -0.615193
 C   -0.014768   -0.051026    0.138843
 N    1.131537   -0.177099   -0.599519
 O   -0.030293   -0.102275    1.351744
 C   -2.463667    0.086959   -0.029122
 C   -3.276880    1.320880   -0.452182
 C   -4.784466    1.049891   -0.393326
 C   -5.099861    0.065312    0.727046
 C   -4.502806   -1.311761    0.411853
 C   -3.214494   -1.190431   -0.410259
 C    2.436883   -0.138756    0.027434
 C    3.348503   -1.208250   -0.573962
 C    4.710602   -1.190607    0.113235
 C    5.357356    0.185320   -0.014098
 C    4.448254    1.256345    0.580797
 C    3.085743    1.242217   -0.104786
 H   -1.085953    0.022976   -1.615669
 H    1.101693    0.044227   -1.582398
 H   -2.294101    0.091034    1.051561
 H   -2.994539    1.601454   -1.469890
 H   -3.019381    2.155847    0.200393
 H   -5.131706    0.631512   -1.339973
 H   -5.319793    1.987460   -0.234948
 H   -6.179466   -0.021716    0.860213
 H   -4.682364    0.449454    1.658860
 H   -5.225055   -1.911815   -0.145135
 H   -4.293547   -1.833962    1.346342
 H   -2.575116   -2.057008   -0.233592
 H   -3.446069   -1.158623   -1.478012
 H    2.258056   -0.354878    1.085625
 H    3.475401   -1.013185   -1.642488
 H    2.881567   -2.188261   -0.463114
 H    5.357913   -1.950221   -0.329870
 H    4.582660   -1.433511    1.169939
 H    5.536880    0.406087   -1.069177
 H    6.322141    0.190988    0.496858
 H    4.907936    2.240723    0.470087
 H    4.313999    1.066225    1.647421
 H    2.430279    1.992189    0.342220
 H    3.206655    1.483775   -1.165058
