32 
5aia_ligand_ani.xyz
 C   -0.004776    1.627129   -0.061893
 C    1.302847    2.074919   -0.076958
 C    2.371208    1.165210   -0.042192
 C    2.094554   -0.219111    0.007533
 C    0.750074   -0.636567    0.020317
 C   -0.308361    0.260823   -0.012992
 C   -1.741957   -0.231345    0.004426
 C   -2.468174    0.185598    1.301636
 C   -4.000765    0.171900    1.154112
 C   -4.449861   -0.843461    0.101889
 C   -3.910706   -0.473616   -1.293548
 C   -2.542790    0.233533   -1.217971
 C    3.237432   -1.163884    0.039281
 O    4.400629   -0.795528    0.025854
 O    2.999303   -2.481106    0.084102
 O    3.608264    1.668966   -0.058478
 H   -0.810022    2.360452   -0.086866
 H    1.539498    3.132675   -0.109617
 H    0.504338   -1.698868    0.060158
 H   -1.711405   -1.330026   -0.030111
 H   -2.138459    1.188749    1.599397
 H   -2.150778   -0.491949    2.103680
 H   -4.352213    1.169500    0.857498
 H   -4.467567   -0.041700    2.122363
 H   -5.543328   -0.915043    0.076248
 H   -4.086419   -1.839525    0.388445
 H   -4.620928    0.184464   -1.809086
 H   -3.832572   -1.384526   -1.899670
 H   -1.965896    0.056581   -2.132403
 H   -2.690533    1.320009   -1.152739
 H    2.051102   -2.665156    0.091442
 H    4.237259    0.908928   -0.032397
