21 
5aic_ligand_ani.xyz
 O   -3.623920    1.028592   -0.001373
 C   -2.520566    0.531257    0.090958
 C   -2.313021   -0.890830    0.576555
 N   -1.379914    1.242560   -0.195097
 C   -0.046890    0.815108   -0.109648
 C    0.283936   -0.544362   -0.109992
 C    0.978822    1.759935   -0.042048
 C    2.302898    1.360509    0.044368
 C    2.648060    0.004550    0.057123
 C    4.088568   -0.427711    0.150346
 C    1.620516   -0.930825   -0.024647
 S   -0.986462   -1.762998   -0.288020
 H   -3.239494   -1.439261    0.401585
 H   -2.118007   -0.882772    1.655122
 H   -1.551590    2.213364   -0.424028
 H    0.727192    2.818395   -0.050568
 H    3.086412    2.112638    0.101214
 H    4.675457   -0.036429   -0.688724
 H    4.554790   -0.060982    1.072105
 H    4.180029   -1.517661    0.141192
 H    1.865432   -1.991756   -0.021007
