19 
5aip_ligand_xtb.xyz
 C    2.623314   -0.052096   -0.216020
 O    3.722963    0.407343   -0.309746
 O    2.125096   -0.874528   -1.147574
 C    1.705268    0.219898    0.978083
 C    0.249846    0.159427    0.619018
 C   -0.409060    1.291215    0.146194
 C   -1.734741    1.235837   -0.227945
 C   -2.436373    0.034974   -0.141031
 C   -1.787096   -1.102216    0.323193
 C   -0.455758   -1.036982    0.696035
 O   -3.739952    0.024593   -0.515929
 H    1.209060   -1.129064   -0.946860
 H    1.977127    1.194345    1.384321
 H    1.948572   -0.536849    1.729551
 H    0.126808    2.225747    0.075878
 H   -2.250693    2.110388   -0.589505
 H   -2.324260   -2.038404    0.397437
 H    0.029488   -1.928054    1.071234
 H   -4.113355   -0.857709   -0.401212
