19 
5aip_ligand_ani.xyz
 C    2.648470    0.032399   -0.205472
 O    3.752031    0.478908   -0.048573
 O    2.197860   -0.279820   -1.435769
 C    1.698954   -0.265098    0.958865
 C    0.235839   -0.142443    0.621259
 C   -0.343662    1.117827    0.446862
 C   -1.675401    1.251919    0.083633
 C   -2.456274    0.112754   -0.115981
 C   -1.895987   -1.152858    0.052400
 C   -0.558005   -1.269815    0.420317
 O   -3.756454    0.299700   -0.473616
 H    1.280496   -0.590648   -1.382840
 H    1.988020    0.409824    1.768498
 H    1.924327   -1.284508    1.302457
 H    0.271049    2.004602    0.588847
 H   -2.129086    2.228946   -0.053572
 H   -2.498422   -2.045347   -0.107539
 H   -0.126208   -2.260195    0.553833
 H   -4.181279   -0.561086   -0.577314
