38 
5aiv_ligand_xtb.xyz
 C  -13.056540   36.125416  -34.667088
 O  -12.142342   36.328410  -33.621786
 C  -10.868859   36.727200  -34.075553
 C   -9.965446   36.922394  -32.862174
 C   -8.554690   37.354036  -33.263797
 N   -7.869430   36.332970  -34.019770
 C   -7.704960   36.405313  -35.354884
 O   -8.012770   37.346511  -36.051801
 C   -7.068340   35.165389  -35.881966
 N   -6.753808   34.119899  -35.173249
 C   -6.220620   33.263816  -36.100354
 N   -6.224477   33.785481  -37.305628
 O   -6.772084   35.015673  -37.170170
 C   -5.720548   31.952251  -35.764205
 C   -5.734002   31.522420  -34.444198
 C   -5.256689   30.266007  -34.081448
 C   -4.749594   29.392169  -35.022819
 C   -4.732280   29.809034  -36.346723
 C   -5.210725   31.083761  -36.743738
 C   -5.041137   31.165056  -38.150176
 C   -4.487230   29.986222  -38.548903
 N   -4.299066   29.167760  -37.470107
 H  -13.991995   35.813872  -34.207043
 H  -13.218127   37.047276  -35.239684
 H  -12.708131   35.344317  -35.354757
 H  -10.452191   35.958663  -34.746053
 H  -10.942851   37.664449  -34.648216
 H  -10.406159   37.683541  -32.218383
 H   -9.927701   35.987681  -32.300010
 H   -8.599275   38.238978  -33.903055
 H   -7.969172   37.583803  -32.369337
 H   -7.626873   35.464456  -33.564972
 H   -6.124688   32.186765  -33.689308
 H   -5.284792   29.972629  -33.042864
 H   -4.379301   28.417687  -34.740077
 H   -3.905615   28.242729  -37.499236
 H   -5.303925   32.002246  -38.761922
 H   -4.208568   29.662720  -39.533543
