108 
5ajc_ligand_dft.xyz
 C   -5.397782    0.124185   -0.847813
 C   -5.920481   -0.695056    0.334926
 C   -6.502142   -2.002997   -0.216010
 C   -7.539502   -1.721610   -1.308396
 C   -7.055204   -0.671120   -2.343089
 C   -6.140110   -1.225592   -3.431433
 O   -6.891127    0.048451    1.043419
 O   -5.496626   -2.808461   -0.805630
 O   -7.933340   -2.916449   -1.938480
 O   -6.479680    0.460934   -1.667390
 C   -3.980083    3.144579    1.796723
 C   -3.897362    1.626588    1.750922
 C   -3.663431    1.171695    0.301458
 C   -2.506394    1.920456   -0.380846
 C   -2.575914    3.428317   -0.156285
 C   -3.572929    4.156158   -1.061863
 C   -2.576973   -0.132724    2.837866
 C   -1.379501   -0.465884    3.693978
 O   -2.823266    3.742236    1.218478
 O   -4.844688    1.358804   -0.455674
 O   -1.253310    1.479699    0.148791
 O   -3.553869    5.536295   -0.779001
 O   -3.286551   -1.024004    2.364336
 N   -2.827084    1.172214    2.618741
 O   -4.020170    3.549102    3.121701
 C   -0.715360    0.326972   -0.405452
 C    0.590508    0.071483    0.350359
 C    1.185964   -1.278279   -0.046294
 C    0.121364   -2.392190    0.014731
 C   -1.127179   -1.968261   -0.750339
 C   -2.310784   -2.931667   -0.749956
 O    1.489098    1.129739    0.082121
 O    2.204150   -1.656753    0.883412
 O   -0.208044   -2.671175    1.352676
 O   -1.611119   -0.737895   -0.252261
 O   -3.020792   -3.048600    0.458840
 C    3.625660   -2.808741   -0.705657
 C    3.506751   -1.714443    0.385664
 C    4.449477   -2.010976    1.542110
 C    5.904775   -1.876916    1.099480
 C    6.144216   -0.490330    0.482711
 C    5.070914   -0.062068   -0.535690
 C    4.911934    1.465747   -0.618873
 C    6.125888    2.243588   -1.118570
 C    6.596777    1.893448   -2.530354
 C    8.583207   -0.063568    0.489459
 C    9.746484    0.308833   -0.401191
 N    7.442131   -0.405945   -0.169327
 O    4.157655   -2.664076   -1.777941
 O    3.092112   -3.971577   -0.298456
 O    6.716989   -2.097289    2.222018
 O    3.764777   -0.465388   -0.164528
 O    3.838605    1.807864   -1.466232
 O    5.830309    3.631524   -1.089556
 O    7.770311    2.615384   -2.829047
 O    8.634741   -0.046182    1.715079
 H   -4.640693   -0.451854   -1.400410
 H   -5.119941   -0.932624    1.041452
 H   -6.998046   -2.540722    0.603906
 H   -8.426528   -1.310587   -0.814604
 H   -7.939660   -0.250232   -2.829104
 H   -5.793098   -0.406659   -4.068657
 H   -5.279931   -1.759599   -3.021492
 H   -6.708005   -1.928719   -4.045879
 H   -7.334394    0.606969    0.387176
 H   -4.788195   -2.994895   -0.154998
 H   -7.131009   -3.459147   -1.978169
 H   -4.877255    3.461004    1.244738
 H   -4.853276    1.209522    2.084461
 H   -3.397345    0.120901    0.329984
 H   -2.547648    1.706708   -1.458317
 H   -1.585028    3.851557   -0.344801
 H   -4.579760    3.729116   -0.966850
 H   -3.265899    4.031206   -2.104876
 H   -0.764186   -1.171449    3.129186
 H   -0.785565    0.407473    3.977484
 H   -1.723554   -0.974177    4.598973
 H   -3.512132    5.609388    0.184012
 H   -2.223346    1.877010    3.013665
 H   -4.059368    4.513652    3.138077
 H   -0.509998    0.475631   -1.484362
 H    0.345049    0.032882    1.418884
 H    1.599165   -1.200994   -1.059722
 H    0.538786   -3.285422   -0.472784
 H   -0.824096   -1.846042   -1.806083
 H   -2.996205   -2.593053   -1.540450
 H   -1.946405   -3.926884   -1.032012
 H    1.016277    1.942825    0.309109
 H    0.631131   -2.855310    1.798837
 H   -2.845101   -2.307303    1.071989
 H    4.269390   -3.008737    1.949295
 H    4.239266   -1.275711    2.325314
 H    6.127110   -2.628552    0.322534
 H    6.149947    0.224887    1.316691
 H    5.292958   -0.488927   -1.521646
 H    4.704405    1.810751    0.406420
 H    6.961970    2.102061   -0.428048
 H    6.844767    0.833454   -2.642006
 H    5.788012    2.109988   -3.243468
 H   10.583477    0.623461    0.221644
 H    9.463164    1.117642   -1.085124
 H   10.055775   -0.551236   -1.005320
 H    7.474957   -0.471335   -1.175396
 H    3.253471   -4.617593   -1.006083
 H    7.443859   -1.446578    2.223836
 H    3.027042    1.455428   -1.055692
 H    4.935645    3.703836   -1.457626
 H    7.578663    3.527894   -2.566628
