60 
5ajx_ligand_dft.xyz
 N    0.968458   -1.835403    3.168593
 C    1.687010   -1.185559    2.529461
 C    2.507674   -0.358127    1.720301
 C    3.851770   -0.503493    1.468347
 C    2.066715    0.789991    0.975772
 C    0.824507    1.415545    0.837600
 C    0.747519    2.504861   -0.009105
 C    1.871292    2.997936   -0.693480
 C    3.109991    2.401855   -0.540349
 C    3.197690    1.286003    0.297091
 N    4.274512    0.477075    0.621481
 C    5.635201    0.598338    0.104721
 C    6.131367   -0.694016   -0.453336
 C    7.249719   -1.402173   -0.135701
 C    8.363000   -1.196498    0.829285
 O    7.306315   -2.502878   -0.896118
 N    6.207379   -2.551462   -1.736501
 C    5.509491   -1.477917   -1.475186
 C    4.224426   -1.201989   -2.184911
 O   -0.424830    3.220812   -0.176662
 C   -1.616060    2.564535   -0.225302
 C   -1.784531    1.333331   -0.858906
 C   -3.032039    0.724567   -0.894451
 C   -4.120823    1.360540   -0.298792
 C   -3.959382    2.605425    0.309552
 C   -2.711606    3.205970    0.350373
 N   -5.428883    0.790226   -0.253298
 C   -5.842806   -0.390717   -0.717317
 O   -5.174916   -1.218927   -1.336171
 C   -7.321587   -0.742832   -0.408981
 N   -7.527399   -2.063478   -1.107653
 C   -7.842878   -3.121791   -0.076814
 C   -7.264116   -2.537403    1.205180
 C   -7.589982   -1.045164    1.076589
 H    4.538225   -1.258695    1.823889
 H   -0.042768    1.050642    1.377701
 H    1.747465    3.863602   -1.334447
 H    3.973036    2.803074   -1.060925
 H    5.612213    1.368134   -0.671317
 H    6.297550    0.964358    0.896528
 H    8.536163   -2.107449    1.408925
 H    9.291766   -0.951677    0.304383
 H    8.131899   -0.381139    1.518888
 H    3.382479   -1.242479   -1.485164
 H    4.232516   -0.203547   -2.635073
 H    4.066114   -1.942405   -2.971500
 H   -0.934882    0.840384   -1.317489
 H   -3.149206   -0.233481   -1.380967
 H   -4.805687    3.109120    0.771453
 H   -2.568594    4.166375    0.832247
 H   -6.117588    1.362888    0.217373
 H   -7.998588    0.002997   -0.830944
 H   -6.582073   -2.230502   -1.539026
 H   -8.223366   -2.018690   -1.852567
 H   -7.402557   -4.066324   -0.396501
 H   -8.928852   -3.221725   -0.025113
 H   -7.711610   -2.991865    2.090275
 H   -6.182638   -2.700183    1.247824
 H   -6.979484   -0.423016    1.734235
 H   -8.641933   -0.856465    1.310729
