29 
5ak5_ligand_ani.xyz
 N    0.549390   -0.255176    0.347713
 C    1.803953    0.105787    0.382528
 C    2.266482    1.462342   -0.002113
 C    2.601454   -2.464060   -1.127392
 C    2.603525   -2.303116    0.390063
 C    2.851435   -0.861827    0.847423
 C   -0.410035    0.668079    0.010487
 C   -0.084154    1.936489   -0.350405
 C   -1.811994    0.181995    0.024548
 C   -2.085459   -1.183486   -0.041078
 C   -2.899116    1.056242    0.100277
 N   -4.171439    0.662673    0.103046
 C   -4.409665   -0.647558    0.024424
 C   -3.405076   -1.607063   -0.047891
 O    3.425963    1.846505   -0.021464
 N    1.237510    2.309135   -0.357190
 H    1.776354   -1.901383   -1.578909
 H    3.537671   -2.097486   -1.565777
 H    2.487436   -3.515767   -1.410721
 H    3.379355   -2.941435    0.830271
 H    1.643517   -2.640143    0.798911
 H    2.890551   -0.833069    1.946983
 H    3.827673   -0.499992    0.501998
 H   -0.788856    2.693426   -0.672502
 H   -1.260708   -1.889529   -0.086390
 H   -2.750530    2.132016    0.184245
 H   -5.457129   -0.942082    0.023453
 H   -3.653597   -2.663148   -0.104256
 H    1.524234    3.247189   -0.615815
