19 
5ak6_ligand_xtb.xyz
 C    2.169215    1.156036   -0.317657
 C    0.901388    1.695128   -0.293889
 C   -0.165219    0.859664    0.049525
 N   -0.009322   -0.419702    0.349671
 C    1.204262   -0.937809    0.329893
 C    2.325174   -0.191350    0.001612
Cl    3.890021   -0.918092   -0.013761
 S   -1.787789    1.522809    0.097354
 C   -2.759156    0.073432    0.590530
 C   -3.010933   -0.859944   -0.584028
 O   -3.879726   -1.875930   -0.135642
 H    3.026330    1.758169   -0.576337
 H    0.719934    2.731156   -0.529717
 H    1.275401   -1.985856    0.584929
 H   -3.703622    0.455785    0.974501
 H   -2.214023   -0.442832    1.378088
 H   -2.054415   -1.279398   -0.922960
 H   -3.465169   -0.296269   -1.412782
 H   -3.995492   -2.523719   -0.837927
