16 
5akg_ligand_ani.xyz
 C    3.168335    1.187890   -0.009687
 C    1.751912    1.351933   -0.012257
 C    1.093286    0.152698   -0.004147
 S    2.187894   -1.184474    0.004470
 C    3.537952   -0.125430   -0.000044
 C   -0.339357   -0.101260   -0.001281
 N   -0.837514   -1.294894   -0.015004
 N   -2.198231   -1.321263   -0.006261
 C   -2.717665   -0.127819    0.004719
 S   -1.554436    1.165844    0.022672
 N   -4.070481    0.093485    0.062219
 H    3.876300    2.009647   -0.014824
 H    1.241437    2.309189   -0.020354
 H    4.542161   -0.528378    0.005081
 H   -4.597698   -0.753210   -0.107132
 H   -4.420725    0.891457   -0.447539
