16 
5akg_ligand_dft.xyz
 C    3.158684    1.201435    0.005981
 C    1.743777    1.344256    0.020018
 C    1.088949    0.140025    0.008130
 S    2.206572   -1.185927   -0.019335
 C    3.546980   -0.106468   -0.015396
 C   -0.338729   -0.120684    0.016894
 N   -0.854493   -1.309373    0.031593
 N   -2.216982   -1.324868    0.010476
 C   -2.727290   -0.128304   -0.005675
 S   -1.544261    1.160759   -0.000498
 N   -4.075766    0.117902    0.053245
 H    3.850461    2.034943    0.012439
 H    1.234877    2.301857    0.039808
 H    4.555081   -0.497937   -0.027971
 H   -4.625514   -0.719617   -0.090689
 H   -4.415422    0.916243   -0.463160
