31 
5akh_ligand_dft.xyz
 C  -18.838752  -10.969397   13.520197
 C  -17.651517  -11.016631   12.796097
 C  -19.716105   -9.905955   13.353337
 C  -17.907847   -9.845061    8.569378
 C  -16.208538   -8.363810    7.794956
 C  -18.205921   -8.919230   11.744340
 C  -18.689701   -9.412453    7.505560
 C  -17.067384   -8.009331    6.760758
 C  -14.343204   -9.933278    9.759915
 C  -17.323013   -9.991375   11.904394
 C  -16.627575   -9.308100    8.736046
 C  -15.740732   -9.720655    9.832600
 C  -19.394972   -8.884739   12.459955
 C  -16.062396  -10.029625   11.148995
 C  -20.323565   -7.706797   12.321570
 N  -18.293979   -8.510864    6.603471
 N  -14.893185  -10.394380   11.733413
 N  -13.834390  -10.338237   10.913225
 F  -21.611103   -8.087123   12.380162
 F  -20.132801   -6.816609   13.311424
 F  -20.144046   -7.057571   11.162405
 H  -19.086298  -11.773548   14.205512
 H  -16.986507  -11.869196   12.904159
 H  -20.649231   -9.870848   13.905283
 H  -18.287729  -10.596876    9.253342
 H  -19.689346   -9.818646    7.366323
 H  -15.230678   -7.899092    7.876056
 H  -16.753731   -7.275479    6.021207
 H  -17.960838   -8.118184   11.056037
 H  -13.702744   -9.829500    8.894266
 H  -14.746174  -10.604411   12.708619
