39 
5aki_ligand_ani.xyz
 C   14.520213  -12.720992  -18.572919
 C   13.478018  -12.803383  -19.489272
 N   12.878681  -11.742945  -20.034015
 C   13.330323  -10.544353  -19.656543
 C   14.368091  -10.348975  -18.753690
 C   14.989971  -11.465909  -18.191110
 C   16.096016  -11.360722  -17.216252
 C   16.448008  -12.171298  -16.161179
 C   17.599820  -11.560502  -15.600475
 N   17.947354  -10.465415  -16.264994
 N   17.001699  -10.349750  -17.228818
 N   18.341681  -12.038156  -14.533578
 C   19.312947  -11.167758  -13.904412
 C   18.728991  -10.000532  -13.089920
 C   17.860992  -10.472830  -11.917335
 C   17.324156   -9.293024  -11.101552
 C   18.456924   -8.393616  -10.602796
 C   19.322216   -7.911850  -11.769439
 C   19.856824   -9.093605  -12.580840
 H   14.973495  -13.624722  -18.177016
 H   13.104497  -13.776907  -19.801688
 H   12.834286   -9.684401  -20.104036
 H   14.666516   -9.338346  -18.488136
 H   15.945119  -13.065012  -15.820764
 H   17.133386   -9.655557  -17.948517
 H   17.831322  -12.646603  -13.911057
 H   19.945842  -11.787230  -13.254979
 H   19.950420  -10.770821  -14.698843
 H   18.094606   -9.415641  -13.773562
 H   17.023530  -11.083479  -12.277194
 H   18.467262  -11.119936  -11.263650
 H   20.530197   -9.694086  -11.948506
 H   20.457925   -8.735667  -13.427207
 H   16.647412   -8.699940  -11.734143
 H   16.723159   -9.656981  -10.259493
 H   18.053746   -7.540643  -10.043258
 H   19.084353   -8.961300   -9.899956
 H   18.716946   -7.269206  -12.425718
 H   20.151054   -7.292907  -11.405137
