39 
5aki_ligand_xtb.xyz
 C   14.265793  -12.668927  -18.276658
 C   13.229206  -12.785753  -19.183936
 N   12.864091  -11.819023  -20.010552
 C   13.534840  -10.680793  -19.953736
 C   14.587527  -10.450189  -19.086380
 C   14.979947  -11.468908  -18.213103
 C   16.073130  -11.306928  -17.278390
 C   16.470333  -12.092035  -16.207538
 C   17.598993  -11.440691  -15.667507
 N   17.872074  -10.334567  -16.354079
 N   16.942105  -10.266320  -17.313839
 N   18.390958  -11.892513  -14.646890
 C   19.327477  -10.981591  -14.030899
 C   18.684932   -9.960539  -13.077731
 C   18.124600  -10.635897  -11.824862
 C   17.504356   -9.609264  -10.881347
 C   18.532269   -8.553526  -10.488673
 C   19.085941   -7.869910  -11.734571
 C   19.706964   -8.897185  -12.676503
 H   14.524926  -13.494013  -17.633249
 H   12.657625  -13.701910  -19.258639
 H   13.207115   -9.912322  -20.642202
 H   15.080626   -9.489987  -19.087187
 H   16.021210  -12.994110  -15.847487
 H   16.987334   -9.518608  -17.984850
 H   17.930366  -12.531650  -14.015703
 H   20.070492  -11.577216  -13.492369
 H   19.821056  -10.448966  -14.846016
 H   17.865398   -9.473110  -13.617128
 H   17.367782  -11.374802  -12.100606
 H   18.933147  -11.159855  -11.307654
 H   20.552034   -9.380575  -12.179831
 H   20.084517   -8.398766  -13.571316
 H   16.660844   -9.124723  -11.378934
 H   17.123169  -10.109972   -9.988377
 H   18.073986   -7.814303   -9.828334
 H   19.350205   -9.029184   -9.942303
 H   18.276287   -7.349525  -12.251266
 H   19.834345   -7.126843  -11.451354
