23 
5akj_ligand_dft.xyz
 C   19.030748   10.659325   12.506595
 C   18.812440    9.274732   12.415119
 C   18.130480    8.581229   13.406838
 C   17.676660    9.327089   14.490305
 C   17.886373   10.714069   14.599463
 C   18.573860   11.393084   13.592402
 N   17.330571   11.199120   15.776747
 C   16.810464   10.149009   16.352814
 N   16.976834    8.990700   15.635914
 S   15.958397   10.110120   17.887959
 C   16.047125   11.881990   18.306261
 C   15.023296   12.735831   17.581382
 O   13.738284   12.386119   18.050138
 H   19.569075   11.162859   11.709468
 H   19.184808    8.733585   11.550713
 H   18.740219   12.462452   13.669415
 H   17.962679    7.511102   13.335423
 H   16.656899    8.074372   15.905293
 H   15.875960   11.929283   19.385050
 H   17.058637   12.227545   18.083478
 H   15.251623   13.791619   17.800813
 H   15.129347   12.587217   16.499769
 H   13.088218   12.700551   17.413643
