43 
5akl_ligand_xtb.xyz
 C    4.716068   -2.770556    0.696467
 C    2.182400    3.704892    0.753743
 C    4.968849   -1.870910   -0.325573
 C    3.439497   -2.864614    1.219504
 C    2.062284    2.615747    1.600109
 C    2.127436    3.517241   -0.615858
 C    3.949483   -1.077742   -0.816576
 C    2.419424   -2.067242    0.727112
 C    1.884448    1.347447    1.079597
 C    1.949076    2.246800   -1.134969
 C    2.660298   -1.165681   -0.300482
 C    1.821590    1.150450   -0.293747
 C   -2.945706    0.343073   -0.149138
 C   -6.078872   -1.429074   -0.126995
 C   -6.179317   -0.596069    1.014594
 C   -4.867646   -1.188983   -0.699433
 C   -5.029525    0.124651    1.087778
 C    0.165935   -0.697792   -0.593448
 C   -0.835135    0.173154   -1.355778
 C    1.604591   -0.237629   -0.858302
 N   -4.213570   -0.234708    0.042713
 N   -2.200423   -0.238695   -1.118356
 O   -2.589320    1.297664    0.500277
 H    5.509642   -3.392949    1.082641
 H    2.318969    4.695941    1.160441
 H    5.962645   -1.787878   -0.740667
 H    3.232792   -3.561981    2.018511
 H    2.106575    2.755347    2.670204
 H    2.221253    4.361722   -1.283136
 H    4.152541   -0.373874   -1.611507
 H    1.432937   -2.160423    1.154673
 H    1.800156    0.501065    1.745420
 H    1.904654    2.107876   -2.206619
 H   -6.819688   -2.120556   -0.477465
 H   -7.008627   -0.544763    1.691229
 H   -4.453404   -1.609846   -1.594247
 H   -4.699753    0.863992    1.789033
 H    0.055330   -1.740893   -0.903223
 H   -0.063886   -0.620807    0.470106
 H   -0.642126    0.127654   -2.431588
 H   -0.751655    1.208682   -1.018909
 H    1.745365   -0.189681   -1.945218
 H   -2.482269   -1.129119   -1.494011
