41 
5aku_ligand_xtb.xyz
 C    5.140013   -0.256566    1.761469
 N   -1.443636    1.416908   -0.247297
 O   -3.134356    2.743054    0.408208
 C    4.797567   -0.167276    0.272012
 N   -1.625105   -0.915478   -0.193242
 C    5.469486    1.089418   -0.299178
 C    5.354219   -1.417808   -0.423269
 C    3.300919   -0.084528    0.018190
 C    2.831903    0.002805   -1.290340
 C    1.481269    0.085645   -1.569659
 C    0.551739    0.083440   -0.541105
 C    1.004514   -0.005519    0.766948
 C    2.357780   -0.088652    1.040128
 C   -0.929023    0.190294   -0.813522
 C   -2.746543    1.637588    0.084208
 C   -3.591248    0.427143    0.069859
 C   -4.964706    0.527547    0.254149
 C   -5.748160   -0.607843    0.319392
 C   -5.151296   -1.857140    0.219067
 C   -3.787624   -1.974956    0.035850
 C   -2.991097   -0.834563   -0.054083
 H    4.707664   -1.147571    2.210731
 H    4.788142    0.621459    2.297850
 H    6.220000   -0.311462    1.881178
 H   -0.831144    2.219115   -0.243191
 H   -1.246280   -1.827101   -0.402569
 H    6.540696    1.057709   -0.112725
 H    5.313556    1.171585   -1.371143
 H    5.063101    1.980940    0.173876
 H    5.200805   -1.376930   -1.497936
 H    6.422056   -1.505156   -0.235420
 H    4.862734   -2.310507   -0.041933
 H    3.527341    0.008102   -2.115666
 H    1.147978    0.154503   -2.595732
 H    0.285771   -0.008174    1.572682
 H    2.665420   -0.155471    2.070543
 H   -1.098841    0.192378   -1.916938
 H   -5.391542    1.514265    0.350608
 H   -6.815328   -0.526846    0.456935
 H   -5.757283   -2.749593    0.279049
 H   -3.327075   -2.949863   -0.042779
