41 
5aku_ligand_ani.xyz
 C    5.153563   -0.257852    1.782180
 N   -1.458767    1.445892   -0.242621
 O   -3.224899    2.759159    0.288077
 C    4.820906   -0.175030    0.287633
 N   -1.635431   -0.905514   -0.300307
 C    5.519897    1.072152   -0.285984
 C    5.392448   -1.432535   -0.393651
 C    3.313776   -0.084062    0.029402
 C    2.847719   -0.030772   -1.288639
 C    1.490449    0.065164   -1.570029
 C    0.556772    0.113180   -0.541448
 C    1.004340    0.058681    0.773792
 C    2.360276   -0.040216    1.052430
 C   -0.920784    0.233987   -0.838984
 C   -2.786328    1.643552    0.064996
 C   -3.609636    0.410752    0.117488
 C   -4.976033    0.491962    0.376797
 C   -5.751732   -0.654271    0.431158
 C   -5.145663   -1.897766    0.228370
 C   -3.785588   -1.993910   -0.025436
 C   -3.003257   -0.834588   -0.087588
 H    4.701359   -1.142081    2.246873
 H    4.808846    0.632078    2.321976
 H    6.238370   -0.328300    1.917154
 H   -0.931093    2.301974   -0.352624
 H   -1.304093   -1.807718   -0.610337
 H    6.603382    1.004189   -0.134087
 H    5.337590    1.184824   -1.359911
 H    5.162074    1.981664    0.210700
 H    5.218810   -1.429590   -1.474616
 H    6.474569   -1.492651   -0.229387
 H    4.934209   -2.340200    0.016383
 H    3.548209   -0.061680   -2.120610
 H    1.155770    0.105741   -2.604232
 H    0.277685    0.095259    1.580221
 H    2.676736   -0.081779    2.089962
 H   -1.046791    0.274221   -1.935190
 H   -5.401003    1.479920    0.533794
 H   -6.817725   -0.589401    0.630335
 H   -5.743128   -2.804616    0.270235
 H   -3.321952   -2.968343   -0.175676
