29 
5akw_ligand_ani.xyz
Cl   -5.631569   -0.291714   -0.535299
 O    2.506753    2.772814   -0.250716
 C    4.505526   -1.851080   -0.196632
 C    5.094885   -0.595077   -0.368629
 C   -3.547889   -0.109723    1.188945
 C   -3.004039   -0.105883   -1.172404
 C    3.141769   -1.973456    0.024454
 C    4.298554    0.537122   -0.318029
 C   -2.192883   -0.000349    1.487450
 C   -1.656898    0.004639   -0.855187
 N    0.753918    1.425053    0.235348
 N    0.967809   -0.924327    0.265364
 C    2.083039    1.648109   -0.045386
 C   -3.939532   -0.160109   -0.143229
 C   -1.245144    0.058314    0.473553
 C    2.338569   -0.828363    0.083925
 C    2.928039    0.429579   -0.092113
 C    0.224658    0.196605    0.803453
 H    5.119096   -2.747174   -0.236930
 H    6.163883   -0.509576   -0.541449
 H   -4.292599   -0.153498    1.977913
 H   -3.333483   -0.147736   -2.206127
 H    2.691606   -2.957566    0.151090
 H    4.710091    1.534034   -0.452381
 H   -1.872479    0.042046    2.526358
 H   -0.904331    0.051371   -1.637328
 H    0.206301    2.269023    0.340194
 H    0.643100   -1.835264    0.556082
 H    0.327449    0.223907    1.902368
