40 
5al1_ligand_ani.xyz
 C    5.341251   -1.465505   -0.332515
 C    4.783156   -0.187587    0.321746
 C    5.519121    1.037045   -0.253987
 C    5.084552   -0.253993    1.823697
 C    3.283192   -0.073815    0.033047
 C    2.306955   -0.058455    1.035278
 C    0.957412    0.047279    0.729129
 C    2.847246    0.017249   -1.293149
 C    1.496748    0.123525   -1.601825
 C    0.540408    0.140528   -0.593442
 C   -0.931006    0.268221   -0.922323
 N   -1.480450    1.464278   -0.309592
 C   -2.787529    1.642209    0.086121
 O   -3.215781    2.747427    0.372717
 C   -3.600386    0.408334    0.145454
 C   -4.946905    0.432011    0.482775
 C   -5.651660   -0.761439    0.521010
 C   -4.960784   -1.934620    0.220437
 N   -3.667824   -1.984771   -0.098781
 C   -3.003448   -0.828063   -0.137938
 N   -1.663656   -0.888151   -0.436397
 H    4.861933   -2.358389    0.085758
 H    5.177695   -1.475240   -1.415250
 H    6.420255   -1.542565   -0.155204
 H    5.373383    1.133243   -1.334869
 H    5.162860    1.961728    0.215043
 H    6.596145    0.953324   -0.067996
 H    6.165741   -0.330258    1.982345
 H    4.733767    0.645000    2.344380
 H    4.617307   -1.129259    2.290355
 H    2.599959   -0.127741    2.078159
 H    0.213979    0.059861    1.520984
 H    3.566204    0.007285   -2.109643
 H    1.184498    0.195683   -2.641390
 H   -1.028544    0.334905   -2.019032
 H   -0.957413    2.325446   -0.394669
 H   -5.406934    1.390603    0.706779
 H   -6.706182   -0.788848    0.775830
 H   -5.476253   -2.892916    0.239213
 H   -1.358577   -1.798314   -0.750218
