37 
5al2_ligand_ani.xyz
 C   -5.647535   -1.521727   -0.143489
 C   -5.024125   -0.216012   -0.652966
 C   -5.838860    0.992615   -0.175427
 C   -3.563220   -0.101751   -0.257096
 C   -2.561948   -0.057244   -1.232590
 C   -1.222261    0.046636   -0.884890
 C   -3.178596   -0.041685    1.084423
 C   -1.837084    0.062252    1.434623
 C   -0.851632    0.108002    0.454884
 C    0.608469    0.232520    0.834467
 N    1.173099    1.448370    0.276058
 C    2.500633    1.646083   -0.034164
 O    2.938617    2.762632   -0.253845
 C    3.322647    0.417985   -0.091778
 C    4.685617    0.458335   -0.353016
 C    5.397752   -0.730641   -0.394803
 C    4.697549   -1.916256   -0.175347
 N    3.389256   -1.982166    0.070189
 C    2.717709   -0.829930    0.114226
 N    1.363502   -0.904408    0.336058
 H   -5.612442   -1.572737    0.951067
 H   -6.698068   -1.590659   -0.448405
 H   -5.118046   -2.396072   -0.536105
 H   -5.063423   -0.232552   -1.749495
 H   -6.885699    0.896354   -0.485645
 H   -5.443861    1.927606   -0.586249
 H   -5.820486    1.073318    0.917712
 H   -2.845487   -0.104351   -2.282743
 H   -0.449039    0.082408   -1.647465
 H   -3.927013   -0.075552    1.874241
 H   -1.554393    0.109615    2.484262
 H    0.670554    0.265484    1.935475
 H    0.643944    2.304878    0.370506
 H    5.152283    1.425798   -0.517218
 H    6.464847   -0.745373   -0.591671
 H    5.218190   -2.871596   -0.200462
 H    1.047508   -1.825297    0.604490
