31 
5al3_ligand_xtb.xyz
Cl   -2.292375   -2.682744    0.077622
 C   -2.084688   -0.966139    0.110745
 C   -3.198302   -0.181288   -0.145055
 C   -3.072003    1.198103   -0.126094
Cl   -4.452941    2.176649   -0.442877
 C   -1.848686    1.791729    0.146712
 C   -0.752235    0.990357    0.400017
 C   -0.844340   -0.397202    0.388805
 C    0.403331   -1.246576    0.636599
 N    1.124246   -0.802177    1.801418
 C    2.122090    0.129857    1.811831
 O    2.531819    0.605498    2.850951
 C    2.670326    0.431589    0.479741
 C    3.675258    1.371475    0.313964
 C    4.212269    1.575153   -0.947859
 C    3.723109    0.803094   -1.989274
 N    2.762411   -0.094971   -1.859879
 C    2.224731   -0.282004   -0.654498
 N    1.262153   -1.232669   -0.528129
 C    0.789357   -1.953753   -1.683938
 H   -4.150514   -0.641211   -0.355692
 H   -1.757587    2.865610    0.162078
 H    0.199101    1.451743    0.616096
 H    0.089208   -2.287802    0.803123
 H    0.713060   -1.016482    2.698513
 H    4.020441    1.917075    1.179718
 H    4.991818    2.300080   -1.115268
 H    4.114334    0.905472   -2.993403
 H    1.572594   -1.922949   -2.436273
 H   -0.118013   -1.503188   -2.097053
 H    0.578426   -2.986371   -1.404157
