48 
5al5_ligand_dft.xyz
 C   -4.133308   -1.279707    0.701546
 C   -4.016122   -2.584324    1.177892
 N   -3.063454   -3.428871    0.784502
 C   -2.191182   -2.990823   -0.126303
 C   -2.223361   -1.713044   -0.677121
 C   -3.215991   -0.833407   -0.245125
 C   -3.267793    0.576180   -0.774041
 N   -2.051264    1.349091   -0.358485
 C   -1.851087    1.382875    1.128435
 C   -0.753832    2.413273    1.492771
 C   -1.998394    2.727307   -0.922455
 C   -0.562968    3.275891   -0.752702
 N    0.153482    2.656814    0.369000
 C    0.952371    1.538177    0.032787
 N    2.091542    1.424817    0.721128
 C    2.967761    0.325916    0.521489
 C    3.869027   -0.026761    1.437038
 C    4.835703   -1.158319    1.227378
 C    4.872990   -1.629014   -0.231072
 C    3.466093   -1.728164   -0.821423
 C    2.793977   -0.353496   -0.816081
 C    1.318996   -0.416253   -1.206189
 O    0.840750   -1.344513   -1.817607
 N    0.519030    0.680403   -0.855924
 H   -4.931010   -0.636747    1.062916
 H   -4.721165   -2.963486    1.913373
 H   -1.426226   -3.696507   -0.438985
 H   -1.472450   -1.431211   -1.411985
 H   -4.145108    1.118525   -0.410019
 H   -3.277493    0.588818   -1.867610
 H   -1.185822    0.862012   -0.745097
 H   -1.572716    0.371146    1.426159
 H   -2.808372    1.630226    1.595791
 H   -0.194522    2.056081    2.359712
 H   -1.197935    3.374078    1.766861
 H   -2.744070    3.329595   -0.395600
 H   -2.276758    2.677535   -1.976539
 H   -0.611265    4.353831   -0.573775
 H    0.013279    3.110180   -1.663059
 H    2.344179    2.175840    1.349565
 H    3.919185    0.517484    2.378865
 H    5.834368   -0.848234    1.554980
 H    4.547950   -1.987577    1.888484
 H    5.374449   -2.598768   -0.293973
 H    5.468945   -0.925889   -0.826356
 H    3.489838   -2.116161   -1.842073
 H    2.857425   -2.423642   -0.231767
 H    3.266654    0.285343   -1.581478
