33 
5ald_ligand_ani.xyz
 C   -0.040872    1.366702   -0.152372
 C    1.292116    1.758445   -0.221638
 C    2.260645    0.773007   -0.096465
 C    1.917227   -0.570611    0.089744
 C    0.589682   -0.940808    0.156656
 C   -0.414986    0.030898    0.040114
 C   -1.876334   -0.373369    0.102313
 C   -2.652382    0.376640    1.199230
 C   -4.106148   -0.094723    1.274619
 C   -4.808678    0.061229   -0.076096
 C   -4.042804   -0.664672   -1.184986
 C   -2.585466   -0.202567   -1.254298
 C    3.183314   -1.376818    0.184798
 C    4.292062   -0.329352    0.029186
 O    5.488763   -0.502079    0.037484
 N    3.654164    0.890445   -0.127634
 H   -0.808028    2.134025   -0.253999
 H    1.560590    2.801608   -0.367385
 H    0.317559   -1.985560    0.302639
 H   -1.913519   -1.444622    0.355247
 H   -2.631250    1.454292    0.982538
 H   -2.152405    0.242936    2.165891
 H   -4.644314    0.457895    2.054159
 H   -4.124419   -1.153617    1.572344
 H   -4.873328    1.130684   -0.324682
 H   -5.839990   -0.307810   -0.017526
 H   -4.534568   -0.513882   -2.153579
 H   -4.064328   -1.746942   -0.988626
 H   -2.042650   -0.757517   -2.028478
 H   -2.545650    0.858285   -1.542878
 H    3.285924   -2.128986   -0.602446
 H    3.306002   -1.890114    1.142749
 H    4.170860    1.748832   -0.247232
