48 
5alf_ligand_xtb.xyz
 C   10.529138    5.829745   20.972547
 C   10.395058    7.268577   21.454653
 C   11.634643    8.085557   21.087720
 N   11.635817    9.386187   21.713460
 C   10.627775   10.353935   21.354449
 C   10.525038   10.663461   19.856636
 C    9.627962   11.870777   19.614766
 S   13.109233   10.007011   22.168389
 O   12.853742   11.092496   23.071139
 O   13.913734    8.910606   22.620732
 C   13.840249   10.683728   20.674734
 C   13.791078   12.063952   20.488831
 C   14.292664   12.643671   19.341026
 C   14.831962   11.787954   18.392254
 C   14.881326   10.380209   18.580089
 C   14.378461    9.818163   19.750403
 N   15.460135    9.797722   17.491424
 C   15.764026   10.770512   16.670904
 N   15.402457   12.000613   17.169264
 C   16.406255   10.575029   15.385703
 C   16.741798   11.636750   14.545474
 C   17.356108   11.394643   13.330986
 C   17.642974   10.097734   12.938367
 C   17.313035    9.036815   13.767883
 C   16.699744    9.270727   14.981881
 H    9.639070    5.259185   21.226188
 H   10.661273    5.799367   19.893054
 H   11.388714    5.352889   21.436548
 H    9.508062    7.720602   21.006615
 H   10.275211    7.288819   22.538507
 H   12.522828    7.581945   21.472313
 H   11.720991    8.164316   19.994162
 H    9.657585   10.005410   21.723915
 H   10.891769   11.257991   21.905690
 H   11.521883   10.861019   19.456854
 H   10.116419    9.798777   19.329933
 H    9.539478   12.073330   18.550035
 H    8.632591   11.692076   20.014811
 H   10.038981   12.752102   20.100977
 H   13.360934   12.660207   21.277097
 H   14.422276    8.759580   19.940268
 H   14.268233   13.712202   19.191427
 H   15.535991   12.893005   16.726079
 H   16.530463   12.657438   14.830439
 H   16.434729    8.462518   15.644362
 H   17.613249   12.222985   12.687217
 H   18.123138    9.915602   11.988618
 H   17.536724    8.025062   13.464177
