36 
5alj_ligand_ani.xyz
 C   -6.059839    1.426280   -0.195273
 C   -4.707364    0.767922   -0.152219
 C   -3.531704    1.444188   -0.483417
 C   -2.275912    0.846192   -0.447853
 C   -2.159680   -0.492892   -0.066504
 C   -3.322866   -1.200676    0.264295
 C   -4.548646   -0.563631    0.220374
 F   -5.641203   -1.281936    0.552315
 N   -0.958417   -1.207083   -0.030361
 C    0.360956   -0.786849   -0.023712
 C    1.354859   -1.808139   -0.121458
 C    2.688262   -1.506216   -0.117474
 C    3.049295   -0.112122    0.004836
 C    1.984527    0.825394    0.111514
 N    0.659800    0.479396    0.078501
 C    2.264591    2.206615    0.255324
 C    3.559207    2.647984    0.284113
 C    4.626917    1.740885    0.169892
 C    4.384973    0.390639    0.031189
 O    5.416675   -0.496924   -0.083451
 C    3.690221   -2.621810   -0.232796
 H   -6.113080    2.266908    0.506472
 H   -6.273572    1.822186   -1.195056
 H   -6.849860    0.719174    0.064470
 H   -3.599190    2.489080   -0.781381
 H   -1.393097    1.413796   -0.715595
 H   -3.288778   -2.244796    0.564842
 H   -1.074713   -2.205871    0.035176
 H    1.038616   -2.845669   -0.210666
 H    1.420785    2.883624    0.340062
 H    3.772817    3.707994    0.394203
 H    5.650993    2.112581    0.191971
 H    6.247446   -0.004779   -0.052734
 H    4.350364   -2.650618    0.636420
 H    3.171514   -3.582672   -0.307997
 H    4.320735   -2.496899   -1.115388
