42 
5alk_ligand_xtb.xyz
 C   16.113991   10.450970   12.183498
 C   17.312939    9.792423   11.881211
 C   17.554324    9.532274   10.537658
 C   16.628807    9.969740    9.554167
 C   15.276459   10.848701   11.113505
 C   15.420031   10.914125   13.345677
 C   18.223979    9.417532   13.016451
 C   18.798966    8.844980   10.053996
 C   19.693144    9.243745   12.648419
 C   20.312965   10.551568   12.173472
 C   20.476511    8.682905   13.830522
 C   15.847565    6.674528    5.848199
 C   16.829028    9.697478    8.090422
 C   16.449197    8.021369    6.229857
 C   16.225501    8.340753    7.705238
 N   15.518066   10.626213    9.828629
 N   14.304347   11.522697   13.005526
 N   14.222314   11.490661   11.653280
 N   15.826839   10.842930   14.661968
 S   19.758925    7.967929   11.322198
 H   18.144500   10.193304   13.783396
 H   17.861171    8.477710   13.448292
 H   18.555360    8.067791    9.330418
 H   19.470489    9.561922    9.571287
 H   16.307609   10.478408    7.535318
 H   17.885349    9.726016    7.821879
 H   13.442668   11.916942   11.183921
 H   15.103899   11.166040   15.290136
 H   16.213478    9.952484   14.938669
 H   21.298322   10.370619   11.748835
 H   19.690466   11.038387   11.426196
 H   20.420003   11.231951   13.017050
 H   21.524576    8.567783   13.564310
 H   20.403390    9.355333   14.683625
 H   20.090046    7.707043   14.117240
 H   16.013395    6.465958    4.793826
 H   16.300025    5.875135    6.431293
 H   14.776095    6.669241    6.035513
 H   17.521766    8.011441    6.020519
 H   15.999872    8.807462    5.619268
 H   16.664312    7.548292    8.316342
 H   15.155308    8.364218    7.918773
