42 
5alk_ligand_ani.xyz
 C   16.099225    9.961705   12.318690
 C   17.428675    9.561417   12.099497
 C   17.697086    8.953122   10.873564
 C   16.674114    8.878086    9.872409
 C   15.177990    9.804888   11.270985
 C   15.330002   10.552676   13.370777
 C   18.446569    9.788602   13.194954
 C   19.058468    8.378030   10.521374
 C   19.916133    9.735326   12.760613
 C   20.281626   10.911510   11.855739
 C   20.816849    9.719936   13.996668
 C   15.337612    8.216558    4.978044
 C   16.985111    8.261568    8.518660
 C   16.294593    7.852302    6.111278
 C   15.994015    8.605711    7.407421
 N   15.427084    9.288032   10.066027
 N   14.086368   10.752108   12.997714
 N   13.995415   10.284831   11.723645
 N   15.780702   10.953139   14.630090
 S   20.179692    8.141146   11.914182
 H   18.245434   10.760617   13.664024
 H   18.295188    9.026072   13.970670
 H   18.954472    7.388806   10.061913
 H   19.552677    9.009568    9.770355
 H   17.997865    8.544446    8.199515
 H   17.009142    7.165787    8.642876
 H   13.133168   10.359401   11.210496
 H   15.004816   11.221620   15.222386
 H   16.348489   10.250656   15.084574
 H   21.309925   10.811809   11.494413
 H   19.614592   10.986367   10.991510
 H   20.199484   11.847253   12.421940
 H   21.872072    9.659305   13.711656
 H   20.670433   10.639639   14.577234
 H   20.585012    8.866375   14.641702
 H   15.573388    7.668902    4.059634
 H   14.301138    7.985374    5.250417
 H   15.388081    9.288478    4.752809
 H   16.245609    6.771166    6.301989
 H   17.327595    8.065379    5.801999
 H   14.978289    8.382331    7.755059
 H   16.021800    9.686956    7.210501
