42 
5alk_ligand_dft.xyz
 C   16.141959    9.993354   12.272803
 C   17.458150    9.542081   12.069661
 C   17.739920    8.995227   10.821960
 C   16.716663    8.951063    9.818743
 C   15.233219    9.894075   11.210124
 C   15.381324   10.605860   13.323342
 C   18.452458    9.678457   13.200789
 C   19.112759    8.482211   10.440885
 C   19.931532    9.680533   12.804729
 C   20.289741   10.948744   12.023344
 C   20.803392    9.574160   14.057676
 C   15.177894    8.036967    5.036829
 C   17.028932    8.374337    8.453200
 C   16.295442    7.914327    6.071030
 C   15.906534    8.502789    7.427541
 N   15.480494    9.393017    9.997560
 N   14.147482   10.850551   12.938027
 N   14.067310   10.427459   11.644206
 N   15.833982   10.989295   14.588381
 S   20.250668    8.164281   11.818450
 H   18.230541   10.610697   13.737049
 H   18.280548    8.857352   13.910263
 H   19.030123    7.519135    9.928695
 H   19.590778    9.168458    9.730430
 H   17.936951    8.853661    8.060551
 H   17.290646    7.311785    8.569057
 H   13.205471   10.526707   11.135677
 H   15.067161   11.359904   15.139268
 H   16.283919   10.232708   15.089984
 H   21.334631   10.923121   11.700496
 H   19.656461   11.078889   11.140402
 H   20.145248   11.828453   12.662331
 H   21.866607    9.584986   13.796946
 H   20.606055   10.426487   14.718405
 H   20.593591    8.654060   14.613339
 H   15.475490    7.611346    4.072925
 H   14.275244    7.513129    5.371522
 H   14.909819    9.086911    4.872404
 H   16.565485    6.856588    6.194578
 H   17.197065    8.418706    5.697306
 H   15.006730    8.005551    7.806740
 H   15.637580    9.559579    7.312351
