31 
5all_ligand_ani.xyz
 C   -1.527317    0.987005    0.323278
 C   -0.666708   -1.259207   -0.370355
 C    0.559109    0.004370    1.515287
 C   -1.888328   -0.495138    0.132971
 C   -0.155495    1.270926    0.980298
 C    0.444292   -1.303738    0.689153
 C   -3.072454   -0.637099   -0.820970
 C    0.740096    2.181482    0.111493
 C    1.773947   -1.771563    0.104022
 N    1.098991    1.624318   -1.228265
 O    2.278237   -0.781280   -0.793348
 H   -1.549715    1.468162   -0.665225
 H   -2.328662    1.474948    0.894133
 H   -0.303322   -0.792506   -1.295925
 H   -0.946349   -2.287587   -0.640547
 H    0.140893   -0.202604    2.509656
 H    1.617300    0.244480    1.680945
 H   -2.182941   -0.914855    1.107481
 H   -0.341026    1.892358    1.864105
 H    0.161863   -2.087905    1.405221
 H   -3.377002   -1.684354   -0.929971
 H   -3.940296   -0.068913   -0.465857
 H   -2.812173   -0.260036   -1.818735
 H    1.669115    2.385494    0.647288
 H    0.229301    3.134384   -0.039013
 H    2.495678   -1.940696    0.916344
 H    1.629745   -2.722853   -0.429096
 H    0.250641    1.522520   -1.812241
 H    1.760431    2.253283   -1.716657
 H    1.547877    0.694391   -1.099222
 H    3.116963   -1.089932   -1.159100
