43 
5alm_ligand_ani.xyz
 C   -1.014957   -0.389722    1.451708
 C   -0.961823   -1.240322   -0.803633
 C   -2.256756    0.176822    1.214390
 C   -2.217837   -0.680086   -1.021971
 C   -0.354267   -1.103873    0.445000
 C   -2.880718    0.032944   -0.026485
 C    1.038726    3.031780    0.578976
 C    1.767478    4.012386   -0.301120
 C    3.204415   -1.875955    0.717535
 C    3.676667   -0.404528    0.781576
 C    2.163911   -0.638923   -1.021774
 C    1.749313    2.557259   -0.654706
 C    1.927075   -1.871762   -0.146087
 C    1.727406   -3.185467   -0.876875
 C   -5.572928   -0.531072    0.215705
 C    2.991441    1.711448   -0.479386
 N    2.631882    0.362567    0.010366
 O    0.856074   -1.629655    0.804243
 S   -4.465091    0.786315   -0.348152
 H   -0.536901   -0.291146    2.423349
 H   -0.465774   -1.751261   -1.619370
 H   -2.753931    0.737334    2.002468
 H   -2.687871   -0.788420   -1.994531
 H    1.499044    2.793476    1.535364
 H   -0.047262    3.038472    0.583173
 H    1.180506    4.697034   -0.906165
 H    2.696498    4.435305    0.071835
 H    2.971579   -2.293766    1.698129
 H    3.975082   -2.502872    0.256205
 H    3.751885   -0.013415    1.798589
 H    4.644615   -0.280373    0.285054
 H    2.969796   -0.823383   -1.742573
 H    1.286706   -0.275353   -1.553989
 H    1.114636    2.276869   -1.493837
 H    2.579545   -3.361198   -1.541746
 H    1.678431   -4.003586   -0.151181
 H    0.815966   -3.211340   -1.477566
 H   -5.415906   -1.451588   -0.351811
 H   -5.442606   -0.730148    1.282553
 H   -6.594603   -0.179043    0.044798
 H    3.549335    1.623585   -1.419677
 H    3.657764    2.188663    0.250772
 H    1.820283    0.478821    0.646981
