33 
5aln_ligand_xtb.xyz
 C    2.984269   -1.599982    1.532486
 C    2.894513   -0.930159    0.159281
 C    1.660115   -0.084400    0.009700
 C    0.329122   -0.421882    0.049617
 C   -0.635605    0.579133   -0.109806
 C   -0.229208    1.895884   -0.315137
 C    1.111127    2.246985   -0.363591
 C    2.045822    1.244910   -0.194843
 N    3.428988    1.324894   -0.187302
 C    4.017976    0.107459    0.019686
 O    5.206294   -0.087324    0.074763
 C   -2.065760    0.241159   -0.056297
 C   -2.544644   -0.918794   -0.663340
 C   -3.886485   -1.245158   -0.614916
 C   -4.753456   -0.399588    0.052582
 C   -4.311943    0.757744    0.667351
 C   -2.967720    1.071711    0.607168
 F   -6.065861   -0.712732    0.105974
 C    3.028810   -1.967186   -0.959018
 H    3.966954   -2.049026    1.654306
 H    2.834268   -0.868419    2.323914
 H    2.225173   -2.373098    1.624414
 H    0.024837   -1.442155    0.226533
 H   -0.977062    2.660634   -0.461349
 H    1.409807    3.270872   -0.528685
 H    3.951863    2.177924   -0.309842
 H   -1.861946   -1.562105   -1.197786
 H   -4.265455   -2.138173   -1.086499
 H   -5.014756    1.392243    1.183928
 H   -2.609334    1.963112    1.099388
 H    2.925224   -1.492594   -1.932785
 H    4.007639   -2.437097   -0.902866
 H    2.260662   -2.730210   -0.858952
