33 
5aln_ligand_ani.xyz
 C    3.025213   -1.667214    1.492054
 C    2.903671   -0.934377    0.150350
 C    1.668993   -0.065093    0.023239
 C    0.328444   -0.400120    0.082750
 C   -0.643806    0.592163   -0.086725
 C   -0.226387    1.915472   -0.316981
 C    1.114009    2.263568   -0.383458
 C    2.053932    1.255646   -0.203078
 N    3.445051    1.337115   -0.199379
 C    4.031446    0.111887    0.041202
 O    5.220319   -0.101317    0.135061
 C   -2.086032    0.250907   -0.037243
 C   -2.561632   -0.904293   -0.667450
 C   -3.908434   -1.241706   -0.639315
 C   -4.783836   -0.414678    0.047048
 C   -4.353760    0.735011    0.691240
 C   -3.005870    1.063801    0.635766
 F   -6.087186   -0.736688    0.089259
 C    3.077784   -1.928445   -1.008414
 H    4.010400   -2.138455    1.560321
 H    2.903512   -0.982087    2.336491
 H    2.257411   -2.445838    1.567848
 H    0.017726   -1.422393    0.287349
 H   -0.978750    2.686967   -0.467926
 H    1.414878    3.292294   -0.562609
 H    3.986539    2.182923   -0.286209
 H   -1.863293   -1.539063   -1.208018
 H   -4.283003   -2.134213   -1.129839
 H   -5.070232    1.357872    1.216781
 H   -2.657606    1.959408    1.144819
 H    3.003075   -1.422624   -1.975608
 H    4.059614   -2.405791   -0.933256
 H    2.304077   -2.703244   -0.964205
