32 
5alr_ligand_ani.xyz
 C    5.574615   -1.761897    0.266264
 C    6.477910   -0.687153    0.406060
 C    4.236332   -1.517989    0.079133
 C    6.031167    0.606952    0.346714
 C   -0.619218    0.240615   -1.121041
 C   -0.753251   -1.690112    0.315751
 C   -2.002787    0.228958   -1.240577
 C   -2.135158   -1.688298    0.200648
 C    2.982415    2.378974   -0.112502
 C    3.748539   -0.187274    0.029956
 C    4.657617    0.885141    0.148779
 C    0.017214   -0.718353   -0.329489
 C   -2.779094   -0.721277   -0.574417
 C    2.365276    0.190344   -0.143372
 C   -5.049070    0.495062    0.522112
 N    4.258993    2.192237    0.079383
 N    2.003394    1.450824   -0.245382
 N    1.419046   -0.802060   -0.191646
 F   -6.380479    0.527009    0.530488
 F   -4.579816    1.703880    0.220758
 F   -4.604535    0.153998    1.727139
 S   -4.552769   -0.742557   -0.745119
 H    5.940413   -2.784218    0.309815
 H    7.535152   -0.890517    0.557153
 H    3.561965   -2.361808   -0.049817
 H    6.708071    1.449705    0.444271
 H   -0.029355    0.991976   -1.632443
 H   -0.266689   -2.449803    0.923886
 H   -2.479152    0.989192   -1.854991
 H   -2.717765   -2.443914    0.722199
 H    2.646883    3.412377   -0.179688
 H    1.743174   -1.705216    0.115453
