28 
5alt_ligand_dft.xyz
 C   -2.784548   -1.381235    0.683968
 C   -0.071251   -0.029889    0.020982
 C   -1.247676    2.020402    0.140599
 C   -4.053377   -1.850392    0.538548
 C   -3.723332    0.342738   -0.546153
 C   -2.579480   -0.106158    0.058433
 C   -1.299667    0.624213    0.070436
 C    1.122685    0.683447    0.026680
 C    1.046676    2.101947    0.073220
 C    2.393391   -0.036143   -0.020776
 C    4.423113   -2.842848   -0.172495
 N   -0.135119    2.739703    0.137759
 N    3.621356    0.543149    0.001684
 N    2.491907   -1.364298   -0.086860
 N    4.498060   -0.422780   -0.050140
 N    3.801854   -1.537304   -0.101623
 N    2.143531    2.895366    0.047465
 S   -5.035685   -0.756226   -0.360622
 H   -2.014404   -1.905539    1.238563
 H   -0.029080   -1.113839   -0.037294
 H   -2.173303    2.589066    0.220836
 H   -4.470835   -2.770492    0.923397
 H   -3.851788    1.250866   -1.119433
 H    4.117007   -3.436509    0.690337
 H    4.114442   -3.341209   -1.092834
 H    5.501387   -2.690041   -0.165917
 H    3.072213    2.498774    0.078815
 H    1.995001    3.885184    0.154851
