28 
5alt_ligand_xtb.xyz
 C   -2.736858   -1.438445    0.551211
 C   -0.077373   -0.056153    0.016701
 C   -1.253607    2.003189    0.111987
 C   -4.007680   -1.888927    0.436471
 C   -3.742599    0.383553   -0.437582
 C   -2.567511   -0.115768    0.048285
 C   -1.301738    0.607892    0.057173
 C    1.108850    0.663378    0.024999
 C    1.032876    2.079631    0.071139
 C    2.372151   -0.027856   -0.018126
 C    4.455045   -2.785027   -0.143031
 N   -0.144310    2.709685    0.117494
 N    3.590315    0.564455   -0.014961
 N    2.508775   -1.354136   -0.063825
 N    4.465780   -0.378287   -0.058340
 N    3.814128   -1.510107   -0.087036
 N    2.133049    2.851225    0.070356
 S   -5.044136   -0.726454   -0.294791
 H   -1.943958   -2.011678    0.996697
 H   -0.027344   -1.133082   -0.038413
 H   -2.165120    2.583994    0.169584
 H   -4.409835   -2.835550    0.738275
 H   -3.919998    1.336297   -0.894552
 H    4.115070   -3.404467    0.687109
 H    4.207710   -3.284789   -1.080564
 H    5.528259   -2.620905   -0.078436
 H    3.043082    2.413858    0.046765
 H    2.014812    3.846936    0.108997
