65 
5alu_ligand_ani.xyz
 C    1.282559   -2.384738   -0.356570
 C    0.604161   -1.178066   -0.546155
 C    1.380462   -0.005306   -0.393538
 N    2.627346   -0.088015    0.066530
 C    3.153187   -1.304821    0.271448
 N    2.539542   -2.478331    0.047900
 N    4.430773   -1.351818    0.756691
 C    0.921696    1.404650   -0.749633
 C    0.699431    2.255504    0.535276
 C    1.552830    3.527200    0.373035
 C    2.702588    3.075587   -0.525804
 C    2.001807    2.176304   -1.549867
 C   -0.848061   -1.276617   -0.894417
 O   -1.281211   -2.212638   -1.556500
 N   -1.657361   -0.308616   -0.384440
 C   -3.077293   -0.255600   -0.682792
 C   -3.675578    1.097893   -0.253261
 C   -3.674845    1.241103    1.280280
 C   -4.488919    0.099897    1.910805
 C   -3.874449   -1.250337    1.508888
 C   -3.886635   -1.393787   -0.019648
 C   -5.332390   -1.306790   -0.526119
 C   -5.951746    0.043322   -0.136506
 C   -5.930815    0.173766    1.392443
 C   -5.123320    1.172144   -0.751181
 O   -7.268912    0.176348   -0.650186
 C    5.274442   -0.164721    0.730832
 C    6.552575   -0.386094    1.561180
 C    7.690205   -0.326147    0.522781
 O    7.075288   -0.509575   -0.738305
 C    5.845118    0.176352   -0.659834
 H    0.749624   -3.315896   -0.540144
 H    4.886546   -2.241490    0.612535
 H    0.008686    1.344287   -1.346453
 H   -0.360049    2.495442    0.698139
 H    1.042679    1.691190    1.409909
 H    1.885162    3.935633    1.333399
 H    0.972465    4.311521   -0.130251
 H    3.414303    2.475223    0.055455
 H    3.251448    3.902085   -0.990060
 H    1.515741    2.795950   -2.314132
 H    2.693429    1.500857   -2.063910
 H   -1.253056    0.402816    0.204539
 H   -3.194777   -0.374839   -1.766663
 H   -3.082553    1.902505   -0.708239
 H   -2.649821    1.243665    1.674272
 H   -4.122217    2.205577    1.551640
 H   -4.483212    0.200904    3.004020
 H   -4.455148   -2.069201    1.952220
 H   -2.849271   -1.339126    1.886649
 H   -3.441335   -2.346041   -0.317828
 H   -5.930964   -2.123800   -0.096216
 H   -5.368888   -1.421368   -1.617594
 H   -6.534184   -0.632646    1.835344
 H   -6.399105    1.125360    1.676216
 H   -5.166734    1.092766   -1.844598
 H   -5.576737    2.134173   -0.481264
 H   -7.799760   -0.533080   -0.262557
 H    4.657250    0.657808    1.099671
 H    6.501799   -1.361544    2.055213
 H    6.683463    0.371439    2.339381
 H    8.196202    0.652135    0.566077
 H    8.442008   -1.110142    0.646155
 H    5.997920    1.267354   -0.733155
 H    5.203611   -0.149320   -1.484472
