36 
5alw_ligand_ani.xyz
 C    5.245108    2.948123   -0.037080
 C    4.406146    1.708874   -0.222703
 C    4.670922    0.547990    0.509463
 C    3.900061   -0.595520    0.341808
 C    2.842835   -0.607403   -0.569489
 C    2.570238    0.545384   -1.304064
 C    3.345908    1.687710   -1.128030
 S    1.860317   -2.072182   -0.840626
 C    1.124637   -2.282823    0.814684
 C    0.286587   -1.093442    1.253319
 O    0.709351   -0.353817    2.120022
 C   -1.034918   -0.843017    0.614680
 C   -1.549791   -1.657701   -0.400607
 C   -2.797510   -1.411405   -0.959981
 C   -3.512544   -0.323356   -0.480110
 C   -3.009836    0.510463    0.528183
 C   -1.773975    0.254189    1.077230
 C   -4.022425    1.587753    0.807366
 C   -5.162242    1.269958   -0.166078
 O   -6.203226    1.866251   -0.317319
 N   -4.772370    0.139422   -0.865283
 H    5.189924    3.314159    0.994676
 H    6.300487    2.749131   -0.256271
 H    4.915015    3.756711   -0.695295
 H    5.490909    0.541574    1.224197
 H    4.123409   -1.490599    0.919247
 H    1.744176    0.547350   -2.012253
 H    3.120895    2.580540   -1.708645
 H    1.915615   -2.410598    1.556746
 H    0.533384   -3.201117    0.777154
 H   -0.969582   -2.496697   -0.776152
 H   -3.191327   -2.053581   -1.742905
 H   -1.347977    0.871256    1.863924
 H   -3.649085    2.597120    0.615393
 H   -4.402984    1.571831    1.832176
 H   -5.355548   -0.272261   -1.578157
