36 
5alw_ligand_xtb.xyz
 C   -1.330340    3.617998    0.319868
 C   -0.247256    2.670479   -0.097654
 C    0.914656    2.552734    0.657418
 C    1.922393    1.682637    0.288788
 C    1.764327    0.897073   -0.843008
 C    0.626044    1.024049   -1.624730
 C   -0.369050    1.906527   -1.251358
 S    2.980314   -0.309377   -1.319209
 C    3.325625   -1.131041    0.281408
 C    2.158097   -1.127101    1.249666
 O    2.347587   -0.880144    2.419038
 C    0.811481   -1.363760    0.693321
 C    0.581694   -2.148042   -0.436194
 C   -0.683524   -2.250864   -0.988735
 C   -1.709195   -1.534522   -0.398470
 C   -1.499429   -0.766584    0.755960
 C   -0.250241   -0.692745    1.314893
 C   -2.793063   -0.123134    1.135231
 C   -3.750746   -0.601678    0.052604
 O   -4.916596   -0.335132   -0.084013
 N   -3.030420   -1.423442   -0.780178
 H   -1.511551    3.550500    1.391170
 H   -1.033920    4.643730    0.099767
 H   -2.256225    3.412268   -0.212148
 H    1.033456    3.151808    1.548636
 H    2.816982    1.608838    0.887797
 H    0.523159    0.419737   -2.512731
 H   -1.258729    1.991874   -1.858772
 H    4.186171   -0.659227    0.758556
 H    3.590969   -2.156995    0.020309
 H    1.395319   -2.690781   -0.890902
 H   -0.856891   -2.858714   -1.863099
 H   -0.052984   -0.103984    2.197279
 H   -2.737352    0.966165    1.137059
 H   -3.153901   -0.434531    2.116928
 H   -3.433348   -1.876519   -1.585513
