30 
5alx_ligand_ani.xyz
 C    3.433943   -2.179048    1.609588
 C    3.877811   -2.085724    0.155177
 S    4.394868   -0.430921   -0.378714
 C    2.915921    0.544410   -0.238209
 C    3.075258    1.923199   -0.091543
 C    1.959284    2.747223    0.002255
 C    0.676802    2.214480   -0.058204
 C    0.503288    0.838218   -0.220174
 C    1.629980    0.014155   -0.315184
 C   -0.830634    0.227937   -0.326665
 C   -1.182262   -0.812434   -1.142680
 C   -2.558501   -1.147330   -1.063671
 C   -3.241200   -0.365811   -0.176189
 S   -2.196470    0.797616    0.576409
 C   -4.693227   -0.509905    0.095369
 O   -5.349653   -1.350518   -0.500791
 N   -5.233817    0.324442    1.019839
 H    4.227075   -1.836417    2.280788
 H    2.545184   -1.568175    1.796623
 H    3.190154   -3.217562    1.859389
 H    3.114391   -2.473247   -0.527176
 H    4.774239   -2.692914   -0.010492
 H    4.075298    2.347060   -0.046371
 H    2.090373    3.819020    0.120193
 H   -0.190712    2.866067   -0.001009
 H    1.486412   -1.055235   -0.433843
 H   -0.475548   -1.293690   -1.809959
 H   -3.052267   -1.930081   -1.628839
 H   -6.219989    0.225219    1.204619
 H   -4.703831    1.019677    1.521189
