53 
5alz_ligand_xtb.xyz
 C   -6.446418   -0.867753    1.431679
 S   -5.966181   -0.177384   -0.180337
 O   -6.217822   -1.171542   -1.179061
 O   -6.580956    1.109127   -0.310690
 N   -4.333582    0.058771   -0.115245
 C   -3.840377    1.141921    0.696491
 C   -2.493963    1.606948    0.144840
 C   -1.518082    0.429164    0.104639
 C   -2.124746   -0.715977   -0.718580
 C   -3.483444   -1.104526   -0.141066
 N   -0.236845    0.850226   -0.418014
 C    0.924804    0.280049    0.055101
 O    0.944934   -0.401445    1.060554
 N    2.017856    0.572374   -0.702776
 C    3.389665    0.232605   -0.327978
 C    3.535249   -1.288365   -0.220584
 C    4.980164   -1.639641    0.126595
 C    5.910558   -1.120693   -0.968717
 C    5.768777    0.396753   -1.074252
 C    4.323152    0.752862   -1.421808
 C    6.146157    1.039099    0.259692
 C    5.215334    0.517700    1.353830
 C    5.352611   -0.999862    1.462904
 C    3.770462    0.874876    1.010516
 H   -7.516148   -1.025292    1.404374
 H   -5.928153   -1.807300    1.567067
 H   -6.188303   -0.150625    2.199018
 H   -3.715389    0.825466    1.744305
 H   -4.583490    1.938102    0.645375
 H   -2.091387    2.406115    0.767400
 H   -2.639794    1.989607   -0.866569
 H   -1.315436    0.073226    1.120943
 H   -1.453426   -1.575340   -0.701952
 H   -2.257193   -0.389767   -1.751861
 H   -3.981111   -1.845840   -0.766802
 H   -3.344261   -1.514848    0.871551
 H   -0.244447    1.213255   -1.358664
 H    1.918440    1.274305   -1.418522
 H    3.250113   -1.746734   -1.170467
 H    2.857394   -1.653198    0.550511
 H    5.077245   -2.728146    0.202409
 H    5.657494   -1.585958   -1.924179
 H    6.945188   -1.379899   -0.733923
 H    6.430790    0.773125   -1.862715
 H    4.221613    1.838469   -1.508844
 H    4.049656    0.306259   -2.381093
 H    6.064494    2.126196    0.186649
 H    7.182370    0.797590    0.505951
 H    5.482828    0.979380    2.310742
 H    6.378870   -1.262889    1.729352
 H    4.692557   -1.374306    2.247312
 H    3.093492    0.507679    1.782115
 H    3.654233    1.959846    0.941915
