21 
5am2_ligand_ani.xyz
 C    0.877582    1.844457    0.001321
 C    2.103217    1.224492    0.000611
 C    1.057266   -0.928906   -0.000124
 C   -0.312964    1.084995    0.000567
 C   -0.196949   -0.316575    0.000390
 C    2.219238   -0.182475   -0.000364
 C   -1.626543    1.691421   -0.000638
 C   -2.712849    0.897952   -0.001229
 C   -1.397386   -1.178143    0.000481
 C    3.576907   -0.836316   -0.001145
 N   -2.593404   -0.475676   -0.000211
 O   -1.400586   -2.397887    0.000966
 H    0.811389    2.929933    0.002433
 H    3.011210    1.824922    0.000631
 H    1.086022   -2.016859   -0.000349
 H   -1.729889    2.771229   -0.001421
 H   -3.731533    1.272234   -0.002723
 H    4.157982   -0.537319   -0.880519
 H    4.152945   -0.549771    0.885703
 H    3.494965   -1.927182   -0.009094
 H   -3.419688   -1.059759   -0.000125
