62 
5am3_ligand_xtb.xyz
 C   -6.330470    1.114166   -0.660516
 C   -7.363135   -0.370913    0.911716
 C   -5.154051    0.397687   -0.589977
 C   -6.190748   -1.086115    0.993062
 C   -7.453811    0.743419    0.075026
 C   -5.068071   -0.720250    0.240346
 C   -8.672939    1.579892   -0.067550
 C    2.545395   -0.540802   -0.141382
 C   -0.659611    0.130638   -0.250131
 C   -0.588580   -2.286909   -0.923654
 C   -2.002787   -0.099689    0.432098
 C   -1.937586   -2.507583   -0.248104
 C    6.802763    0.543837    1.837469
 C    7.815084   -0.236745   -0.307702
 C    7.092704    2.139268   -0.061902
 C    5.531408   -1.002971    0.350086
 C    4.807787    1.377639    0.594282
 C    5.814837    0.593752   -1.549852
 C    6.919528   -0.629849    0.866702
 C    6.197188    1.743646    1.111190
 C    7.204431    0.963051   -1.030333
 C    0.177283   -1.154073   -0.241026
 C   -2.767475   -1.223827   -0.271580
 C    4.916848    0.198280   -0.376808
 N    1.461262   -0.960149   -0.880834
 N    3.594195   -0.127543   -0.908253
 O   -8.657263    2.683457   -0.543793
 O    2.544264   -0.557624    1.072660
 O   -9.834813    1.040828    0.353942
 O   -3.990262   -1.516730    0.392740
 H   -6.403120    1.983989   -1.295601
 H   -8.192275   -0.677958    1.536318
 H   -4.312809    0.719112   -1.182857
 H   -6.107606   -1.944239    1.641128
 H   -0.110382    0.918134    0.267943
 H   -0.820293    0.450369   -1.284345
 H   -0.743351   -2.032612   -1.976018
 H    0.001327   -3.203131   -0.882095
 H   -2.591432    0.819633    0.428656
 H   -1.844028   -0.389891    1.472211
 H   -1.792111   -2.805474    0.790904
 H   -2.490006   -3.302277   -0.751957
 H    7.789168    0.803427    2.228572
 H    6.167527    0.263886    2.679652
 H    7.915322   -1.077193   -0.998739
 H    8.813180    0.019037    0.054256
 H    8.085191    2.413919    0.301818
 H    6.672670    3.006976   -0.575977
 H    4.879793   -1.284302    1.177671
 H    5.597896   -1.851559   -0.336294
 H    4.357178    2.229257    0.079037
 H    4.155192    1.095052    1.419740
 H    5.893791   -0.240416   -2.253060
 H    5.375858    1.444419   -2.077292
 H    7.354857   -1.491645    1.384590
 H    6.111628    2.586646    1.805518
 H    7.841288    1.244148   -1.877150
 H    0.403985   -1.424935    0.795056
 H   -2.969116   -0.948019   -1.316828
 H    1.431361   -0.717771   -1.859410
 H    3.555383   -0.320846   -1.896395
 H   -9.725622    0.135361    0.671416
