62 
5am3_ligand_ani.xyz
 C   -6.178313    1.226114   -0.580449
 C   -7.396586   -0.334317    0.782917
 C   -5.028144    0.454776   -0.464797
 C   -6.259556   -1.109067    0.913389
 C   -7.372210    0.836968    0.018567
 C   -5.070073   -0.726856    0.278398
 C   -8.560068    1.732524   -0.147733
 C    2.510988   -0.624770   -0.107526
 C   -0.599205   -0.054036   -0.022691
 C   -0.639780   -2.428847   -0.888356
 C   -1.975838   -0.274407    0.606111
 C   -2.017203   -2.627859   -0.253829
 C    6.733332    0.944868    1.778486
 C    7.807866   -0.212848   -0.167441
 C    7.033268    2.164502   -0.391311
 C    5.511205   -0.888297    0.588197
 C    4.740270    1.480915    0.361428
 C    5.820066    0.329735   -1.574972
 C    6.889941   -0.399396    1.050586
 C    6.114436    1.979849    0.825592
 C    7.197845    0.824164   -1.121780
 C    0.179504   -1.373546   -0.143569
 C   -2.779206   -1.309510   -0.182909
 C    4.881969    0.137246   -0.373521
 N    1.466701   -1.207325   -0.804022
 N    3.589652   -0.307821   -0.906900
 O   -8.467884    2.900269   -0.423352
 O    2.461386   -0.426312    1.099781
 O   -9.779496    1.174177    0.024955
 O   -4.028726   -1.582184    0.448852
 H   -6.164451    2.154104   -1.143912
 H   -8.298429   -0.636143    1.315565
 H   -4.115727    0.787432   -0.948060
 H   -6.265370   -2.027089    1.493789
 H   -0.007762    0.649544    0.573011
 H   -0.716447    0.385307   -1.025606
 H   -0.761719   -2.100163   -1.932962
 H   -0.077873   -3.369163   -0.912845
 H   -2.525685    0.671334    0.674472
 H   -1.864836   -0.643739    1.634885
 H   -1.911493   -3.015955    0.768639
 H   -2.606265   -3.362951   -0.813654
 H    7.711329    1.296903    2.133675
 H    6.091587    0.818732    2.661019
 H    7.933745   -1.170543   -0.689510
 H    8.804362    0.114362    0.159099
 H    8.013217    2.542591   -0.069632
 H    6.603271    2.910041   -1.073127
 H    4.838040   -1.030658    1.441813
 H    5.601172   -1.854838    0.074329
 H    4.275572    2.204942   -0.320093
 H    4.061849    1.349239    1.211063
 H    5.923431   -0.626379   -2.108114
 H    5.361855    1.048491   -2.268601
 H    7.327445   -1.140503    1.732523
 H    5.995344    2.938382    1.348093
 H    7.849819    0.954323   -1.995561
 H    0.392426   -1.732721    0.869572
 H   -2.957846   -0.951517   -1.207210
 H    1.420288   -1.006118   -1.795157
 H    3.632701   -0.778743   -1.801494
 H   -9.707302    0.212488    0.091850
