44 
5am4_ligand_xtb.xyz
 C   -0.924241   -2.528576   -0.061202
 C    0.400567   -2.941409   -0.051705
 C    1.377125   -1.968993   -0.019925
 C    1.060447   -0.604717   -0.003643
 C   -0.261273   -0.219999   -0.010554
 C   -1.270154   -1.184646   -0.037771
 C   -2.719221   -0.770235   -0.030964
 C   -3.073513   -0.018043    1.257875
 C   -4.550942    0.361691    1.269414
 C   -4.892308    1.216666    0.052878
 C   -4.544802    0.472350   -1.232771
 C   -3.066767    0.094501   -1.248456
 C    2.343662    0.183061    0.019713
 C    2.539821    1.070397    1.261113
 C    1.783141    2.393064    1.144008
 O    2.109653    3.098762   -0.029465
 C    1.817858    2.354503   -1.188123
 C    2.587413    1.035900   -1.239205
 C    3.406053   -0.929770    0.043422
 O    4.603288   -0.784771    0.082133
 N    2.755265   -2.125368    0.004676
 H   -1.704447   -3.275381   -0.085087
 H    0.656168   -3.989876   -0.067084
 H   -0.531186    0.823267    0.007200
 H   -3.335872   -1.675069   -0.073492
 H   -2.469014    0.887819    1.333427
 H   -2.840330   -0.646444    2.120538
 H   -4.784064    0.907108    2.186306
 H   -5.159616   -0.545550    1.256685
 H   -4.326015    2.150133    0.095621
 H   -5.954341    1.470030    0.061527
 H   -4.774948    1.096314   -2.098927
 H   -5.152444   -0.432984   -1.302548
 H   -2.828561   -0.453312   -2.163107
 H   -2.464887    1.005049   -1.239505
 H    3.608634    1.279154    1.347941
 H    2.211878    0.540183    2.157064
 H    2.054426    3.053901    1.970418
 H    0.698543    2.211540    1.184579
 H    2.106987    2.990182   -2.028082
 H    0.736248    2.161820   -1.251506
 H    2.300288    0.477579   -2.132078
 H    3.657293    1.251403   -1.287694
 H    3.227683   -3.015680    0.009105
