40 
5amg_ligand_dft.xyz
 O   -3.510401   -2.469824   -0.128561
 S   -3.997827   -1.162449   -0.532730
 O   -4.684581   -0.936245   -1.793029
 N   -4.968215   -0.604126    0.703597
 C   -2.607783   -0.041811   -0.491082
 C   -2.515535    0.979791   -1.423911
 C   -1.423802    1.839128   -1.379124
 C   -0.407820    1.683308   -0.435703
 C    0.712257    2.710594   -0.560786
 O    0.443322    3.845139   -0.862028
 O    1.967814    2.298397   -0.438866
 C   -1.629330   -0.216731    0.478858
 C   -0.535361    0.639752    0.499529
 S    0.621076    0.365064    1.842022
 O    0.969515    1.625512    2.467210
 O    0.125169   -0.754503    2.623905
 N    1.997625   -0.087297    0.962755
 C    2.016385   -1.461754    0.425007
 C    3.162393   -1.619107   -0.568860
 C    4.548246   -1.410471    0.048152
 C    5.700624   -1.776780   -0.892998
 C    5.756753   -0.925914   -2.162049
 H   -5.142426   -1.336088    1.384613
 H   -5.822560   -0.187717    0.348231
 H   -3.285946    1.095641   -2.178437
 H   -1.343130    2.658831   -2.083861
 H    2.029882    1.364263   -0.131189
 H   -1.704713   -1.010952    1.213853
 H    2.801050    0.113471    1.559372
 H    1.059931   -1.626004   -0.080855
 H    2.090546   -2.191253    1.239874
 H    3.005826   -0.921983   -1.400378
 H    3.100071   -2.632013   -0.986397
 H    4.627083   -2.014193    0.962903
 H    4.668724   -0.359758    0.349333
 H    5.620012   -2.837899   -1.163425
 H    6.643958   -1.669420   -0.344809
 H    4.883770   -1.090557   -2.802412
 H    5.795347    0.142084   -1.917667
 H    6.645851   -1.166158   -2.753114
