33 
5aml_ligand_xtb.xyz
 O    1.007690   -0.307587    2.433311
 S    1.283381    0.598950    1.363367
 O    1.545252    1.977763    1.656239
 N    2.521264    0.004292    0.474969
 C    2.403018   -1.385483    0.068955
 C    3.681521   -1.905103   -0.378322
 C    4.743564   -2.306620   -0.762231
 C    6.015670   -2.816277   -1.220597
 C   -0.172385    0.632571    0.292862
 C   -0.284916    1.706742   -0.579445
 C   -1.436472    1.853769   -1.348081
 C    0.899187    2.618598   -0.772027
 O    0.729155    3.897934   -0.462552
 O    1.907087    2.209751   -1.280650
 C   -1.184551   -0.296533    0.412867
 C   -2.315379   -0.145396   -0.366685
 C   -2.454706    0.917458   -1.237029
 S   -3.627329   -1.351022   -0.211161
 O   -3.042567   -2.646536   -0.049597
 O   -4.593953   -1.126343   -1.242848
 N   -4.297600   -0.868739    1.246142
 H    2.827822    0.642046   -0.247820
 H    1.657353   -1.512563   -0.732562
 H    2.066092   -1.929532    0.956579
 H    6.648019   -1.990482   -1.543771
 H    6.515645   -3.351926   -0.414687
 H    5.864037   -3.495402   -2.058798
 H   -1.526073    2.680774   -2.037089
 H   -0.058669    4.060535    0.072781
 H   -1.087976   -1.120850    1.100333
 H   -3.357003    0.989166   -1.823612
 H   -4.125197   -1.525650    1.989380
 H   -5.275157   -0.644036    1.163365
