43 
5ant_ligand_ani.xyz
 C    4.856082   -1.458337   -1.528468
 N    3.616765   -2.014849   -1.020363
 C    2.694048   -1.231259   -0.429673
 N    2.954344    0.075649   -0.355356
 C    2.049463    0.862343    0.236826
 O    2.415669    2.144643    0.275662
 C    1.690746    3.065905    1.089967
 C    0.989697    4.096177    0.219440
 O   -0.134377    3.605977   -0.471291
 C   -1.285193    3.533140    0.332484
 N    0.862349    0.523782    0.751214
 C    0.622276   -0.782532    0.648712
 N   -0.509303   -1.443774    1.071018
 C   -1.767144   -0.861202    1.502254
 C   -2.684179   -0.499006    0.348780
 C   -2.270297    0.434463   -0.603499
 C   -3.101094    0.777303   -1.663888
 C   -4.351426    0.179880   -1.794436
 C   -4.767788   -0.757804   -0.856737
 C   -3.935526   -1.093757    0.208182
 C   -0.400806   -2.801831    0.766003
 O   -1.235784   -3.658714    0.972385
 N    0.847208   -2.950751    0.190723
 C    1.478786   -1.714408    0.098147
 H    4.654655   -0.706661   -2.298676
 H    5.425108   -0.968317   -0.730706
 H    5.445980   -2.270797   -1.955112
 H    3.486366   -3.012294   -1.048012
 H    2.442033    3.572020    1.705953
 H    0.984726    2.535577    1.731443
 H    1.700099    4.448188   -0.535945
 H    0.701346    4.953037    0.848587
 H   -1.199000    2.759834    1.112343
 H   -1.497454    4.499336    0.816648
 H   -2.124490    3.277218   -0.317957
 H   -1.534840    0.021648    2.109122
 H   -2.246789   -1.603081    2.143421
 H   -1.282513    0.886067   -0.509274
 H   -2.770197    1.512637   -2.395135
 H   -4.998941    0.447570   -2.625051
 H   -5.742379   -1.230111   -0.951510
 H   -4.261056   -1.834317    0.937335
 H    1.147880   -3.847651   -0.156737
