45 
5anu_ligand_ani.xyz
 O   -0.004833   -4.148658   -0.076315
 C   -0.584321   -3.082968   -0.128655
 N   -1.790770   -2.740565    0.454558
 C   -2.094049   -1.410205    0.177782
 N   -0.162706   -1.939214   -0.809327
 C   -1.070487   -0.922207   -0.610727
 C    1.101663   -1.884126   -1.519813
 C    2.259782   -1.387054   -0.669767
 C    3.396793   -2.163966   -0.472610
 C    4.459974   -1.663726    0.276595
 C    4.390504   -0.399425    0.840325
 C    2.177614   -0.121526   -0.090762
 C    3.234677    0.363995    0.670469
 O    3.223747    1.606480    1.236781
 C    2.008712    2.106533    1.776150
 C    1.409094    3.217491    0.935259
 O    0.743245    2.665488   -0.176769
 C    0.065574    3.601135   -0.978270
 C   -0.934879    2.876466   -1.854308
 O   -2.016185    2.362208   -1.074931
 C   -1.998284    1.087641   -0.682431
 N   -0.980734    0.317418   -1.079628
 N   -3.054744    0.747052    0.066384
 C   -3.129721   -0.510014    0.506327
 N   -4.194032   -0.842306    1.266671
 C   -5.272407    0.105680    1.480637
 H   -2.259898   -3.383064    1.073288
 H    0.968064   -1.239911   -2.397221
 H    1.303392   -2.901082   -1.861978
 H    3.454322   -3.159730   -0.907678
 H    5.352757   -2.267600    0.418325
 H    5.207875    0.013518    1.423947
 H    1.301210    0.492661   -0.258064
 H    2.263643    2.517797    2.759850
 H    1.276209    1.299753    1.912329
 H    2.210328    3.905253    0.625122
 H    0.689612    3.775383    1.557238
 H    0.776104    4.151541   -1.616328
 H   -0.478735    4.330261   -0.357665
 H   -0.453890    2.072162   -2.414810
 H   -1.400885    3.589250   -2.539721
 H   -4.373461   -1.814173    1.461142
 H   -4.891615    1.002702    1.977420
 H   -5.728785    0.421433    0.534616
 H   -6.024563   -0.369339    2.112260
