44 
5anv_ligand_ani.xyz
Cl    5.559886   -1.348683   -0.767705
 C    3.876630   -1.416642   -0.338636
 N   -0.171731   -1.522785    0.774617
 C   -1.224285   -0.711605    0.403525
 C   -2.732634   -2.730149    0.406346
 O   -2.105881   -3.369170    1.251281
 N   -3.707613   -3.313679   -0.341398
 C   -1.085509    0.709728    0.299128
 C    0.157231    2.788271    0.574669
 O    1.221612    3.537648    0.944179
 C    2.303648    2.853882    1.535798
 C   -0.920931    3.507747   -0.045957
 C   -1.769176    5.566644   -0.805952
 C    1.164018   -1.497353    0.350501
 C   -2.473580   -1.276137    0.135342
 C   -3.964349   -4.735526   -0.239686
 C   -2.169388    1.432545   -0.238402
 N   -3.360560    0.859070   -0.576352
 C   -3.480886   -0.427025   -0.373103
 C    0.063804    1.431851    0.748580
 C   -2.044914    2.833436   -0.429976
 O   -0.727589    4.838731   -0.192288
 C    3.502452   -1.834758    0.931608
 C    2.152881   -1.884273    1.255707
 C    2.919013   -1.061635   -1.279937
 C    1.580784   -1.116599   -0.930677
 F    0.670853   -0.781658   -1.859640
 H   -0.481674   -2.388542    1.215504
 H   -4.006575   -2.837962   -1.177770
 H    2.006173    2.374642    2.477907
 H    2.708055    2.093891    0.854388
 H    3.067171    3.606524    1.739168
 H   -1.960679    5.207422   -1.825359
 H   -2.695629    5.510605   -0.219858
 H   -1.429294    6.602156   -0.845659
 H   -3.301160   -5.328641   -0.881833
 H   -3.792565   -5.037710    0.793798
 H   -5.004116   -4.938567   -0.507569
 H   -4.466995   -0.840074   -0.595885
 H    0.857320    0.882237    1.240514
 H   -2.898760    3.328821   -0.876043
 H    4.256147   -2.124763    1.656312
 H    1.844923   -2.213317    2.245238
 H    3.187257   -0.744529   -2.281821
