41 
5anw_ligand_xtb.xyz
 O    5.154638   -1.717311   -0.396700
 C    4.627645   -0.694955    0.000741
 N    4.731113    0.474231   -0.672365
 C    4.101329    1.714034   -0.291689
 C    5.392623    0.483336   -1.958082
 C    3.809767   -0.675403    1.288213
 C    2.362315   -0.374859    1.019079
 C    1.700429   -1.040594   -0.007583
 C    0.369899   -0.783974   -0.274686
 C   -0.331464    0.149840    0.484423
 C    0.332784    0.828223    1.501327
 C    1.661537    0.561971    1.768919
 C   -1.741975    0.459345    0.207088
 N   -2.052913    1.730625    0.126694
 C   -3.326070    2.052806   -0.193416
 N   -3.611075    3.375746   -0.196316
 N   -4.290892    1.208519   -0.484943
 C   -4.012629   -0.102623   -0.362188
 C   -2.721475   -0.558678    0.024920
 C   -5.026978   -1.049467   -0.613764
 C   -4.775434   -2.382466   -0.447933
 C   -3.517116   -2.827991   -0.013398
 C   -2.507568   -1.934915    0.222208
 H    4.675040    2.538314   -0.716124
 H    3.074537    1.775301   -0.666348
 H    4.082969    1.833202    0.788564
 H    4.687402    0.755897   -2.746835
 H    6.219434    1.196667   -1.954836
 H    5.779061   -0.516194   -2.146558
 H    4.231954    0.036783    1.999425
 H    3.900723   -1.676500    1.718356
 H    2.240213   -1.763954   -0.601433
 H   -0.121526   -1.288376   -1.094062
 H   -0.208949    1.559818    2.080878
 H    2.159259    1.089137    2.571042
 H   -2.842121    4.020407   -0.164311
 H   -4.485509    3.664080   -0.596765
 H   -5.995098   -0.684927   -0.918727
 H   -5.554410   -3.107625   -0.634883
 H   -3.352920   -3.884374    0.140164
 H   -1.546513   -2.274791    0.579488
