41 
5anw_ligand_dft.xyz
 O    4.987227   -1.804701   -0.462150
 C    4.639794   -0.726089    0.000171
 N    4.936533    0.461531   -0.611349
 C    4.380971    1.744701   -0.228716
 C    5.582850    0.425720   -1.910122
 C    3.815259   -0.678882    1.285841
 C    2.355524   -0.382973    1.007244
 C    1.680588   -1.084022    0.005202
 C    0.340379   -0.830366   -0.257047
 C   -0.357269    0.135907    0.474386
 C    0.322282    0.852189    1.461408
 C    1.659602    0.588176    1.728087
 C   -1.779417    0.461778    0.186498
 N   -2.067183    1.740800    0.102543
 C   -3.352890    2.073989   -0.212331
 N   -3.606074    3.415389   -0.225868
 N   -4.341615    1.250469   -0.489659
 C   -4.067134   -0.073159   -0.359654
 C   -2.781491   -0.546832    0.013004
 C   -5.104505   -1.011754   -0.589569
 C   -4.874726   -2.352324   -0.414920
 C   -3.608915   -2.821496    0.005495
 C   -2.582905   -1.935556    0.216545
 H    5.106583    2.529036   -0.467009
 H    3.446147    1.958995   -0.763629
 H    4.180308    1.791620    0.841085
 H    4.870719    0.676331   -2.707759
 H    6.406068    1.148140   -1.937191
 H    5.967879   -0.578553   -2.078185
 H    4.221083    0.040212    2.004564
 H    3.918983   -1.674231    1.725524
 H    2.216484   -1.829227   -0.576649
 H   -0.160741   -1.369923   -1.055160
 H   -0.208555    1.620754    2.013745
 H    2.170966    1.148659    2.507305
 H   -2.807851    4.026124   -0.292831
 H   -4.460311    3.707678   -0.673434
 H   -6.074992   -0.629461   -0.887671
 H   -5.677788   -3.063829   -0.584800
 H   -3.453602   -3.883168    0.168709
 H   -1.618803   -2.292914    0.561784
