62 
5ap2_ligand_xtb.xyz
 O   -3.299181   -2.026157    0.288296
 C   -2.584845   -1.131873   -0.078035
 O   -1.309349   -1.272843   -0.443398
 C   -0.728384   -2.583248   -0.319174
 C   -0.337957   -2.839580    1.132007
 C    0.475148   -2.614612   -1.250067
 N   -2.980486    0.196362   -0.158912
 C   -4.301016    0.640993    0.030785
 C   -5.451394   -0.224492   -0.070854
 C   -5.710182   -1.263005   -0.990725
 N   -6.915423   -1.757162   -0.814489
 N   -7.454985   -1.082461    0.195030
 C   -8.776314   -1.392482    0.656196
 C   -6.618778   -0.142074    0.669944
 C   -4.305149    1.988474    0.220884
 C   -2.957122    2.445585    0.146799
 C   -2.150119    1.308367   -0.103796
 C   -0.784782    1.439508   -0.241769
 C   -0.267115    2.728899   -0.078554
 N   -1.023240    3.814056    0.126217
 C   -2.329409    3.682461    0.230029
 N    1.077395    2.994673   -0.186349
 C    2.137944    2.109099   -0.104309
 C    3.325893    2.405612   -0.774665
 C    4.401999    1.544269   -0.724003
 C    4.334739    0.358808    0.008232
 C    3.155692    0.079663    0.701484
 C    2.080236    0.939413    0.658034
 C    5.421860   -0.602778    0.046139
 C    5.369781   -1.973763   -0.034498
 N    6.616932   -2.499312    0.012765
 C    7.434193   -1.484389    0.134739
 C    8.910434   -1.583470    0.240247
 N    6.762490   -0.299459    0.156050
 C    7.347749    0.994445    0.361121
 H   -1.482563   -3.316807   -0.631530
 H    0.122850   -3.819113    1.219710
 H    0.368428   -2.082932    1.466842
 H   -1.220282   -2.809737    1.766871
 H    1.215666   -1.885366   -0.928760
 H    0.923093   -3.603709   -1.236231
 H    0.172600   -2.377982   -2.266744
 H   -5.072830   -1.644683   -1.761810
 H   -9.150003   -2.217280    0.053279
 H   -8.757892   -1.690246    1.706265
 H   -9.437836   -0.531113    0.542683
 H   -6.881145    0.494317    1.490650
 H   -5.173220    2.599589    0.368306
 H   -0.146482    0.616641   -0.502406
 H   -2.887236    4.595837    0.386781
 H    1.293063    3.967571   -0.349259
 H    3.392360    3.316837   -1.352094
 H    5.290006    1.779954   -1.291376
 H    3.101810   -0.819966    1.296888
 H    1.198872    0.725344    1.241942
 H    4.509727   -2.602209   -0.151509
 H    9.254273   -1.248953    1.219883
 H    9.196053   -2.621850    0.105619
 H    9.396167   -0.974575   -0.521745
 H    7.757430    1.394794   -0.570873
 H    6.591421    1.680615    0.740506
 H    8.156522    0.921157    1.089600
