62 
5ap6_ligand_xtb.xyz
 O   -3.303556   -2.021043    0.289540
 C   -2.595891   -1.128726   -0.093630
 O   -1.328162   -1.270655   -0.484355
 C   -0.738520   -2.576680   -0.357289
 C   -0.306741   -2.808191    1.086400
 C    0.439681   -2.616449   -1.319680
 N   -2.990715    0.200310   -0.169455
 C   -4.307249    0.647757    0.039136
 C   -5.458872   -0.217388   -0.052384
 C   -5.726689   -1.250495   -0.975795
 N   -6.927692   -1.750150   -0.786494
 N   -7.455568   -1.084314    0.234956
 C   -8.767282   -1.405995    0.715306
 C   -6.615995   -0.144425    0.705133
 C   -4.305046    1.994400    0.235564
 C   -2.956320    2.447688    0.147743
 C   -2.156184    1.309221   -0.118485
 C   -0.791717    1.435625   -0.269344
 C   -0.266629    2.720935   -0.099725
 N   -1.016531    3.807939    0.118222
 C   -2.322409    3.681455    0.231929
 N    1.078640    2.980883   -0.214270
 C    2.138320    2.094921   -0.126435
 C    2.074169    0.918098    0.624363
 C    3.151799    0.061284    0.675118
 C    4.339584    0.349803    0.000982
 C    4.412202    1.541106   -0.721340
 C    3.334161    2.399529   -0.779263
 C    5.431011   -0.606835    0.048685
 C    5.388201   -1.977347   -0.044230
 N    6.637177   -2.496551    0.021985
 C    7.446407   -1.478354    0.167424
 C    8.920935   -1.570707    0.299900
 N    6.767816   -0.297289    0.185740
 C    7.342405    0.998047    0.410494
 H   -1.497558   -3.318049   -0.637689
 H    0.161059   -3.784138    1.177038
 H    0.405390   -2.043321    1.388910
 H   -1.170966   -2.771525    1.745376
 H    1.183775   -1.877650   -1.029963
 H    0.894379   -3.602338   -1.301484
 H    0.108576   -2.398353   -2.331563
 H   -5.098773   -1.623915   -1.758605
 H   -9.164333   -2.197006    0.082742
 H   -8.724923   -1.756673    1.748462
 H   -9.422462   -0.534285    0.662536
 H   -6.869410    0.485160    1.533896
 H   -5.169380    2.607298    0.396882
 H   -0.159759    0.612247   -0.543319
 H   -2.874683    4.596422    0.398887
 H    1.297557    3.954424   -0.368836
 H    1.186008    0.696051    1.194819
 H    3.092395   -0.843403    1.262340
 H    5.306961    1.784335   -1.274834
 H    3.405833    3.315795   -1.348102
 H    4.534128   -2.609662   -0.182363
 H    9.247283   -1.217724    1.278996
 H    9.211865   -2.610326    0.187961
 H    9.418039   -0.973689   -0.464333
 H    7.774194    1.403094   -0.509388
 H    6.573876    1.679801    0.772832
 H    8.132794    0.925551    1.159078
