47 
5aph_ligand_ani.xyz
 C   -4.245570    1.702921   -0.654345
 C   -5.375703    0.951707   -0.951448
 C   -0.005912    0.988198    3.073688
 C   -3.110971    1.103998   -0.109183
 C   -1.074874    0.585833    2.280967
 C    1.193440    0.289158    3.036270
 C   -5.371721   -0.421377   -0.712938
 C    2.767592    2.702474   -0.584883
 C    0.344198    2.578876   -0.508925
 C    2.807343    1.418479   -1.114764
 C    0.391457    1.295390   -1.042141
 C    0.313160   -1.154579    1.284787
 C   -0.930865   -0.502499    1.415447
 C   -3.092871   -0.267376    0.159685
 C    1.323737   -0.795708    2.176039
 C    1.533264    3.254904   -0.284368
 C   -4.240990   -0.995727   -0.176890
 C    1.625420    0.710208   -1.302166
 C    0.586715   -2.198343    0.214498
 C    3.081694   -2.240617    0.018979
 C    3.410206   -1.353168    1.207609
 N    1.789232   -1.954101   -0.584000
 N   -2.014838   -0.981292    0.664534
 O    0.430299   -1.243936   -2.563591
 O    2.962504   -1.098329   -2.616877
 O    2.479076   -1.539805    2.265557
 F    1.487216    4.495883    0.235813
 F   -4.206669   -2.334016    0.043634
 S    1.698271   -0.960452   -1.912622
 H   -4.238576    2.772428   -0.843240
 H   -6.256064    1.425724   -1.374316
 H   -0.120956    1.840290    3.739089
 H   -2.230742    1.710832    0.085341
 H   -2.029237    1.100851    2.341920
 H    2.037915    0.557497    3.663683
 H   -6.226626   -1.051320   -0.940740
 H    3.671375    3.275629   -0.408286
 H   -0.596074    3.072550   -0.276620
 H    3.754650    0.960428   -1.385337
 H   -0.520535    0.739741   -1.243707
 H   -0.244598   -2.282772   -0.489018
 H    0.727856   -3.179486    0.682414
 H    3.061060   -3.282827    0.358189
 H    3.843192   -2.147961   -0.759786
 H    3.439757   -0.296979    0.913113
 H    4.386485   -1.634124    1.614071
 H   -2.124426   -1.982274    0.610206
