52 
5apj_ligand_dft.xyz
 C    3.213679    2.431134    1.867778
 C   -6.552396    0.827780   -0.478660
 C    1.833344    2.560143    1.956276
 C   -0.140173   -1.605375    1.867056
 C    1.164195   -2.002114    2.122815
 C   -5.549792    1.526531   -1.140822
 C    3.785008    1.817438    0.757116
 C   -6.289408   -0.404742    0.107939
 C    0.346200   -1.521946   -0.494136
 C    1.578985    1.473995   -0.189309
 C   -3.971117   -0.262150   -0.626303
 C    1.659724   -1.905392   -0.238711
 C    1.021716    2.090980    0.924010
 C   -0.560186   -1.365189    0.557162
 C    2.063406   -2.158576    1.075002
 C   -4.285434    0.966287   -1.207573
 C    2.960611    1.326487   -0.250204
 C   -5.005248   -0.933963    0.029459
 C   -2.572866   -0.809097   -0.805279
 C    2.654359   -2.013840   -1.370775
 C    4.849195   -1.564718   -0.272309
 C    4.376416   -1.655883    1.176876
 C   -0.467916    2.270052    1.040903
 N    3.826388   -1.144252   -1.225550
 N   -1.883477   -0.927739    0.366906
 O   -2.137153   -1.080075   -1.906707
 O    5.057518    0.963580   -1.745730
 O    2.748661    0.527297   -2.731051
 O    3.333532   -2.603466    1.359381
 F   -3.320271    1.638055   -1.837497
 F   -1.110029    1.971907   -0.093611
 F   -0.983772    1.486007    2.014263
 F   -0.784629    3.533482    1.369225
 S    3.698753    0.458948   -1.635513
Cl   -4.711158   -2.494911    0.762398
 H    3.847157    2.819160    2.658455
 H   -7.551606    1.246546   -0.419937
 H    1.384505    3.043650    2.818000
 H   -0.836233   -1.478344    2.691603
 H    1.497787   -2.201567    3.135614
 H   -5.729009    2.489168   -1.605228
 H    4.862239    1.730924    0.659254
 H   -7.069109   -0.958697    0.617353
 H    0.024269   -1.329528   -1.509728
 H    0.957932    1.124103   -1.004661
 H    2.177027   -1.783180   -2.323701
 H    3.048423   -3.034600   -1.432626
 H    5.196630   -2.553417   -0.593427
 H    5.696993   -0.879625   -0.349558
 H    4.054394   -0.677288    1.551348
 H    5.208273   -2.005816    1.795702
 H   -2.366377   -0.628019    1.201053
