22 
5aqh_ligand_ani.xyz
 C    0.950957    8.605723   33.633130
 N   -0.106530    7.780692   33.060466
 C   -0.064835    6.431043   33.178260
 N   -0.268479    3.655336   33.257201
 C   -1.127888    5.764904   32.614398
 N    0.906929    5.729311   33.781610
 C   -1.205914    4.397362   32.668605
 N   -2.378815    4.081398   32.023826
 C    0.723822    4.400660   33.771060
 N   -1.139815    8.433400   32.440536
 C   -2.999032    5.239418   31.586940
 N   -3.156894    8.495588   31.323450
 C   -2.223800    6.332905   31.950216
 C   -2.138978    7.768378   31.903076
 H    0.758382    9.634303   33.322470
 H    0.943875    8.526126   34.724074
 H    1.922084    8.259055   33.270476
 H   -2.738383    3.149148   31.886181
 H    1.511431    3.830362   34.260433
 H   -3.944699    5.159803   31.064475
 H   -2.907518    9.458575   31.137009
 H   -3.642900    8.036510   30.568109
