21 
5aqo_ligand_xtb.xyz
 N    1.489871   -1.758946    0.000537
 C    2.562811   -1.025716   -0.000072
 N    2.640183    0.307287   -0.000860
 C    1.505386    0.984034   -0.000008
 C   -1.015915    0.944074    0.001482
 C   -2.179242    0.209545    0.000148
 C   -2.100041   -1.192827   -0.000930
 C   -0.893831   -1.838535   -0.000247
 C    0.237226    0.314750    0.001114
 C    0.304758   -1.102379    0.000647
 C   -3.510172    0.900725   -0.000389
 N    1.607052    2.328540    0.000142
 H    3.513999   -1.544407   -0.000264
 H   -1.082006    2.023917    0.002766
 H   -3.016248   -1.766453   -0.002439
 H   -0.826946   -2.914873   -0.000845
 H   -3.611580    1.532685    0.881405
 H   -3.608094    1.537999   -0.878727
 H   -4.323180    0.179737   -0.004192
 H    2.527891    2.728648   -0.004151
 H    0.800546    2.922552   -0.002758
