21 
5aqq_ligand_ani.xyz
 N   -2.485720    1.805164    0.015601
 C   -1.886958    0.573553   -0.001191
 C   -0.457366    0.459913    0.003882
 C    0.436919    1.550018    0.045030
 N   -2.671630   -0.486865    0.031463
 C   -2.052131   -1.691159    0.021129
 N   -0.773578   -1.944783   -0.008054
 C    0.049976   -0.855458   -0.014886
 C    1.448730   -1.050633   -0.032980
 C    2.319126    0.015711   -0.006710
 C    3.812239   -0.206015   -0.012279
 C    1.793311    1.328363    0.036719
 H   -2.018843    2.553562   -0.474381
 H   -3.485149    1.773242   -0.137186
 H    0.057751    2.567742    0.106528
 H   -2.721773   -2.551010    0.037196
 H    1.813357   -2.073025   -0.061102
 H    4.132470   -0.764670    0.874832
 H    4.123825   -0.782130   -0.890832
 H    4.352967    0.743260   -0.023396
 H    2.478830    2.172658    0.062986
