22 
5aqr_ligand_dft.xyz
 N   -1.379558    2.508355   -0.000004
 C   -1.587524    1.168205   -0.000105
 N   -2.847662    0.765886   -0.000445
 C   -3.063794   -0.566673   -0.000341
 N   -2.178490   -1.530211   -0.000161
 C   -0.873617   -1.125609    0.000099
 C   -0.495374    0.232697   -0.000025
 C    0.874609    0.597556   -0.000148
 C    1.840779   -0.383283    0.000135
 O    3.179101   -0.163613   -0.000021
 C    3.627581    1.171553   -0.000588
 C    1.465747   -1.751128    0.000490
 C    0.148087   -2.110928    0.000437
 H   -2.191088    3.104661    0.002580
 H   -0.466967    2.924886    0.005186
 H   -4.111210   -0.862064   -0.001296
 H    1.162959    1.642236   -0.000840
 H    3.287982    1.708458   -0.896306
 H    3.288106    1.709165    0.894758
 H    4.716950    1.125144   -0.000638
 H    2.256955   -2.493803    0.000684
 H   -0.155493   -3.152327    0.000588
