37 
5aqt_ligand_ani.xyz
 O    1.886436   -2.168266   -0.683647
 C    2.022257   -0.768262   -0.548126
 C    3.500716   -0.376007   -0.499682
 O    4.199722   -1.310717    0.294263
 C    3.515635    0.962860    0.251842
 C    3.179869    2.169666   -0.614891
 O    1.791776    2.170032   -0.940171
 C    2.486728    0.723588    1.374042
 C    1.434107   -0.241594    0.791752
 N    0.132066    0.378313    0.626690
 C   -0.957278   -0.380434    0.330067
 C   -2.248457    0.235856    0.182272
 C   -2.499096    1.621785    0.324779
 C   -3.769305    2.111684    0.140786
 C   -4.826463    1.234495   -0.183244
 C   -4.603194   -0.113631   -0.306061
 C   -3.306979   -0.644685   -0.115484
 N   -3.125785   -2.004134   -0.224145
 C   -1.910515   -2.428061   -0.047433
 N   -0.798119   -1.697838    0.220514
 H    0.961381   -2.356998   -0.424194
 H    1.534229   -0.262438   -1.390060
 H    3.932817   -0.299476   -1.511929
 H    3.781195   -2.169368    0.120943
 H    4.519482    1.123535    0.655712
 H    3.433789    3.085311   -0.062073
 H    3.791350    2.144176   -1.529660
 H    1.615250    2.933832   -1.503756
 H    2.980270    0.243924    2.225477
 H    2.024099    1.648481    1.731485
 H    1.295999   -1.102824    1.451890
 H    0.174519    1.301415    0.210213
 H   -1.690151    2.299261    0.595325
 H   -3.963014    3.176249    0.241498
 H   -5.826757    1.633970   -0.331397
 H   -5.405823   -0.803742   -0.547375
 H   -1.747381   -3.501645   -0.140792
