56 
5ar5_ligand_dft.xyz
 C  -34.694741   44.218039  -12.058285
 O  -35.450534   44.709769  -10.984012
 C  -35.940909   43.686661  -10.157096
 C  -36.810385   44.337266   -9.086655
 N  -37.306512   43.379519   -8.119154
 C  -38.379486   42.582231   -8.398599
 O  -38.987120   42.657374   -9.457669
 C  -38.773487   41.605865   -7.328056
 C  -39.515201   40.480330   -7.745046
 C  -39.933362   39.510452   -6.852156
 C  -39.598804   39.705761   -5.511514
 N  -39.864364   38.972020   -4.373793
 C  -40.707304   37.795322   -4.311626
 C  -39.945507   36.517851   -4.691433
 O  -40.721188   35.369893   -4.480392
 C  -40.694473   34.902602   -3.153665
 C  -39.295626   39.677529   -3.323805
 N  -38.705191   40.783615   -3.698978
 C  -38.881886   40.830647   -5.068446
 C  -38.462063   41.794683   -5.985969
 C  -39.389188   39.241175   -1.939156
 C  -39.616453   39.958799   -0.790070
 N  -39.636731   39.138393    0.298900
 C  -39.412679   37.921801   -0.159387
 N  -39.265147   37.932919   -1.515515
 C  -39.357221   36.705646    0.657355
 C  -39.794122   36.767458    1.984563
 C  -39.773955   35.638614    2.790426
 C  -39.313554   34.434009    2.266703
Cl  -39.292617   33.007705    3.273467
 C  -38.865018   34.350100    0.953955
 C  -38.885947   35.488554    0.157569
 H  -34.361819   45.078608  -12.642724
 H  -33.811470   43.658427  -11.710793
 H  -35.291713   43.555232  -12.703765
 H  -36.546337   42.966861  -10.728541
 H  -35.109907   43.131728   -9.686281
 H  -36.233857   45.103641   -8.560785
 H  -37.665801   44.819255   -9.564189
 H  -36.710019   43.131422   -7.345817
 H  -39.756275   40.400118   -8.799315
 H  -37.943074   42.678247   -5.627752
 H  -40.499122   38.646112   -7.186906
 H  -41.118160   37.719806   -3.302050
 H  -41.552767   37.930856   -4.992351
 H  -39.688107   36.543761   -5.754582
 H  -38.991521   36.464632   -4.136378
 H  -41.347284   34.029706   -3.106773
 H  -39.676227   34.596383   -2.863515
 H  -41.057558   35.646694   -2.428802
 H  -39.774252   41.024650   -0.712207
 H  -39.027220   37.145269   -2.097354
 H  -40.150375   37.715717    2.372175
 H  -38.504330   35.411693   -0.857106
 H  -40.115585   35.688896    3.818326
 H  -38.495444   33.408681    0.563021
