46 
5ar7_ligand_ani.xyz
 O   -1.120466   -0.069934    0.668395
 C   -1.170166   -1.118187    0.053997
 N   -2.355724   -1.643916   -0.438014
 C   -3.599524   -1.019466   -0.353953
 C   -3.931022    0.297029    0.081598
 C   -5.276879    0.341997   -0.086154
 C   -6.328771    1.395724    0.149439
 C   -5.637215    2.666475    0.644040
 C   -7.074753    1.687673   -1.162394
 C   -7.328333    0.903007    1.208514
 N   -4.654885   -1.693524   -0.739374
 N   -0.074873   -1.909929   -0.233853
 C    1.269524   -1.591682    0.057001
 C    1.626684   -0.741612    1.107371
 C    2.968014   -0.482817    1.353919
 C    3.947266   -1.055062    0.553373
 C    3.605707   -1.914762   -0.480580
 C    2.266075   -2.186681   -0.723196
 O    5.282632   -0.787918    0.804876
 C    5.831134    0.319665    0.224225
 C    5.161154    1.152004   -0.669230
 C    5.860329    2.242935   -1.179885
 N    7.121506    2.546879   -0.877963
 C    7.740848    1.730876   -0.020596
 C    7.151848    0.614841    0.554374
 O   -5.721285   -0.829346   -0.565829
 H   -2.398567   -2.588812   -0.794013
 H   -3.241987    1.038608    0.451842
 H   -4.921659    3.033211   -0.099027
 H   -6.372418    3.457451    0.830579
 H   -5.096513    2.475935    1.576623
 H   -7.820974    2.473806   -1.000274
 H   -6.377343    2.027192   -1.935948
 H   -7.585947    0.793049   -1.529552
 H   -6.815804    0.682587    2.151310
 H   -8.082894    1.675052    1.397522
 H   -7.837287   -0.005559    0.873119
 H   -0.190831   -2.652904   -0.906661
 H    0.856149   -0.283344    1.712690
 H    3.266373    0.181418    2.160542
 H    4.393072   -2.351915   -1.087305
 H    1.993722   -2.858187   -1.533963
 H    4.131996    0.972707   -0.962488
 H    5.366436    2.915941   -1.879045
 H    8.771678    1.986371    0.220813
 H    7.692061   -0.023328    1.246966
