72 
5ar8_ligand_ani.xyz
 C   -6.306173    0.425871   -2.236755
 S   -6.512725    0.453687   -0.466493
 O   -7.874854    0.890895   -0.182054
 O   -5.371519    1.173149    0.097765
 C   -6.390175   -1.273336   -0.023944
 C   -7.507715   -1.931597    0.472929
 C   -7.378666   -3.272854    0.819996
 C   -6.159806   -3.924289    0.682298
 C   -5.035409   -3.238985    0.198449
 N   -3.823035   -3.937133    0.090741
 C   -2.538533   -3.445454    0.117758
 N   -1.583697   -4.387074    0.246514
 C   -0.339368   -3.926119    0.319821
 C   -0.015349   -2.572406    0.257520
 C   -1.075847   -1.686088    0.080389
 N   -2.341119   -2.138154    0.021659
 C   -0.919635   -0.235534    0.009769
 S   -2.328930    0.715741    0.390381
 C   -1.315716    2.132135    0.466178
 N   -0.059386    1.911557    0.174427
 C    0.163931    0.603864   -0.166590
 C    1.484483    0.273435   -0.725404
 C    1.640560   -0.660139   -1.752429
 C    2.904349   -0.898356   -2.277851
 C    4.022063   -0.223680   -1.796260
 C    3.865149    0.702768   -0.762687
 N    4.940297    1.448176   -0.227312
 S    6.559822    1.110285   -0.428845
 O    6.842293    1.018282   -1.843671
 O    7.237943    2.065599    0.418720
 C    6.718407   -0.503076    0.289154
 C    7.041217   -1.647727   -0.435199
 F    7.229964   -1.579020   -1.756649
 C    7.166834   -2.888256    0.174950
 C    6.940093   -2.992239    1.542278
 C    6.583676   -1.875208    2.291438
 C    6.473688   -0.653232    1.649182
 F    6.110817    0.418251    2.364264
 C    2.598221    0.956731   -0.248433
 N   -1.780117    3.364489    0.797558
 C   -0.837724    4.459365    0.963966
 C   -1.265832    5.626392    0.083348
 O   -2.599011    6.001762    0.364732
 C   -3.497419    4.937016    0.127894
 C   -3.169747    3.736022    1.010344
 C   -5.165065   -1.905159   -0.185683
 H   -7.110262   -0.163750   -2.681591
 H   -6.358141    1.460564   -2.581586
 H   -5.329736   -0.003188   -2.477222
 H   -8.443534   -1.391259    0.577385
 H   -8.236800   -3.815919    1.204514
 H   -6.071897   -4.971890    0.961385
 H   -3.859195   -4.934720    0.236503
 H    0.441147   -4.675080    0.438805
 H    1.004717   -2.225505    0.348116
 H    0.775098   -1.197526   -2.128325
 H    3.026925   -1.617739   -3.080606
 H    4.996144   -0.407448   -2.237165
 H    4.759391    1.957988    0.628815
 H    7.432508   -3.744914   -0.435447
 H    7.033944   -3.958013    2.029348
 H    6.388025   -1.929809    3.356826
 H    2.455808    1.706628    0.524671
 H    0.159201    4.102765    0.701535
 H   -0.833978    4.783781    2.015246
 H   -1.160948    5.350217   -0.977375
 H   -0.642903    6.505239    0.276403
 H   -3.466373    4.639533   -0.932371
 H   -4.499910    5.315363    0.351080
 H   -3.301405    4.023414    2.062611
 H   -3.853703    2.914097    0.784850
 H   -4.318180   -1.381041   -0.603216
