57 
5arf_ligand_dft.xyz
 C   -2.806802   -2.132033    0.916175
 C   -3.883096   -2.998978    1.019023
 C   -5.022388   -2.761191    0.253149
Cl   -6.382962   -3.845284    0.382998
 C   -5.092434   -1.673671   -0.608424
 C   -4.007054   -0.810686   -0.707143
 C   -2.852601   -1.030940    0.051218
 C   -1.711903   -0.114411   -0.048422
 N   -0.602479   -0.312143    0.569216
 C   -1.726239    1.206612   -0.808683
 N   -2.583187    2.209849   -0.182894
 C   -2.352131    2.584224    1.216899
 C   -3.186234    1.791310    2.222844
 C   -3.607995    2.718781   -0.917201
 O   -3.874458    2.330732   -2.053645
 C   -4.449751    3.854983   -0.329192
 O   -5.492235    4.165447   -1.196108
 C   -0.227678    1.539033   -0.781663
 N    0.245174    0.773601    0.378254
 C    1.633738    0.367932    0.386916
 N    1.935432   -0.143108    1.724640
 C    3.123096    0.045072    2.293039
 N    4.153905    0.257637    2.792551
 N    1.883450   -0.556902   -0.692396
 C    3.170611   -1.045953   -0.965868
 C    4.314376   -0.304618   -0.654286
 C    3.305891   -2.283136   -1.602599
 C    4.569982   -2.771911   -1.909748
 C    5.715182   -2.062643   -1.571680
 C    5.569851   -0.834235   -0.935652
 O    6.730311   -0.170181   -0.620379
 C    6.721867    0.657642    0.474845
 F    8.001306    0.846438    0.815499
 F    6.208391    1.872244    0.139811
 H   -1.916797   -2.301114    1.513194
 H   -3.846875   -3.849637    1.690587
 H   -5.987405   -1.500034   -1.195271
 H   -4.074398    0.037014   -1.383239
 H   -2.094830    1.094924   -1.827723
 H   -2.540617    3.655689    1.327234
 H   -1.288845    2.434698    1.422644
 H   -3.004649    2.176228    3.231143
 H   -2.923500    0.731215    2.211736
 H   -4.256777    1.876528    2.013706
 H   -3.790897    4.724853   -0.170060
 H   -4.849384    3.568765    0.652062
 H   -5.318367    3.646618   -2.001013
 H   -0.027163    2.605509   -0.656930
 H    0.254492    1.178729   -1.699420
 H    2.235947    1.267525    0.248559
 H    1.373576   -0.923733    2.037648
 H    1.170934   -1.277439   -0.728128
 H    4.243896    0.673278   -0.196999
 H    2.419970   -2.857385   -1.860732
 H    4.663292   -3.733518   -2.404773
 H    6.709074   -2.443375   -1.775397
 H    6.147658    0.258733    1.316600
