34 
5aut_ligand_xtb.xyz
 C   -0.056276    1.088199    0.345624
 C    0.257636    2.440660    0.361332
 C   -0.712322    3.423715    0.200629
 C   -2.027444    3.075581    0.045823
 C   -2.405685    1.720574    0.024023
 C   -3.767368    1.378120   -0.124518
 C   -4.171524    0.076406   -0.192009
 C   -3.207313   -0.936804   -0.140737
 N    0.919165    0.158368    0.587511
 S   -0.865630   -2.106270   -0.004790
 C   -1.882138   -0.636133    0.025209
 C   -1.417059    0.691761    0.145878
 C    2.260105    0.228733    0.246991
 C    2.745857    1.041642   -0.776816
 C    4.093036    1.037315   -1.086185
 C    4.975010    0.225003   -0.393872
 C    4.492837   -0.606551    0.604747
 C    3.149734   -0.609656    0.921771
 O   -0.156417   -2.282225    1.230853
 O    0.213808   -1.781289   -1.167274
 O   -1.633898   -3.216808   -0.479735
 H    1.279990    2.730069    0.546937
 H   -0.420674    4.463064    0.226854
 H   -2.792583    3.829563   -0.056122
 H   -4.487664    2.180610   -0.188372
 H   -5.213286   -0.180457   -0.302668
 H   -3.487380   -1.971988   -0.242733
 H    0.641781   -0.714018    1.020938
 H    2.064678    1.653443   -1.348508
 H    4.455282    1.670041   -1.883664
 H    6.026288    0.229544   -0.639207
 H    5.169635   -1.257393    1.138671
 H    2.766317   -1.266737    1.688352
 H    0.063077   -2.362820   -1.914494
