30 
5auv_ligand_xtb.xyz
 C   -3.088590    1.123674    0.424066
 C   -4.437951    0.848755    0.418423
 C   -4.898567   -0.397895   -0.001948
 O   -6.234627   -0.624510    0.003278
 C   -3.981917   -1.363200   -0.405574
 C   -2.630668   -1.085224   -0.392679
 C   -2.161679    0.163739    0.013401
 C   -0.721850    0.440116    0.003516
 O    0.032872   -0.682170    0.062241
 C   -0.175657    1.671404   -0.078673
 C    1.264170    1.899024   -0.103078
 O    1.745908    3.014828   -0.177760
 C    2.044007    0.650265   -0.032766
 C    1.382007   -0.581856    0.046654
 C    2.077155   -1.783950    0.116779
 C    3.461441   -1.771714    0.108028
 O    4.113804   -2.955366    0.179338
 C    4.143598   -0.560147    0.026738
 C    3.455270    0.641503   -0.043878
 O    4.104890    1.811689   -0.123314
 H   -2.748634    2.086635    0.769824
 H   -5.159006    1.583426    0.739192
 H   -6.421490   -1.520328   -0.303814
 H   -4.332054   -2.334015   -0.731385
 H   -1.926084   -1.837877   -0.710392
 H   -0.799804    2.545962   -0.151125
 H    1.542896   -2.716036    0.180175
 H    5.068231   -2.812483    0.166847
 H    5.227612   -0.554109    0.019499
 H    5.060944    1.676093   -0.123137
