32 
5auw_ligand_xtb.xyz
 C    4.534682   -0.506991    0.027463
 C    3.766367    0.642482   -0.002979
 C    2.351580    0.531067   -0.008153
 C    1.755341   -0.737868    0.015676
 C    2.541285   -1.884083    0.045044
 C    3.924817   -1.761437    0.050893
 C    1.510355    1.691757   -0.037368
 C    0.077229    1.443740   -0.034241
 C   -0.424858    0.171384   -0.013247
 C   -1.831829   -0.212679   -0.019287
 C   -2.185687   -1.559496   -0.131891
 C   -3.509465   -1.946718   -0.139881
 C   -4.521156   -1.002455   -0.033800
 C   -4.172726    0.352403    0.080719
 C   -2.850027    0.739544    0.087833
 O    0.419122   -0.894675    0.010746
 O    1.915667    2.872196   -0.065999
 O   -5.209079    1.246820    0.183867
 O   -5.818877   -1.381488   -0.041284
 O   -0.669151    2.574720   -0.063079
 O    4.729657   -2.844406    0.078746
 O    4.347682    1.840332   -0.027100
 H    5.608916   -0.437775    0.032642
 H    2.063291   -2.851512    0.063553
 H   -1.413373   -2.305753   -0.217672
 H   -3.785332   -2.984835   -0.229308
 H   -2.604794    1.784628    0.178916
 H   -4.852395    2.139375    0.249580
 H   -6.364266   -0.586105    0.040716
 H   -0.004370    3.298091   -0.090040
 H    4.203482   -3.653865    0.092194
 H    3.633215    2.525841   -0.048441
