31 
5aux_ligand_ani.xyz
 C   -4.224160   -0.674699   -0.139262
 C   -3.515544    0.515556   -0.056209
 C   -2.098584    0.503385    0.029811
 C   -1.455432   -0.736089    0.035276
 C   -2.146412   -1.936586   -0.035219
 C   -3.536356   -1.888321   -0.127014
 C   -1.320909    1.724267    0.116035
 C    0.124134    1.545096    0.140948
 C    0.677714    0.303566    0.081415
 C    2.117409    0.007805    0.037505
 C    3.041926    0.908617   -0.507973
 C    4.386761    0.587579   -0.577883
 C    4.839266   -0.636842   -0.085540
 C    3.936911   -1.542726    0.472898
 C    2.590389   -1.222043    0.523301
 O   -0.103025   -0.822670    0.128453
 O   -1.802516    2.871247    0.160954
 O    6.170235   -0.890430   -0.179028
 O    0.862957    2.671483    0.231160
 O   -4.289171   -3.012231   -0.206756
 O   -4.200425    1.659094   -0.062531
 H   -5.304587   -0.659795   -0.210764
 H   -1.594335   -2.870352   -0.018764
 H    2.702187    1.865000   -0.888386
 H    5.107511    1.277249   -1.006964
 H    4.286306   -2.499919    0.858878
 H    1.882418   -1.929141    0.943660
 H    6.353737   -1.763861    0.188864
 H    0.226033    3.404882    0.277650
 H   -3.708909   -3.783409   -0.187589
 H   -3.557482    2.396014    0.016855
