32 
5auy_ligand_xtb.xyz
 O   -0.830565    2.477991   -0.470704
 C   -0.063218    1.393268   -0.242954
 C    1.380032    1.668727   -0.264142
 O    1.740828    2.828815   -0.443592
 C    2.219054    0.498399   -0.085349
 C    3.633476    0.563786   -0.086072
 O    4.215022    1.761591   -0.241586
 C    4.380850   -0.587445    0.070757
 C    3.757256   -1.825849    0.231245
 O    4.548943   -2.912115    0.380096
 C    2.377619   -1.912761    0.234110
 C    1.612134   -0.757240    0.076706
 O    0.279316   -0.925128    0.091193
 C   -0.554244    0.143455   -0.049763
 C   -1.974320   -0.214236   -0.046332
 C   -2.410043   -1.347834   -0.728301
 C   -3.744583   -1.680634   -0.795408
 C   -4.686131   -0.869935   -0.166932
 O   -5.996480   -1.208365   -0.265686
 C   -4.266346    0.243961    0.547891
 C   -2.918946    0.572892    0.628135
 O   -2.488938    1.602624    1.388379
 H   -0.179971    3.210615   -0.557584
 H    5.176964    1.675583   -0.227852
 H    5.459961   -0.550565    0.072291
 H    4.007652   -3.704508    0.483978
 H    1.871816   -2.858195    0.358086
 H   -1.677263   -1.962469   -1.227182
 H   -4.082361   -2.550306   -1.333933
 H   -6.542893   -0.565370    0.202114
 H   -4.995764    0.861912    1.060060
 H   -3.238699    2.108670    1.723674
