54 
5avi_ligand_ani.xyz
 C   -4.320282   -1.890400   -0.608943
 C   -2.985124   -2.035133   -0.965677
 C    3.556576   -1.009899    1.333287
 C    3.618450   -1.278624   -1.052398
 C    2.172622   -1.010710    1.299069
 C    2.226955   -1.275709   -1.101454
 C   -3.830496    0.301177    0.257642
 C   -2.498272    0.175374   -0.138522
 C   -4.736573   -0.720835    0.019478
 C   -2.056433   -1.027950   -0.716884
 C    4.293452   -1.139155    0.155357
 C    1.499460   -1.139697    0.080630
 C   -1.657047    1.388343    0.123672
 C    6.422242    0.044490    0.477866
 C    5.602513    1.300956    0.687194
 C    0.940226    2.644901    0.860111
 C    1.396828    2.361631   -1.587890
 C   -0.384540    3.951991   -0.842528
 C    6.455576   -2.310125   -0.168929
 C   -0.603687   -1.271907   -1.041964
 C   -6.164236   -0.590123    0.461305
 C    0.316995    2.627693   -0.537845
 N    5.719011   -1.107189    0.184396
 O   -1.951728    2.198924    0.976154
 O    7.638919    0.049007    0.553378
 O    0.145012   -1.090227    0.155733
 O   -0.604982    1.508855   -0.701505
 F   -7.014035   -0.974960   -0.510261
 F   -6.425621   -1.366202    1.531410
 F   -6.482635    0.670497    0.799781
 H   -5.036379   -2.680854   -0.805797
 H   -2.658537   -2.958052   -1.438556
 H    4.076092   -0.914829    2.283187
 H    4.192950   -1.372870   -1.971297
 H    1.587931   -0.886137    2.205608
 H    1.733774   -1.368114   -2.065034
 H   -4.122701    1.223804    0.749313
 H    5.133111    1.292409    1.676941
 H    6.267868    2.160965    0.619608
 H    4.795078    1.375704   -0.046818
 H    1.392720    1.675930    1.094743
 H    1.728829    3.404730    0.886103
 H    0.195256    2.880895    1.621183
 H    2.126253    3.178401   -1.589831
 H    1.933938    1.427094   -1.389412
 H    0.943669    2.297611   -2.581062
 H   -1.145269    4.175425   -0.092960
 H    0.355252    4.759739   -0.847826
 H   -0.857599    3.907126   -1.828239
 H    6.213004   -3.125926    0.521904
 H    6.215116   -2.637253   -1.188957
 H    7.519214   -2.075939   -0.102164
 H   -0.260745   -0.567096   -1.805969
 H   -0.470285   -2.296673   -1.409364
