51 
5axp_ligand_ani.xyz
 C   -0.060219   -3.707029    1.556858
 C   -0.984551   -2.906637    2.225301
 C   -0.222122   -3.965361    0.195767
 C   -2.057658   -2.350407    1.538645
 C   -1.298330   -3.422824   -0.494893
 C    2.337961   -0.736966    0.097032
 C    1.000730   -0.370773    0.093746
 C   -4.950630   -0.761803   -1.242722
 C    2.987480    1.555836   -0.266427
 C   -5.150122   -2.110882   -1.566093
 C   -2.199193   -2.595921    0.172524
 C    3.343099    0.216777   -0.088828
 C    0.629303    0.963156   -0.074963
 C    1.652438    1.897867   -0.254446
 C   -3.713292   -0.728322   -0.629295
 C   -1.263599    2.515517    0.291848
 C   -2.865502    0.425305   -0.266830
 C   -2.588509    2.753374    0.395471
 C   -3.539697    1.682413    0.105799
 C    5.751599    0.547664   -0.605897
 C    5.109201   -1.517183    0.284255
 C    6.630349   -1.350921    0.317457
 C   -2.307777    5.019325    1.037547
 N   -4.145850   -2.878868   -1.166667
 N   -1.569515    0.258123   -0.326099
 N   -3.284147   -2.037322   -0.565862
 N   -0.743558    1.286446   -0.057484
 N    4.688557   -0.176642   -0.075084
 O   -4.750349    1.849357    0.169365
 O    5.731005    1.625603   -1.136283
 O    6.887349   -0.178927   -0.452329
 O   -3.158894    3.923224    0.743229
 F    1.360858    3.205522   -0.459094
 H    0.782663   -4.133045    2.094415
 H   -0.862668   -2.708494    3.286804
 H    0.492448   -4.595516   -0.328364
 H   -2.775179   -1.719345    2.057120
 H   -1.446408   -3.628525   -1.550297
 H    2.600882   -1.778666    0.239667
 H    0.237480   -1.123929    0.236352
 H   -5.589153    0.092863   -1.407913
 H    3.736510    2.323621   -0.416757
 H   -5.988339   -2.569082   -2.072910
 H   -0.518221    3.282696    0.492545
 H    4.703161   -1.820707    1.252560
 H    4.793963   -2.248774   -0.471674
 H    7.162152   -2.182620   -0.145201
 H    7.002746   -1.194590    1.334349
 H   -1.657856    4.795204    1.891001
 H   -1.690319    5.280576    0.170899
 H   -2.968639    5.849161    1.284625
