90 
5azg_ligand_ani.xyz
 N    0.965351    0.452935   -2.605709
 C    2.318284   -0.128212   -2.377782
 C    2.147460   -1.424581   -1.576498
 O    2.092113   -2.509195   -2.154116
 C    3.251556    0.894868   -1.712092
 C    3.681363    2.018792   -2.627239
 O    3.790404    3.187921   -2.308343
 O    3.980783    1.607765   -3.863674
 N    2.027928   -1.310845   -0.225427
 C    1.784173   -2.506875    0.579781
 C    0.271512   -2.795787    0.599070
 O   -0.384720   -2.657043    1.632570
 C    2.338055   -2.356978    1.995651
 C    3.836243   -2.146172    2.021805
 C    4.700361   -3.182627    1.660131
 C    4.386915   -0.917643    2.387753
 C    6.079050   -2.996722    1.666104
 C    5.766511   -0.723437    2.390644
 C    6.615152   -1.764037    2.029670
 N   -0.247543   -3.180529   -0.593281
 C   -1.625212   -2.928999   -1.054840
 C   -1.777323   -1.413924   -1.309898
 O   -1.402185   -0.933874   -2.380115
 C   -2.747709   -3.593235   -0.217186
 O   -2.956706   -3.015097    1.061258
 C   -2.524332   -5.095635   -0.092725
 N   -2.268572   -0.688497   -0.288888
 C   -2.489602    0.736191   -0.351139
 C   -1.187513    1.543880   -0.118076
 O   -0.070034    1.038652   -0.010137
 C   -3.616973    1.117488    0.636169
 C   -4.909213    0.384271    0.342754
 C   -5.708666    0.786081   -0.728297
 C   -5.299832   -0.730871    1.089169
 C   -6.873992    0.095668   -1.047548
 C   -6.462463   -1.427693    0.769417
 C   -7.252471   -1.015218   -0.299809
 N   -1.351873    2.888284   -0.096996
 C   -0.262865    3.813737    0.168141
 C    0.882837    3.584438   -0.830818
 O    2.056317    4.011663   -0.378290
 C    0.196406    3.801554    1.636089
 C   -0.905940    4.127354    2.649934
 C   -0.341400    4.032916    4.068292
 C   -1.522945    5.508013    2.417886
 O    0.722192    3.114508   -1.936736
 H    0.247220   -0.257264   -2.832158
 H    0.990567    1.164572   -3.347524
 H    0.644019    0.921675   -1.743888
 H    2.741793   -0.433557   -3.333165
 H    2.789674    1.333482   -0.824208
 H    4.164665    0.382982   -1.389580
 H    4.261675    2.397021   -4.357786
 H    1.637662   -0.439859    0.133837
 H    2.286366   -3.324914    0.052311
 H    2.073126   -3.258502    2.557811
 H    1.822656   -1.527661    2.491666
 H    4.286980   -4.148750    1.371552
 H    3.725754   -0.103154    2.678413
 H    6.736493   -3.815453    1.383156
 H    6.177177    0.241271    2.679611
 H    7.692558   -1.617832    2.032166
 H    0.437181   -3.237590   -1.345388
 H   -1.665199   -3.377383   -2.051354
 H   -3.677645   -3.416031   -0.773223
 H   -2.081400   -3.011642    1.508863
 H   -1.610477   -5.312430    0.469715
 H   -3.371049   -5.541863    0.435424
 H   -2.442780   -5.559476   -1.081336
 H   -2.582836   -1.212036    0.522525
 H   -2.812299    0.978299   -1.374206
 H   -3.802042    2.197009    0.591768
 H   -3.282220    0.899474    1.658141
 H   -5.409775    1.649401   -1.321387
 H   -4.689918   -1.066126    1.925530
 H   -7.486097    0.424277   -1.883918
 H   -6.744173   -2.299554    1.355651
 H   -8.160015   -1.558348   -0.549220
 H   -2.272461    3.268784   -0.242913
 H   -0.640919    4.812195   -0.085867
 H    2.738916    3.831956   -1.073405
 H    1.016416    4.519100    1.746202
 H    0.606003    2.808685    1.851483
 H   -1.701851    3.375006    2.553992
 H    0.080008    3.040581    4.265983
 H    0.456167    4.772384    4.217742
 H   -1.118762    4.224819    4.816374
 H   -0.748823    6.286899    2.426494
 H   -2.054823    5.572147    1.462271
 H   -2.244426    5.745945    3.207520
