82 
5b2d_ligand_xtb.xyz
 O    5.429496    1.329017    0.297944
 C    4.897985    2.426945    0.302724
 C    5.693258    3.707126    0.438159
 N    3.577423    2.645127    0.144262
 C    2.475986    1.699638    0.194343
 C    2.860565    0.278376   -0.226427
 O    1.737211   -0.583020   -0.110454
 C    3.271448    0.258011   -1.718772
 O    2.190344    0.648301   -2.524907
 C    3.834088   -1.103608   -2.199407
 O    3.025002   -2.189724   -1.807088
 C    5.295397   -1.338730   -1.769949
 O    5.440981   -1.436722   -0.375957
 C    1.885983    1.702653    1.622445
 O    1.435684    2.986574    1.958882
 C    0.757854    0.673585    1.741561
 C    1.118711   -0.694225    1.143577
 C    1.983711   -1.522341    2.128954
 O    3.158967   -0.979105    2.409711
 O    1.603889   -2.560043    2.604626
 O   -0.090382   -1.378695    0.978840
 C   -0.122630   -2.416573    0.007426
 C   -1.121691   -3.491782    0.447562
 C   -2.559744   -2.926147    0.469614
 O   -2.891074   -2.353855   -0.792170
 C   -2.809690   -1.998844    1.662196
 O   -4.205798   -1.796136    1.790735
 O   -0.771171   -4.078686    1.668017
 C   -0.541532   -1.863166   -1.366204
 O   -0.353410   -2.802194   -2.386917
 C   -2.014603   -1.419292   -1.344996
 O   -2.031230   -0.176066   -0.687637
 C   -3.014333    0.770506   -1.066815
 C   -2.566840    2.075453   -0.385455
 O   -3.489053    3.135927   -0.580179
 C   -1.223915    2.566053   -0.928575
 O   -0.614048    3.487697   -0.052668
 C   -4.435698    0.415027   -0.592966
 O   -5.020314   -0.644187   -1.305937
 C   -5.359876    1.623750   -0.792157
 O   -6.614999    1.374215   -0.210781
 C   -4.768969    2.864349   -0.104713
 O   -4.751532    2.681769    1.281991
 H    6.753982    3.474299    0.427867
 H    5.445024    4.192869    1.379470
 H    5.462596    4.386832   -0.378249
 H    3.261132    3.595047    0.280823
 H    1.709888    2.063892   -0.503099
 H    3.676435   -0.083893    0.401254
 H    4.041384    1.020073   -1.867144
 H    1.559075   -0.082840   -2.526233
 H    3.797703   -1.081638   -3.296007
 H    3.315962   -2.438484   -0.919939
 H    5.929365   -0.550374   -2.186841
 H    5.611900   -2.302120   -2.184083
 H    5.591764   -0.546553   -0.018849
 H    2.689993    1.472856    2.331548
 H    0.702987    3.218639    1.360211
 H    0.463595    0.551419    2.784124
 H   -0.109584    1.026994    1.180641
 H    3.673893   -1.543897    3.013729
 H    0.871778   -2.873958   -0.085393
 H   -1.102687   -4.275990   -0.323798
 H   -3.262696   -3.762032    0.560519
 H   -2.408739   -2.503318    2.548406
 H   -2.288113   -1.048004    1.516763
 H   -4.381019   -1.398020    2.649403
 H   -0.133119   -3.508568    2.126362
 H    0.040152   -0.952186   -1.558702
 H    0.592287   -2.999390   -2.444004
 H   -2.356173   -1.311117   -2.386321
 H   -3.022248    0.887052   -2.161918
 H   -2.471517    1.868485    0.690501
 H   -0.542778    1.720868   -1.033582
 H   -1.389934    3.024181   -1.910876
 H   -1.264600    4.178087    0.127295
 H   -4.392079    0.172283    0.478467
 H   -4.542312   -1.460528   -1.079189
 H   -5.459352    1.817722   -1.870172
 H   -6.874497    0.486484   -0.493558
 H   -5.363056    3.754305   -0.366870
 H   -5.589639    2.253513    1.506478
