43 
5b4k_ligand_ani.xyz
 C   -2.128793   -4.767626  -23.404471
 C   -1.929780   -5.451381  -24.616091
 C   -1.056980   -4.337440  -22.634400
 C   -0.653709   -5.723593  -25.088778
 C    5.597165   -4.919993  -21.860371
 C    4.157008   -2.984867  -21.828668
 C    6.362171   -4.374522  -20.835540
 C    4.931917   -2.433039  -20.812538
 C    7.985780   -1.763388  -14.918886
 C    8.823552   -1.135370  -15.801215
 C    5.289319   -3.720086  -16.376335
 C    0.214721   -4.613530  -23.118074
 C    7.021183   -2.459434  -15.711390
 C    0.434914   -5.298145  -24.327626
 C    7.345523   -2.201501  -17.055076
 C    4.475945   -4.242834  -22.347127
 C    6.022206   -3.132772  -20.321516
 C    6.533035   -2.783207  -18.041383
 C    2.369742   -4.873313  -23.544964
 C    9.106937   -0.890012  -18.287986
 N    5.967516   -3.237726  -15.357432
 N    5.511533   -3.537410  -17.698321
 N    1.488222   -4.320421  -22.641490
 N    1.793602   -5.452683  -24.565668
 N    8.452200   -1.388658  -17.095251
 N    3.733852   -4.832278  -23.384719
 O    6.820884   -2.552368  -19.334680
 H   -3.142165   -4.571856  -23.064185
 H   -2.791131   -5.774470  -25.194909
 H   -1.214005   -3.806781  -21.698580
 H   -0.494222   -6.253063  -26.023991
 H    5.860405   -5.890012  -22.275920
 H    3.319923   -2.425943  -22.236069
 H    7.223372   -4.902237  -20.439123
 H    4.691444   -1.460460  -20.396914
 H    8.044024   -1.736776  -13.839389
 H    9.683988   -0.506800  -15.608372
 H    4.437930   -4.348208  -16.134707
 H    9.953258   -0.274059  -17.977966
 H    9.465867   -1.718743  -18.901975
 H    8.415466   -0.286545  -18.879876
 H    1.717993   -4.078552  -21.689085
 H    4.225187   -5.448898  -24.015944
