62 
5b4l_ligand_ani.xyz
 C    6.112606    0.904281    2.953412
 C   -8.905207   -1.349587    1.464593
 C   -9.335125   -0.101401    0.980968
 C    4.863566    0.295307    2.895030
 C    7.018423    0.717818    1.912347
 C   -7.595480   -1.776851    1.303966
 C   -8.465565    0.756141    0.323793
 C    4.505343   -0.487472    1.801720
 C    6.681839   -0.074234    0.823415
 C    4.121447   -2.815081   -1.806312
 C    5.503524   -3.064910   -1.723726
 C   -6.701579   -0.930434    0.642390
 C   -7.154178    0.320727    0.167977
 C    5.415297   -0.657475    0.756705
 C    3.902366   -1.760503   -0.950614
 C   -5.030081   -0.037830   -0.271306
 C    0.520687    0.650004   -0.498715
 C    2.693999   -0.925105   -0.781834
 C    0.327644   -0.658512   -0.196552
 C    1.439451   -1.589325   -0.371061
 C    3.447940    4.512343   -0.521973
 C    4.199641    3.257500   -0.185919
 C   -5.524571    1.999016   -1.088769
 C   -4.223354    1.735811   -1.348709
 C    2.699427    3.267926   -0.144996
 C    1.933269    2.543046   -1.230939
 C   -2.652452   -0.242855   -0.972119
 C   -1.986369   -0.445936    0.386819
 N    6.102327   -2.251091   -0.868133
 N   -5.349001   -1.137800    0.359888
 N    2.809846    0.355249   -1.031340
 N   -6.027013    0.887978   -0.424208
 N    5.118919   -1.472099   -0.373294
 N   -3.901188    0.477544   -0.855547
 N    1.718835    1.124112   -0.938634
 O    1.317885   -2.789201   -0.164939
 O   -0.807587   -1.235888    0.258042
 H    6.383351    1.517087    3.809275
 H   -9.614426   -1.995329    1.975545
 H  -10.369410    0.198138    1.124159
 H    4.157007    0.426796    3.711347
 H    8.002158    1.179695    1.954249
 H   -7.270485   -2.743672    1.680387
 H   -8.799309    1.719256   -0.049394
 H    3.534426   -0.975205    1.770868
 H    7.389427   -0.259305    0.021102
 H    3.372268   -3.315676   -2.402468
 H    6.089390   -3.806567   -2.250415
 H   -0.270749    1.398601   -0.442588
 H    3.418452    4.831973   -1.560449
 H    3.473664    5.328362    0.194732
 H    4.735570    3.225324    0.758204
 H    4.662806    2.707040   -1.001727
 H   -6.118909    2.867100   -1.320811
 H   -3.477109    2.343164   -1.840344
 H    2.234322    3.253857    0.838440
 H    2.499964    2.593814   -2.168733
 H    0.949732    2.998568   -1.389129
 H   -2.839758   -1.228345   -1.412635
 H   -1.990334    0.302758   -1.652697
 H   -2.657915   -1.016210    1.032112
 H   -1.760646    0.507792    0.877483
