33 
5b5f_ligand_xtb.xyz
 C    2.443584    1.319608    0.115623
 C   -0.106160    1.035124   -0.081760
 C   -1.126619    0.089923   -0.219409
 C   -2.435993    0.508882   -0.279326
 C   -1.773020    2.785844   -0.062457
 N    5.653849   -0.740769    0.059956
 N   -4.599428   -0.408775    0.973011
 O   -4.611953   -0.328800   -1.523866
 S   -3.742966   -0.697083   -0.447076
 O   -3.173677   -2.016728   -0.442109
 C   -4.003112   -1.016114    2.142482
 C   -2.780634    1.844434   -0.206412
 C   -0.450000    2.387100   -0.000116
 C    1.278945    0.612046   -0.034365
 O    1.556222   -0.719904   -0.166626
 C    2.882654   -0.855596   -0.104780
 C    3.612455   -2.135009   -0.214051
 C    5.085424   -1.852637   -0.103341
 C    4.948368    0.485388    0.169445
 O    5.550557    1.515150    0.330661
 C    3.493249    0.364186    0.070221
 H    2.564715    2.374342    0.242707
 H   -0.910652   -0.964630   -0.284919
 H   -2.018920    3.834902   -0.001831
 H   -5.566411   -0.667109    0.837536
 H   -3.894506   -2.099598    2.035136
 H   -3.013447   -0.578702    2.270595
 H   -4.608824   -0.790181    3.017712
 H   -3.820132    2.120803   -0.267528
 H    0.327457    3.126517    0.107142
 H    3.408985   -2.635094   -1.167322
 H    3.317269   -2.839236    0.571470
 H    5.736920   -2.718670   -0.173254
