30 
5b5o_ligand_ani.xyz
 C   14.346625   12.485458   23.419828
 C   14.109734   13.836956   23.650164
 C   13.607695   11.821822   22.445691
 C   13.146177   14.512204   22.911312
 C   12.646718   12.490132   21.693109
 C   10.869462   14.210693   17.497240
 C    8.012749   11.999047   15.159426
 C   12.421924   13.850770   21.915587
 C   10.002204   15.089469   18.061939
 C    7.590529   13.481836   16.678015
 C   11.115719   14.548980   19.882130
 C    8.898772   15.822071   17.355212
 N    8.028443   11.391765   16.313050
 N   10.149217   15.286543   19.419116
 N    7.748511   12.330436   17.276634
 N    7.741039   13.321865   15.327221
 N   11.453117   14.586421   21.208785
 S   11.952541   13.577333   18.694763
 S    7.239340   15.030127   17.463223
 H   15.096615   11.951897   23.997396
 H   14.671761   14.370496   24.412596
 H   13.777535   10.763880   22.262419
 H   12.953994   15.566502   23.095910
 H   12.068302   11.952423   20.947738
 H   10.930348   13.893250   16.465660
 H    8.184620   11.533696   14.196607
 H    9.138867   15.975018   16.298561
 H    8.756553   16.799427   17.825779
 H   10.988594   15.338610   21.698779
 H    7.605293   14.019873   14.613107
