123 
5b6g_ligand_xtb.xyz
 C    5.834542    0.901872   -0.255168
 O    6.749945    0.766460   -1.042444
 O    4.746613    1.657832   -0.498211
 C    4.761075    2.368258   -1.732541
 C    3.612410    3.334316   -1.775749
 C    3.073137    3.851596   -0.605662
 C    2.016944    4.746416   -0.659206
 C    1.490287    5.133273   -1.880965
 C    2.030963    4.626429   -3.051403
 C    3.085830    3.731962   -2.999544
 N    5.787096    0.353002    0.973158
 C    6.840484   -0.536029    1.436845
 C    6.514614   -1.955969    0.954404
 O    6.190926   -2.857618    1.709595
 C    6.935931   -0.478532    2.952834
 N    6.566814   -2.088010   -0.382915
 C    5.981436   -3.230138   -1.063660
 C    4.454163   -3.071772   -1.011633
 O    3.793967   -2.665170   -1.947182
 N    3.945641   -3.378478    0.197116
 C    2.602872   -2.968754    0.569157
 C    2.529410   -1.438609    0.437334
 O    3.136842   -0.694658    1.191822
 C    2.315798   -3.395167    2.007672
 C    1.000185   -2.826317    2.532857
 C   -0.230017   -3.331828    1.821813
 O   -0.231852   -4.101881    0.888603
 O   -1.330499   -2.837045    2.358178
 N    1.787740   -1.014433   -0.587495
 C    1.545555    0.373612   -0.896841
 C    0.139721    0.741773   -0.408536
 O   -0.675784   -0.111484   -0.093254
 C    1.645234    0.581609   -2.407250
 O   -2.901444    3.579990   -1.628665
 C   -2.418927    2.563957   -1.178978
 C   -1.441746    2.545971    0.015937
 N   -0.138220    2.052294   -0.393829
 C   -1.343410    3.923154    0.659457
 C   -0.687691    3.881468    2.040548
 C   -1.594372    3.227717    3.107357
 C   -1.980176    4.353258    4.068430
 C   -0.761247    5.267283    4.047343
 C   -0.396630    5.301759    2.565645
 N   -2.696180    1.326742   -1.643168
 C   -3.781258    1.070807   -2.560893
 C   -5.082079    0.694806   -1.827538
 O   -6.110371    0.447205   -2.419777
 C   -3.432432   -0.046536   -3.561939
 C   -3.160253   -1.345104   -2.854160
 C   -1.876168   -1.666362   -2.434380
 C   -4.189315   -2.237128   -2.573496
 C   -1.627024   -2.817695   -1.713747
 C   -3.950719   -3.400365   -1.867918
 C   -2.666871   -3.688172   -1.409361
 O   -2.466647   -4.810597   -0.670470
 N   -4.962104    0.638940   -0.489957
 C   -6.043619    0.353634    0.416267
 C   -5.711326    1.058295    1.733368
 O   -4.604022    1.497679    1.962754
 C   -6.188321   -1.164777    0.626324
 C   -4.895749   -1.789208    1.145073
 C   -4.980582   -3.292778    1.143090
 O   -5.945241   -3.946676    0.868227
 O   -3.807459   -3.852801    1.494334
 N   -6.726736    1.121161    2.612174
 H    4.705884    1.655914   -2.564598
 H    5.716394    2.903786   -1.824409
 H    3.483693    3.548410    0.344934
 H    1.613434    5.151201    0.256661
 H    0.665744    5.828773   -1.923079
 H    1.627953    4.927320   -4.006455
 H    3.506354    3.338624   -3.913498
 H    4.875388    0.268554    1.410970
 H    7.772138   -0.199953    0.967573
 H    7.740823   -1.122880    3.294158
 H    6.005524   -0.830663    3.390642
 H    7.125684    0.539672    3.280065
 H    6.782393   -1.266902   -0.937223
 H    6.285941   -4.145838   -0.551101
 H    6.321785   -3.241943   -2.097858
 H    4.603563   -3.534462    0.957918
 H    1.893000   -3.438197   -0.118434
 H    2.296496   -4.484765    2.055196
 H    3.127091   -3.028232    2.639626
 H    0.883485   -3.067944    3.591481
 H    0.993103   -1.736825    2.453270
 H   -2.149065   -3.146744    1.914765
 H    1.326339   -1.689060   -1.178076
 H    2.299499    0.967648   -0.368983
 H    2.604100    0.209995   -2.759122
 H    0.860990    0.024513   -2.915955
 H    1.550665    1.632721   -2.664519
 H   -1.834022    1.823001    0.743103
 H    0.551584    2.733093   -0.678825
 H   -2.353730    4.325092    0.745962
 H   -0.786733    4.581849   -0.009608
 H    0.247640    3.318941    1.960510
 H   -2.476125    2.761043    2.672060
 H   -1.039712    2.458781    3.646165
 H   -2.216463    3.984798    5.065541
 H   -2.848577    4.891105    3.685505
 H   -0.965155    6.258689    4.449653
 H    0.049200    4.819256    4.624832
 H   -1.038154    6.019308    2.051478
 H    0.639705    5.598964    2.406662
 H   -2.251588    0.522345   -1.212298
 H   -3.975830    2.003680   -3.103024
 H   -2.560521    0.260756   -4.142192
 H   -4.284534   -0.157575   -4.233087
 H   -1.056972   -1.007429   -2.681374
 H   -5.190388   -2.014917   -2.910601
 H   -0.628185   -3.051432   -1.375517
 H   -4.750422   -4.094244   -1.660951
 H   -1.570837   -4.778597   -0.283449
 H   -4.121842    0.967849   -0.030483
 H   -6.976932    0.745276   -0.005869
 H   -7.006953   -1.376390    1.314861
 H   -6.435801   -1.614448   -0.336115
 H   -4.055743   -1.509350    0.504901
 H   -4.662500   -1.450671    2.157249
 H   -3.823341   -4.811447    1.327650
 H   -6.579582    1.576576    3.498262
 H   -7.647997    0.793034    2.384267
