43 
5bml_ligand_ani.xyz
 C    7.409472    0.302559   -0.078749
 S    6.466023   -1.125825   -0.563494
 O    6.420787   -1.147677   -2.013781
 O    6.927973   -2.264817    0.206441
 N    4.937635   -0.832664    0.027024
 C    4.115426    0.272823   -0.288545
 C    4.224342    0.981853   -1.485771
 C    3.377513    2.060486   -1.711844
 C    2.430514    2.442186   -0.766867
 C    2.311448    1.724827    0.422191
 C    3.141290    0.630431    0.641250
 C    1.298303    2.101669    1.482929
 C    0.253905    1.006432    1.645221
 O    0.385460    0.075891    2.415752
 N   -0.838429    1.128199    0.817294
 C   -1.932659    0.256993    0.812441
 C   -3.097785    0.474392    0.130308
 C   -4.041784   -0.585353    0.292466
 C   -3.549871   -1.578830    1.089448
 S   -1.961794   -1.250069    1.687112
 C   -5.395838   -0.583143   -0.313049
 C   -5.917139   -1.721891   -0.938880
 C   -7.187837   -1.656794   -1.488007
 N   -7.964963   -0.567339   -1.448817
 C   -7.452388    0.480329   -0.851296
 C   -6.190560    0.557361   -0.272298
 F   -8.226389    1.569609   -0.804610
 H    8.424431    0.156158   -0.453633
 H    6.970193    1.198204   -0.524324
 H    7.418429    0.372739    1.010766
 H    4.801963   -1.246910    0.941156
 H    4.948327    0.685064   -2.235836
 H    3.466960    2.612637   -2.643512
 H    1.785633    3.297447   -0.953785
 H    3.017859    0.044440    1.549512
 H    0.826404    3.062865    1.250578
 H    1.788987    2.204192    2.455512
 H   -0.891196    1.920796    0.195299
 H   -3.288836    1.348903   -0.485415
 H   -4.068458   -2.482343    1.383118
 H   -5.337208   -2.635955   -1.018055
 H   -7.615725   -2.523489   -1.986042
 H   -5.869505    1.470559    0.216787
