42 
5bms_ligand_ani.xyz
 C    2.963697   -0.947268   -0.053435
 C    1.857278   -1.306145    0.717405
 C    0.668728   -1.728869    0.118007
 C   -0.492242   -2.155874    0.995200
 C   -3.568513    0.226536   -0.122888
 C   -0.831811    1.777916    0.074275
 C    1.342823    3.181419    0.071536
 C    2.244503    2.261298    0.856751
 C    0.608000   -1.751445   -1.287253
 C    1.686223   -1.406022   -2.086664
 C    2.879398   -1.004197   -1.476737
 N   -1.640076   -2.659852    0.272978
 C   -2.724933   -1.874687    0.019443
 N   -3.858361   -2.497667   -0.325847
 C   -4.890746   -1.682045   -0.560929
 C   -4.823274   -0.305118   -0.469866
 N   -2.524521   -0.554030    0.123396
 N   -3.369498    1.575588   -0.018846
 C   -2.153694    2.216386    0.044956
 C   -0.096868    2.970289    0.086802
 N   -0.961363    4.032491    0.075438
 N   -2.192457    3.588749    0.050649
 C    2.216664    2.173533   -0.635785
Cl    2.030051   -1.191983    2.442660
 N    4.192649   -0.519797    0.311498
 C    4.784056   -0.345696   -0.886424
 N    4.066138   -0.614628   -2.002131
 H   -0.794484   -1.301117    1.612693
 H   -0.143457   -2.933815    1.683036
 H   -0.483452    0.759933    0.076275
 H    1.624677    4.230467    0.001973
 H    1.753294    1.464766    1.413898
 H    3.128754    2.674018    1.333880
 H   -0.310302   -2.068120   -1.768360
 H    1.624661   -1.430131   -3.169476
 H   -1.846512   -3.645095    0.323925
 H   -5.823678   -2.170763   -0.836387
 H   -5.679304    0.332603   -0.664278
 H   -4.142622    2.216161   -0.137903
 H    3.057006    2.558602   -1.205707
 H    1.705724    1.319874   -1.073012
 H    5.815523    0.000294   -0.952103
