40 
5boj_ligand_dft.xyz
 C   -2.157451    0.796734    0.483692
 C   -0.269097   -1.237928    1.162394
 C    0.690909   -0.836366    0.045449
 C    3.127632   -0.051099   -0.415099
 C   -3.102223    1.755623    0.098027
 C   -4.299302    1.327539   -0.461483
 C   -4.546701   -0.035441   -0.629867
 O    4.493010    0.279318    1.571116
 C    4.403154    0.308599    0.372642
 O    5.477498    0.681492   -0.360206
 C    2.671137    1.185316   -1.213694
 C    3.440871   -1.214307   -1.375672
 C    2.058726   -0.463533    0.616603
 O   -1.558179   -1.560734    0.675612
 C   -2.411517   -0.561343    0.313519
 C   -3.622850   -0.999782   -0.252753
 C   -3.878445   -2.472086   -0.427604
 C   -2.802722    3.220681    0.297520
 H   -1.222908    1.137055    0.918738
 H   -0.330044   -0.460076    1.935472
 H    0.082935   -2.151531    1.649812
 H    0.257757    0.001667   -0.510930
 H    0.761609   -1.678558   -0.651848
 H   -5.045113    2.054942   -0.769957
 H   -5.488221   -0.357362   -1.068510
 H    5.270286    0.659770   -1.303183
 H    2.421358    2.015055   -0.544290
 H    3.438170    1.539601   -1.912008
 H    1.786094    0.947900   -1.810874
 H    4.220521   -0.961165   -2.103714
 H    3.772669   -2.100978   -0.825734
 H    2.550272   -1.481410   -1.951576
 H    2.454162   -1.303014    1.200902
 H    1.941716    0.360730    1.330031
 H   -4.856131   -2.644645   -0.886625
 H   -3.112704   -2.934796   -1.059716
 H   -3.850739   -2.995712    0.534140
 H   -2.659601    3.454720    1.358710
 H   -1.886019    3.513999   -0.226957
 H   -3.617421    3.847566   -0.076101
