29 
5bot_ligand_xtb.xyz
 C   -7.180150   27.940573   52.444585
 C  -11.003332   27.515402   46.054304
 C   -7.430499   27.550102   54.753433
 C   -6.677838   26.254866   55.023204
 C   -9.208814   27.683730   49.379023
 C   -7.941786   28.152799   48.935024
 C   -9.117903   27.527470   50.784277
 C  -10.233561   27.475763   48.453191
 N   -7.142434   28.271334   50.022765
 C   -7.688827   28.395483   47.586758
 C   -7.843724   27.896445   51.143253
 C   -9.981124   27.729096   47.118986
 C   -8.711335   28.171661   46.698546
 O   -7.990382   27.563884   53.439943
 O   -6.029648   28.291912   52.589595
 N  -12.295313   27.653106   46.449783
 O  -10.713367   27.233988   44.910048
 H   -6.758191   28.407771   54.861686
 H   -8.284016   27.657660   55.425840
 H   -6.324036   26.246299   56.050073
 H   -7.331090   25.400471   54.863612
 H   -5.823378   26.176296   54.355566
 H   -9.885793   27.189383   51.449789
 H  -11.185623   27.092435   48.789594
 H   -6.182513   28.575619   50.050749
 H   -6.721255   28.740536   47.255947
 H   -8.566559   28.328185   45.640639
 H  -13.015254   27.558015   45.753026
 H  -12.543254   28.015714   47.351760
