35 
5boy_ligand_xtb.xyz
 C  -10.397639   26.808379   46.358751
 C   -9.297337   27.679187   46.218656
 C   -8.489172   28.006948   47.281637
 C   -9.899800   26.582008   48.691023
 N   -8.183065   27.594326   49.728377
 C   -9.921862   26.212484   50.058047
 C   -8.453292   26.798625   52.061868
 C   -5.928865   26.430250   53.868907
 C  -12.631107   26.453106   45.160377
 C  -11.257688   26.505057   45.223471
 C  -11.942987   25.992954   43.213014
 C   -9.476155   26.056448   43.491425
 O   -9.001189   26.155839   52.923326
 O   -7.373385   27.582668   52.279720
 C   -6.861008   27.605271   53.611064
 C   -8.863120   26.849084   50.662604
 C   -8.790094   27.452842   48.521850
 C  -10.702518   26.265484   47.595011
 N  -10.827531   26.205522   43.951454
 N  -13.036961   26.141908   43.906996
 H   -9.103493   28.126624   45.255639
 H   -7.653585   28.680257   47.160241
 H   -7.375330   28.155751   49.938734
 H  -10.621960   25.564460   50.544465
 H   -5.512921   26.508490   54.869024
 H   -6.480497   25.496838   53.788563
 H   -5.117172   26.425489   53.144967
 H  -13.339244   26.644612   45.941364
 H  -11.907682   25.728430   42.174531
 H   -8.833173   25.764801   44.321729
 H   -9.440349   25.283812   42.722770
 H   -9.099484   26.988867   43.061372
 H   -6.331323   28.556696   53.695730
 H   -7.701110   27.581473   54.312771
 H  -11.545904   25.602008   47.705524
