35 
5boy_ligand_dft.xyz
 C  -10.428101   26.845777   46.350703
 C   -9.389645   27.807629   46.243609
 C   -8.592362   28.149288   47.315857
 C   -9.888453   26.565857   48.684552
 N   -8.240102   27.656475   49.755794
 C   -9.870604   26.135030   50.046632
 C   -8.434629   26.735513   52.066897
 C   -5.906425   26.422550   53.862717
 C  -12.647505   26.453574   45.083569
 C  -11.279978   26.524887   45.196434
 C  -11.897109   25.943922   43.165246
 C   -9.423764   26.059260   43.523195
 O   -8.946001   26.017820   52.894998
 O   -7.401144   27.567739   52.309712
 C   -6.882259   27.565497   53.650684
 C   -8.858634   26.820595   50.664497
 C   -8.851172   27.520207   48.539716
 C  -10.671314   26.229318   47.569278
 N  -10.804334   26.191469   43.939531
 N  -13.024506   26.093112   43.817014
 H   -9.235658   28.307461   45.291900
 H   -7.805544   28.890562   47.215202
 H   -7.471638   28.264910   49.985495
 H  -10.515774   25.413408   50.525843
 H   -5.472532   26.488413   54.865646
 H   -6.418266   25.461458   53.771281
 H   -5.094042   26.465819   53.131178
 H  -13.375669   26.664531   45.855278
 H  -11.800111   25.650973   42.127564
 H   -8.830395   25.640602   44.338800
 H   -9.376122   25.382033   42.667833
 H   -8.996305   27.024298   43.233597
 H   -6.392311   28.535848   53.753277
 H   -7.718255   27.506542   54.351406
 H  -11.457338   25.484621   47.650064
