70 
5bpe_ligand_ani.xyz
 C    1.397304   -2.536186   -0.591720
 O    1.580218   -1.649655   -1.421755
 C    2.520490   -3.448496   -0.131600
 C    3.899740   -2.824790   -0.321821
 C    4.166909   -1.559403    0.474857
 C    5.247913   -0.749760    0.101582
 C    5.561076    0.409987    0.800944
 C    4.794562    0.792545    1.898701
 C    3.706298    0.009014    2.270008
 C    3.393592   -1.151074    1.565597
 N    0.173783   -2.777364   -0.039850
 C   -0.946030   -1.880274   -0.218159
 C   -0.788224   -0.602812    0.647382
 O    0.060109   -0.501616    1.522902
 C   -2.248142   -2.665279    0.066492
 C   -3.517402   -1.937967   -0.303563
 C   -3.801263   -1.645911   -1.641430
 C   -4.395460   -1.486796    0.684388
 C   -4.907101   -0.871886   -1.976934
 C   -5.499244   -0.706511    0.352605
 C   -5.752144   -0.390360   -0.979556
 C    3.084939    2.927478   -0.549814
 C   -1.562258    1.745901    0.880341
 C    1.656586    3.463995   -0.419861
 C    0.812778    1.393423   -1.487527
 C   -0.792280    2.741107   -0.013862
 C   -3.625093    1.462674    2.229448
 C   -2.994242    2.236271    1.129535
 C    0.657021    2.310918   -0.263227
 C    3.204441    1.868351   -1.649304
 N   -4.139542    0.881193    3.087620
 N   -1.634473    0.413182    0.316826
 N    2.166867    0.820181   -1.470596
 O   -3.727843    2.067971   -0.067975
 O    0.690567    2.088601   -2.719712
 H    2.453779   -4.374205   -0.717755
 H    2.367661   -3.739054    0.915299
 H    4.657855   -3.575716   -0.063834
 H    4.038944   -2.602267   -1.386543
 H    5.855277   -1.028066   -0.758292
 H    6.398672    1.025275    0.480176
 H    5.029117    1.705053    2.441675
 H    3.090859    0.298858    3.118077
 H    2.522423   -1.717882    1.885800
 H    0.147972   -3.337110    0.801904
 H   -0.942751   -1.573759   -1.272427
 H   -2.172448   -3.593491   -0.511670
 H   -2.268561   -2.940819    1.128905
 H   -3.144959   -2.020603   -2.426423
 H   -4.184216   -1.725342    1.725113
 H   -5.105943   -0.635708   -3.018480
 H   -6.158821   -0.336515    1.134286
 H   -6.604695    0.230996   -1.243082
 H    3.784701    3.744534   -0.754494
 H    3.392413    2.485941    0.408892
 H   -1.036319    1.659404    1.834216
 H    1.589185    4.140728    0.441427
 H    1.391422    4.041803   -1.314637
 H    0.091115    0.579920   -1.488432
 H   -0.797929    3.711343    0.504647
 H   -1.334471    2.901933   -0.956169
 H   -2.966703    3.291539    1.437392
 H    0.960136    1.712950    0.610532
 H    4.190111    1.396520   -1.626868
 H    3.067472    2.330521   -2.628085
 H   -2.373158    0.269666   -0.359729
 H    2.213749    0.049148   -2.144568
 H    2.324874    0.360760   -0.563004
 H   -4.667694    2.156343    0.141522
 H   -0.248503    2.279604   -2.862062
