55 
5bq0_ligand_ani.xyz
 C  -23.540695    6.520434    2.148034
 C  -24.121191    7.178350    8.572170
 C  -24.465446    8.445301    6.552686
 C  -23.103569    7.834641    6.209389
 C  -23.804273    7.467649   -1.136710
 C  -23.354027    6.051073    7.882691
 C  -26.089102    8.546105    8.310924
 C  -24.851785    6.957690   -1.909464
 C  -26.090969    7.578920   -1.964686
 C  -26.301935    8.761695   -1.263607
 C  -25.269086    9.316089   -0.519581
 C  -22.536264    5.695189    4.207430
 C  -23.601745    6.305533    3.509723
 C  -20.691937    5.579847    0.014251
 C  -21.952379    6.215652    0.072192
 C  -22.525065    6.721192   -1.101987
 C  -21.868166    6.472096   -2.307194
 C  -20.627312    5.844071   -2.351845
 C  -19.990346    5.418464   -1.187783
 C  -18.648818    4.776332   -1.182849
 O  -18.232226    4.139030   -0.221786
 N  -17.903885    4.912688   -2.324599
 N  -20.346484    5.173579    1.276338
 C  -21.347146    5.497780    2.157048
 C  -22.381578    6.140705    1.452154
 C  -21.413516    5.256054    3.524984
 C  -22.599755    5.428947    5.684175
 O  -22.191510    4.379310    6.162008
 N  -23.127103    6.406042    6.482402
 N  -25.101014    7.723390    7.652054
 C  -24.032795    8.678875   -0.470785
Cl  -22.768363    9.455212    0.438897
 H  -24.372188    6.988578    1.632132
 H  -23.419775    7.953046    8.944201
 H  -24.645946    6.783494    9.448471
 H  -24.316996    9.509941    6.806806
 H  -25.138123    8.415963    5.685067
 H  -22.316577    8.307916    6.815565
 H  -22.842048    8.022099    5.168463
 H  -23.936453    5.126898    7.893474
 H  -22.402604    5.847479    8.389310
 H  -26.597167    7.969857    9.091004
 H  -25.653369    9.451793    8.777211
 H  -26.845089    8.867894    7.586877
 H  -24.685533    6.036892   -2.464291
 H  -26.888239    7.144832   -2.561052
 H  -27.266726    9.258789   -1.299759
 H  -25.409982   10.243691    0.026209
 H  -24.493041    6.598643    4.057811
 H  -22.324660    6.805344   -3.236052
 H  -20.171842    5.657323   -3.320585
 H  -16.953712    4.581608   -2.238437
 H  -18.043422    5.711954   -2.923363
 H  -19.511399    4.631786    1.454155
 H  -20.614628    4.739244    4.050108
