81 
5bs4_ligand_ani.xyz
 N    7.717369    0.485357   -2.043852
 C    6.451087    0.610116   -1.471404
 C    4.065682    0.191576   -1.536196
 C    5.049708    1.247170    0.398718
 C    6.298890    1.180797   -0.200034
 O    2.408018    1.641868    1.664423
 N    2.096220   -0.821566    0.945662
 C    3.404822   -2.786562    1.680931
 C    3.973369   -3.458969    2.929769
 C    4.409588   -2.825754    0.526642
 C    0.670416   -1.163973    1.136292
 C    0.056237   -1.716061   -0.155606
 O    0.831073   -2.808073   -0.625237
 C   -2.612643   -0.073984    0.157683
 O   -2.542338    5.096732    0.140778
 C   -1.388660    4.358057    0.508792
 C   -1.607196    2.923041    0.006145
 C   -3.123904    2.849908   -0.258199
 C   -1.996078   -2.730405   -1.242318
 C    5.316635    0.116380   -2.130557
 C    3.938888    0.741922   -0.265924
 S    2.345566    0.780747    0.493309
 O    1.365666    1.059544   -0.556900
 C    2.992331   -1.342421    1.988653
 C   -1.374004   -2.227375    0.071626
 N   -2.213953   -1.236369    0.726797
 O   -2.483143    0.235812   -1.018202
 O   -3.150616    0.730791    1.102468
 C   -3.870711    1.903852    0.682967
 C   -4.109889    2.781530    1.903002
 O   -4.263507    4.102908    1.400705
 C   -3.647727    4.239677    0.137394
 C   -4.499986   -2.502973   -1.460626
 C   -5.795184   -2.976263   -1.265902
 C   -6.001257   -4.208663   -0.654088
 C   -4.910319   -4.965195   -0.235167
 C   -3.617576   -4.488882   -0.430819
 C   -3.398152   -3.256852   -1.050798
 N   -0.810117    2.493236   -1.175361
 C   -0.797897    3.462658   -2.291092
 H    8.397129    1.154624   -1.710306
 H    7.722543    0.425402   -3.052762
 H    3.186016   -0.179556   -2.057596
 H    4.926975    1.696308    1.381138
 H    7.173525    1.565957    0.318454
 H    2.500472   -3.326326    1.363445
 H    3.242146   -3.475952    3.745716
 H    4.863711   -2.924297    3.284749
 H    4.268142   -4.492719    2.718347
 H    5.358111   -2.360205    0.826760
 H    4.050680   -2.287020   -0.358150
 H    4.620402   -3.859008    0.229589
 H    0.627405   -1.946498    1.902689
 H    0.108717   -0.296962    1.499921
 H    0.032883   -0.916102   -0.908769
 H    1.737403   -2.472452   -0.687862
 H   -1.278303    4.367870    1.600457
 H   -0.514708    4.851517    0.071204
 H   -1.332904    2.227149    0.803231
 H   -3.333853    2.593923   -1.297583
 H   -2.016612   -1.896141   -1.948311
 H   -1.341948   -3.507616   -1.654411
 H    5.427018   -0.323552   -3.118353
 H    2.480337   -1.284888    2.959667
 H    3.880355   -0.705675    2.070064
 H   -1.300339   -3.073703    0.766627
 H   -2.363408   -1.301242    1.722017
 H   -4.813012    1.589880    0.218404
 H   -3.247709    2.712586    2.579852
 H   -5.010467    2.524489    2.466780
 H   -4.386354    4.687056   -0.533637
 H   -4.331314   -1.536938   -1.933043
 H   -6.645526   -2.383832   -1.595560
 H   -7.011861   -4.580397   -0.501878
 H   -5.066687   -5.927522    0.246262
 H   -2.764713   -5.079332   -0.097602
 H   -1.241581    1.610845   -1.493555
 H    0.153396    2.263001   -0.888834
 H   -0.033274    4.229109   -2.136853
 H   -0.595718    2.959877   -3.239676
 H   -1.762802    3.971008   -2.369881
