81 
5bs4_ligand_xtb.xyz
 N    7.013283   -1.098213    3.158277
 C    5.894837   -0.744456    2.487325
 C    4.838526    0.328806    0.598717
 C    3.492590   -0.806990    2.247237
 C    4.627589   -1.138118    2.950314
 O    1.024498    0.576151    1.026232
 N    1.705545   -1.056738   -0.727580
 C    2.143196   -1.681988   -3.107817
 C    3.287007   -2.044552   -4.051304
 C    1.421199   -0.424218   -3.583452
 C    0.948057   -2.066788   -0.026034
 C   -0.314125   -2.509508   -0.806153
 O   -0.216635   -3.848032   -1.224249
 C   -1.843036    0.024928    0.164416
 O   -1.133169    5.141185   -0.269062
 C   -0.059630    4.293613    0.084379
 C   -0.504879    2.868663   -0.287037
 C   -2.033553    2.968959   -0.399804
 C   -2.829881   -2.730653   -0.798287
 C    5.976758    0.000462    1.298907
 C    3.600955   -0.076295    1.073566
 S    2.134594    0.282534    0.157297
 O    2.412561    1.327654   -0.821237
 C    2.703457   -1.476623   -1.692289
 C   -1.585593   -2.442909    0.061068
 N   -1.724631   -1.170095    0.750095
 O   -1.621048    0.275658   -1.007944
 O   -2.211760    0.946545    1.089159
 C   -2.763376    2.191162    0.698837
 C   -2.687884    3.185188    1.869829
 O   -2.770928    4.467602    1.284041
 C   -2.323740    4.449043   -0.049682
 C   -4.870996   -1.510827    0.010792
 C   -5.999795   -1.420102    0.806722
 C   -6.345577   -2.469785    1.640008
 C   -5.560458   -3.610333    1.671365
 C   -4.432620   -3.698663    0.875202
 C   -4.077721   -2.650351    0.035170
 N    0.068643    2.327698   -1.544739
 C    0.024388    3.193928   -2.729952
 H    6.943921   -1.542626    4.055912
 H    7.905696   -0.731383    2.880627
 H    4.890815    0.915270   -0.304604
 H    2.515770   -1.089645    2.605257
 H    4.552533   -1.701500    3.867429
 H    1.429110   -2.511373   -3.097290
 H    3.810045   -2.932521   -3.704589
 H    4.001499   -1.227663   -4.115100
 H    2.903498   -2.243057   -5.048371
 H    2.093105    0.429518   -3.535404
 H    0.557165   -0.228163   -2.952956
 H    1.084730   -0.551095   -4.609326
 H    1.563375   -2.951720    0.181085
 H    0.643239   -1.618682    0.919180
 H   -0.446468   -1.837438   -1.662911
 H    0.494617   -3.940412   -1.868209
 H    0.133523    4.353738    1.161419
 H    0.827601    4.634357   -0.447990
 H   -0.209730    2.163838    0.496912
 H   -2.390302    2.700272   -1.391844
 H   -2.871351   -2.000660   -1.607687
 H   -2.712132   -3.725882   -1.226405
 H    6.943810    0.316846    0.940049
 H    3.202191   -2.391874   -1.347885
 H    3.447644   -0.678892   -1.734597
 H   -1.496394   -3.212611    0.831999
 H   -2.006470   -1.196748    1.718102
 H   -3.807612    2.030858    0.398742
 H   -1.740292    3.040977    2.405101
 H   -3.515017    3.087604    2.572509
 H   -3.081607    4.946277   -0.664564
 H   -4.609159   -0.694607   -0.649143
 H   -6.614048   -0.532477    0.772225
 H   -7.227876   -2.402347    2.257633
 H   -5.830591   -4.434281    2.314387
 H   -3.825927   -4.592487    0.894200
 H   -0.488534    1.455665   -1.687964
 H    1.062388    2.014098   -1.348817
 H    0.713171    4.027171   -2.616682
 H    0.314120    2.616674   -3.604758
 H   -0.975751    3.594210   -2.882568
