59 
5bvd_ligand_ani.xyz
 C    0.917483    1.323973    0.149572
 C    1.606221   -0.926390   -0.619634
 C   -4.842859    0.507681   -0.284903
 C   -0.244285    2.019113    0.374926
 C   -1.314522    1.161281    0.001374
 C   -0.752253   -0.023718   -0.430891
 C    4.662318    1.083651    0.215991
 C    5.445460   -0.181577    0.523516
 C    6.525058   -0.624130   -0.243890
 C    7.182856   -1.799993    0.106015
 C    6.802063   -2.548454    1.211265
 C    5.731761   -2.100123    1.979283
 C    5.060964   -0.931726    1.637175
 C   -7.002073   -0.687413   -0.411761
 C   -7.605440   -1.781400   -1.292350
 C   -9.072160   -2.009094   -0.945770
 C   -8.779868   -1.278584    1.256027
 C   -7.292740   -1.002173    1.063400
Cl    8.522572   -2.343816   -0.868154
 O   -9.235726   -2.324558    0.422158
 O    4.613299    3.152319   -1.093262
 N    3.252396    0.800936   -0.063379
 C    5.303609    1.953596   -0.871415
 C   -2.762018    1.375844    0.048005
 C    2.318731    1.709478    0.353427
 N   -3.514253    0.348628   -0.346110
 N   -5.584730   -0.557754   -0.710135
 C    2.893175   -0.224252   -1.047950
 C   -4.719855    2.621934    0.496427
 O    2.614792    2.783000    0.881506
 C   -3.335206    2.575940    0.482223
 N    0.597766    0.081972   -0.351833
 N   -5.496883    1.604557    0.127878
 H    1.238212   -1.577532   -1.416131
 H    1.779378   -1.534185    0.275853
 H   -0.281335    3.027514    0.773175
 H   -1.240888   -0.925709   -0.779067
 H    4.640911    1.686284    1.133233
 H    6.874671   -0.072387   -1.112053
 H    7.334603   -3.460354    1.462266
 H    5.418753   -2.668359    2.851126
 H    4.224911   -0.589846    2.243512
 H   -7.463092    0.279052   -0.653318
 H   -7.493955   -1.511280   -2.348436
 H   -7.050913   -2.715439   -1.121810
 H   -9.487406   -2.849645   -1.509103
 H   -9.659580   -1.107590   -1.194958
 H   -8.990678   -1.587712    2.283944
 H   -9.358261   -0.359976    1.050828
 H   -6.719730   -1.888644    1.368287
 H   -6.981233   -0.162654    1.694779
 H    4.128744    3.381423   -0.283567
 H    5.323899    1.400572   -1.821205
 H    6.347272    2.144421   -0.572082
 H   -5.042305   -1.403066   -0.818552
 H    2.769347    0.222814   -2.045094
 H    3.708121   -0.946677   -1.100191
 H   -5.238296    3.521608    0.824661
 H   -2.742407    3.427015    0.793991
