30 
5bvk_ligand_ani.xyz
 C   -3.380089    0.758898    0.049626
 C   -4.668224    0.506325    0.497828
 C   -4.107714   -1.818808    0.700443
 C   -2.816746   -1.568004    0.254156
 C   -2.427165   -0.265954   -0.079012
 C    2.346129   -0.807086   -1.233874
 C    3.435659   -0.269744   -0.332894
 C    3.224203   -0.029917    1.021997
 C    4.276624    0.442406    1.795279
 C    5.505855    0.664823    1.184257
Cl   -2.950884    2.401290   -0.355313
 C   -5.036727   -0.792249    0.826433
 N   -1.146611    0.064934   -0.534801
 C   -0.037872   -0.763576   -0.634065
 O   -0.034112   -1.954338   -0.365046
 N    1.084073   -0.109670   -1.082260
 N    5.730394    0.445959   -0.112060
 C    4.709171   -0.009535   -0.836233
 H   -5.370949    1.329987    0.584449
 H   -4.385231   -2.838500    0.954052
 H   -2.096390   -2.368305    0.157978
 H    2.135158   -1.857786   -1.014838
 H    2.677521   -0.744943   -2.278653
 H    2.248993   -0.213065    1.467581
 H    4.144936    0.636749    2.856031
 H    6.352025    1.036252    1.760518
 H   -6.042674   -0.999607    1.178133
 H   -1.043277    1.024828   -0.832720
 H    1.091640    0.895063   -1.157484
 H    4.912554   -0.181930   -1.894166
