45 
5bwb_ligand_dft.xyz
 C   -3.888297   -1.597455   -0.676168
 C   -2.491861   -1.432527   -0.077617
 C   -1.429771   -2.174308   -0.889564
 N   -4.563666    2.649111   -0.682959
 C    2.571539    0.715399    0.409586
 C    5.048734    0.090612   -1.204917
 C    5.668723    0.799798    2.238676
 C    4.310022    0.976290    2.193766
 C   -5.734198   -1.429662    1.019331
 C   -5.149525    0.472338    0.085308
 C   -0.027667   -2.113829   -0.276350
 C    0.556409   -0.702251   -0.188519
 O   -3.793569    3.301336   -1.632740
 C   -4.431050    1.383869   -0.795669
 N   -6.082840    0.791945    0.961607
 C   -6.448238   -0.384854    1.545966
 N   -4.906660   -0.879498    0.074224
 C    1.998766   -0.698482    0.315412
 N    3.941598    0.734937    0.897897
 N    6.149304    0.448730    1.013159
 C    5.095084    0.407865    0.216696
 N    5.970878   -0.306441   -2.000908
 O    7.197482   -0.456726   -1.404171
 H   -4.177383   -2.652656   -0.688308
 H   -3.906175   -1.256554   -1.716899
 H   -2.504679   -1.801138    0.956062
 H   -2.256930   -0.363039   -0.025442
 H   -1.397406   -1.762982   -1.908422
 H   -1.725059   -3.227020   -0.991652
 H    1.974542    1.321904    1.097389
 H    2.531094    1.217460   -0.562718
 H    4.090742    0.195620   -1.707256
 H    6.326045    0.912893    3.089477
 H    3.584796    1.251688    2.945111
 H   -5.740425   -2.491537    1.215214
 H    0.645447   -2.739360   -0.876367
 H   -0.049723   -2.559962    0.727407
 H   -0.057812   -0.081494    0.476988
 H    0.512375   -0.229708   -1.180463
 H   -3.983399    4.231124   -1.456280
 H   -3.770849    0.974044   -1.562669
 H   -7.212687   -0.420725    2.309544
 H    2.054898   -1.166834    1.305994
 H    2.629655   -1.300710   -0.350275
 H    7.749304   -0.756181   -2.137902
