33 
5byi_ligand_xtb.xyz
 O   -4.700985    1.116452   -1.162786
 S   -4.175771    0.749946    0.122189
 O   -4.114112    1.738337    1.161318
 N   -5.103159   -0.540608    0.703258
 C   -2.595621   -0.026441   -0.070118
 C   -1.732717   -0.085569    1.007848
 C   -0.512370   -0.712866    0.872505
 C   -0.150783   -1.281930   -0.353355
 C   -1.035909   -1.207609   -1.435076
 C   -2.257188   -0.584007   -1.288248
 N    1.037509   -1.962757   -0.493991
 N    2.042708   -1.786281    0.451176
 C    3.027954   -0.813599    0.230792
 C    2.767574    0.322026   -0.529846
 C    3.733407    1.296511   -0.682692
 C    4.982194    1.169451   -0.077750
 N    5.974803    2.111076   -0.295583
 C    5.234667    0.032156    0.689435
 C    4.274830   -0.947137    0.835174
 H   -5.850576   -0.768133    0.067808
 H   -5.457021   -0.348665    1.626447
 H   -2.028552    0.377003    1.935377
 H    0.182194   -0.764156    1.695474
 H   -0.753394   -1.639790   -2.384090
 H   -2.952391   -0.501986   -2.108076
 H    1.338773   -2.119130   -1.453799
 H    2.407025   -2.667907    0.796188
 H    1.802096    0.454413   -0.995586
 H    3.518450    2.172127   -1.277852
 H    5.654090    3.022178   -0.582964
 H    6.710339    2.136844    0.392747
 H    6.197006   -0.082874    1.167066
 H    4.485810   -1.823269    1.431939
