33 
5byi_ligand_ani.xyz
 O   -5.259011    0.389273    1.149491
 S   -4.562311   -0.516433    0.249581
 O   -4.535143   -1.954517    0.463788
 N   -5.185058   -0.273387   -1.283118
 C   -2.889486    0.045923    0.109267
 C   -1.924536   -0.806760   -0.419151
 C   -0.617881   -0.363709   -0.548862
 C   -0.274408    0.930323   -0.143749
 C   -1.252327    1.773497    0.397282
 C   -2.559533    1.332505    0.523583
 N    1.050809    1.377704   -0.213484
 N    1.906484    0.694099   -1.052546
 C    3.157468    0.321494   -0.542455
 C    3.409728    0.288294    0.829679
 C    4.636803   -0.140316    1.312156
 C    5.650775   -0.552665    0.441029
 N    6.903924   -0.927135    0.927278
 C    5.393037   -0.517606   -0.933487
 C    4.167797   -0.089552   -1.415970
 H   -5.912404    0.433605   -1.260727
 H   -5.516806   -1.153329   -1.664405
 H   -2.195177   -1.815999   -0.716747
 H    0.152579   -1.006933   -0.959266
 H   -0.979849    2.775733    0.719926
 H   -3.328272    1.973336    0.945755
 H    1.152568    2.385419   -0.230359
 H    1.916571    1.016422   -2.012975
 H    2.628979    0.602059    1.515335
 H    4.818741   -0.152825    2.385684
 H    6.905852   -1.266999    1.878990
 H    7.432705   -1.534099    0.316409
 H    6.170314   -0.825848   -1.630817
 H    3.986668   -0.073213   -2.489178
