65 
5byy_ligand_ani.xyz
 C   -2.539742    3.980031    0.660827
 C   -2.443324    1.986136   -0.548919
 C   -3.637424    1.315651   -0.363896
 C   -3.663817   -0.087854   -0.320176
 C   -2.448968   -0.768925   -0.479028
 C   -1.249263   -0.091536   -0.634783
 C   -1.217791    1.303121   -0.650699
 C    1.238431    1.755234   -0.546407
 C    2.778088    0.242441    0.213897
 C    3.975779   -1.887467    0.255437
 C    5.892575   -3.727974   -0.697373
 C    6.234617   -2.416515   -0.425161
 C    5.303887   -1.472069    0.029893
 C    5.909553   -0.130767    0.327100
 C    5.894190    2.207894    0.872586
 C   -6.019444   -0.079073    0.366329
 C   -7.392870   -2.174107    0.132963
 C   -6.129922   -2.880349   -0.333300
 O    7.121362   -0.038087    0.455435
 N    5.142487    1.020154    0.451162
 C    3.813610    1.192677    0.020357
 C    3.394966    2.403497   -0.537777
 N    2.139328    2.704035   -0.849518
 C    4.582671   -4.135143   -0.475719
 C    3.650462   -3.232384    0.007742
 N    2.956109   -1.032750    0.716211
 C    1.785258   -1.619565    1.366848
 N    1.505831    0.570071   -0.017545
 N   -0.063239    2.078832   -0.806294
 O   -2.430640    3.359960   -0.624185
 C   -2.501294    5.480376    0.469975
 N   -4.839772   -0.809958   -0.074934
 C   -5.166228   -1.899745   -0.989011
 O   -8.191720   -3.137125    0.799173
 C   -7.011260   -1.013980    1.049116
 H   -1.711190    3.631506    1.293556
 H   -3.478841    3.662499    1.135829
 H   -4.549014    1.900526   -0.276248
 H   -2.439804   -1.854471   -0.439183
 H   -0.330161   -0.649362   -0.766417
 H    6.639501   -4.426760   -1.063651
 H    7.256719   -2.075837   -0.556832
 H    6.639578    1.910581    1.607800
 H    6.420366    2.667768    0.026840
 H    5.214405    2.931748    1.325512
 H   -6.523170    0.424000   -0.483149
 H   -5.707435    0.694180    1.074911
 H   -7.926864   -1.774271   -0.748128
 H   -6.390442   -3.681948   -1.033421
 H   -5.654541   -3.347691    0.537474
 H    4.124649    3.183869   -0.749604
 H    4.284074   -5.163066   -0.667067
 H    2.635988   -3.578258    0.178840
 H    1.289575   -0.848831    1.958741
 H    1.054905   -1.986361    0.630287
 H    2.094188   -2.436176    2.023093
 H   -0.211712    3.038803   -1.084445
 H   -1.560870    5.783226    0.000057
 H   -3.328238    5.806445   -0.167488
 H   -2.586326    5.987705    1.437047
 H   -5.614624   -1.505362   -1.921505
 H   -4.248851   -2.416861   -1.280238
 H   -8.997942   -2.697319    1.097364
 H   -7.902944   -0.445548    1.344575
 H   -6.564651   -1.423048    1.963567
