31 
5c0k_ligand_ani.xyz
 C    2.466272   -0.629496   -1.487583
 C    2.432244   -0.350558    0.016990
 C    2.894786   -1.565968    0.818776
 C   -1.195736   -0.616486    0.825733
 C   -2.481159   -0.789973   -0.001652
 C    0.582727    1.444163   -0.157721
 C    1.043930    0.116083    0.494332
 N    0.019303   -0.886086    0.243255
 O   -1.305310   -0.097661    1.926169
 C   -2.330415   -1.292467   -1.426887
 N   -2.991758    0.637613    0.045031
 O   -0.449027    1.512003   -0.816162
 N    1.390857    2.515663    0.036726
 H    1.853720   -1.501658   -1.748652
 H    2.105040    0.225270   -2.070887
 H    3.490500   -0.847359   -1.808997
 H    3.128100    0.474217    0.220954
 H    3.900315   -1.870047    0.508731
 H    2.925272   -1.349347    1.892751
 H    2.218364   -2.412264    0.663756
 H   -3.156106   -1.427054    0.573258
 H    1.071854    0.266173    1.581059
 H   -0.046458   -1.129699   -0.736261
 H   -3.314945   -1.391443   -1.896084
 H   -1.860426   -2.279817   -1.451401
 H   -1.738369   -0.599294   -2.033672
 H   -2.878918    0.907929    1.044974
 H   -3.967795    0.745497   -0.271787
 H   -2.325339    1.209941   -0.522408
 H    1.071669    3.416548   -0.285763
 H    2.153506    2.485549    0.693361
