123 
5c11_ligand_xtb.xyz
 N   -4.503322   -3.611966   -0.280558
 C   -3.471897   -3.767207   -1.341170
 C   -3.271907   -2.399201   -2.024753
 O   -4.016050   -2.013370   -2.908321
 C   -3.947368   -4.783121   -2.366124
 N   -2.286151   -1.667686   -1.504835
 C   -1.901400   -0.383414   -2.062942
 C   -0.394589   -0.491386   -2.339234
 O    0.070568   -1.551639   -2.730515
 C   -2.296023    0.779203   -1.139678
 C   -3.675919    0.632446   -0.497855
 C   -4.858128    0.750458   -1.469414
 N   -6.103827    0.476421   -0.768857
 C   -6.447662   -0.790379   -0.417116
 N   -6.200728   -1.855839   -1.091658
 N   -7.096600   -0.929444    0.801201
 N    0.376286    0.581961   -2.104107
 C    1.826276    0.426413   -2.089303
 C    2.094593   -0.281346   -0.755353
 O    2.192746    0.331386    0.299038
 C    2.528932    1.785144   -2.196388
 O    2.116213    2.463020   -3.366600
 C    4.042573    1.610365   -2.152894
 N    2.096622   -1.620260   -0.853213
 C    1.930789   -2.508899    0.299024
 C    3.066466   -2.370234    1.311241
 C    4.382597   -2.868085    0.711055
 C    5.546817   -2.655051    1.674566
 C    6.860752   -3.328693    1.267486
 C    7.610066   -2.803206    0.023091
 C    9.073803   -3.244564    0.153627
 C    7.567228   -1.276190   -0.059489
 C    7.056848   -3.406170   -1.271644
 C    0.512285   -2.217683    0.800555
 O   -0.447657   -2.769758    0.282044
 N    0.382314   -1.251120    1.718570
 C   -0.915504   -0.786221    2.154844
 C   -1.016225    0.738758    2.283891
 O   -2.058259    1.253996    2.651666
 C   -1.318202   -1.504541    3.460093
 C   -2.755638   -1.217513    3.891354
 C   -3.764686   -1.544441    2.813956
 O   -3.560360   -2.373958    1.933825
 N   -4.920824   -0.877327    2.895935
 N    0.094384    1.445526    2.009100
 C    0.075453    2.889002    2.072548
 C   -0.118010    3.481350    0.676984
 O   -0.167437    2.776707   -0.321685
 C    1.359494    3.430604    2.737132
 O    1.090401    4.779759    3.076482
 C    2.584529    3.305180    1.837006
 N   -0.260602    4.808906    0.644916
 C   -0.276943    5.507031   -0.631807
 C    0.816131    4.865808   -1.497567
 O    1.944935    4.729175   -1.098688
 C    0.003793    6.987786   -0.426883
 O    0.387498    4.484883   -2.680560
 H   -5.358648   -2.945364   -0.625075
 H   -4.108278   -3.153024    0.573043
 H   -4.864586   -4.529067   -0.020261
 H   -2.531740   -4.082349   -0.879992
 H   -4.135396   -5.748180   -1.901627
 H   -3.189997   -4.913291   -3.133414
 H   -4.854851   -4.425182   -2.846499
 H   -1.641190   -2.098360   -0.843258
 H   -2.420698   -0.295787   -3.025732
 H   -2.253547    1.710329   -1.704899
 H   -1.575422    0.851821   -0.324670
 H   -3.767097    1.402537    0.272191
 H   -3.735632   -0.336711    0.004169
 H   -4.919500    1.756768   -1.885694
 H   -4.747711    0.044519   -2.293314
 H   -6.368942    1.201968   -0.117111
 H   -5.776512   -1.682709   -1.997844
 H   -7.625158   -0.124912    1.108027
 H   -7.622718   -1.789769    0.874880
 H    0.023788    1.426201   -1.667090
 H    2.109594   -0.218494   -2.929508
 H    2.206512    2.416445   -1.364466
 H    2.488865    2.017881   -4.137287
 H    4.341302    1.166815   -1.208225
 H    4.519173    2.582395   -2.244396
 H    4.381285    0.971054   -2.967535
 H    1.783528   -2.002838   -1.740465
 H    1.924703   -3.528785   -0.097440
 H    2.819111   -2.954113    2.200429
 H    3.192867   -1.326050    1.598223
 H    4.297395   -3.929648    0.470864
 H    4.560257   -2.322751   -0.215603
 H    5.262757   -3.071378    2.645519
 H    5.707192   -1.585804    1.818018
 H    7.534997   -3.225353    2.121182
 H    6.677608   -4.397092    1.132127
 H    9.541474   -2.782544    1.020111
 H    9.138053   -4.324611    0.264613
 H    9.639816   -2.958931   -0.729835
 H    6.561128   -0.916818   -0.261075
 H    7.917105   -0.832929    0.870063
 H    8.213590   -0.930830   -0.863168
 H    7.073914   -4.492550   -1.223281
 H    7.670369   -3.096688   -2.115152
 H    6.037522   -3.088280   -1.465693
 H    1.205261   -0.883197    2.169419
 H   -1.630003   -1.097260    1.383317
 H   -1.205558   -2.575173    3.277661
 H   -0.638346   -1.212999    4.262515
 H   -2.992319   -1.830543    4.764713
 H   -2.859408   -0.168738    4.166028
 H   -5.046497   -0.161854    3.590179
 H   -5.654286   -1.016627    2.206045
 H    0.846171    1.046623    1.453816
 H   -0.781820    3.178921    2.692088
 H    1.518496    2.850144    3.661451
 H    1.912419    5.193938    3.362932
 H    2.481001    3.934325    0.955160
 H    2.717941    2.278303    1.510617
 H    3.477387    3.611729    2.378897
 H   -0.042865    5.329502    1.486765
 H   -1.243673    5.348880   -1.123107
 H    1.003209    7.121207   -0.018653
 H   -0.056891    7.512384   -1.376352
 H   -0.724535    7.416630    0.256871
 H    1.068436    3.938422   -3.136168
