66 
5c1m_ligand_xtb.xyz
 C    0.966717    0.987863   -1.603668
 C    2.068197    2.042337   -1.561718
 N    1.937034    2.877210   -0.344526
 C    2.864406    4.025370   -0.366618
 C    2.030832    2.046401    0.907589
 C    3.377254    1.335438    1.029550
 C    3.457105    0.014741    0.301803
 C    4.694341   -0.622398    0.259968
 C    4.877205   -1.805792   -0.420241
 C    3.806775   -2.370975   -1.109978
 O    3.895978   -3.494847   -1.833273
 C    2.565381   -1.739762   -1.065921
 C    2.367712   -0.577103   -0.335260
 C    1.003743    0.113051   -0.330740
 C   -0.141414   -0.921083   -0.251624
 N   -1.324774   -0.670258   -1.122354
 C   -0.869109   -0.871586    1.131397
 O   -1.822147   -1.902650    1.141657
 C   -1.537563   -3.092324    1.866162
 C    0.107961   -0.819785    2.252193
 C    1.028324    0.123630    2.148606
 C    0.901621    1.010421    0.937529
 C   -0.517983    1.613950    1.068449
 C   -1.595582    0.510298    0.956183
 C   -2.697977    0.704623    1.987575
 C   -2.134973    0.440238   -0.506570
 C   -3.617917    0.216886   -0.688263
 C   -4.218164   -1.027250   -0.523413
 C   -5.581279   -1.173323   -0.714637
 C   -6.359599   -0.083593   -1.067934
 C   -5.769748    1.158487   -1.228864
 C   -4.406485    1.306087   -1.045530
 H    0.009800    1.495604   -1.729371
 H    1.144995    0.360618   -2.478929
 H    3.050917    1.568688   -1.553325
 H    2.001726    2.686427   -2.441015
 H    0.987564    3.267322   -0.339956
 H    3.888277    3.690568   -0.513519
 H    2.803168    4.579298    0.568266
 H    2.605258    4.694110   -1.185650
 H    1.907259    2.741942    1.744421
 H    4.188462    1.980665    0.688963
 H    3.579036    1.160805    2.088530
 H    5.531966   -0.172080    0.769789
 H    5.845836   -2.281382   -0.433801
 H    4.786304   -3.870083   -1.808876
 H    1.782069   -2.201398   -1.645904
 H    0.230544   -1.927509   -0.442880
 H   -1.926209   -1.507364   -1.025880
 H   -1.113326   -0.525762   -2.111565
 H   -1.678280   -2.951068    2.938745
 H   -2.264260   -3.822091    1.514282
 H   -0.528020   -3.457561    1.664500
 H    0.038293   -1.502863    3.076775
 H    1.777556    0.293775    2.897462
 H   -0.590736    2.081150    2.051648
 H   -0.716131    2.396307    0.333414
 H   -3.227783    1.636235    1.808697
 H   -2.271542    0.728078    2.986818
 H   -3.410526   -0.112889    1.938898
 H   -1.901458    1.372245   -1.027377
 H   -3.644875   -1.887853   -0.209893
 H   -6.036161   -2.142152   -0.582924
 H   -7.420866   -0.202112   -1.214733
 H   -6.367720    2.012860   -1.502370
 H   -3.956295    2.279691   -1.178288
