60 
5c1y_ligand_dft.xyz
 O   -0.105505   -0.752598    1.794838
 C   -0.614900   -0.671674    0.687189
 C   -0.531322   -1.826086   -0.326211
 C   -1.675620   -2.826925   -0.077567
 C   -3.006876   -2.113847   -0.129399
 C   -3.637915   -1.704768    1.046741
 C   -4.795545   -0.933115    0.999302
 C   -5.334987   -0.557841   -0.229291
 C   -4.716886   -0.968256   -1.408962
 C   -3.561115   -1.743275   -1.357431
 N    0.754169   -2.483265   -0.218509
 C    1.889875   -1.789427   -0.461183
 O    2.966410   -2.439665   -0.038156
 C    4.253192   -1.788583   -0.180451
 C    4.428796   -0.776838    0.943399
 C    5.288479   -2.896694   -0.153509
 O    1.903223   -0.696715   -1.034352
 N   -1.259732    0.433023    0.246833
 C   -1.501433    1.584800    1.102006
 C   -2.574560    2.434827    0.439462
 O   -2.094707    2.852625   -0.841901
 C   -0.211791    2.400018    1.429323
 C    1.039437    2.006019    0.650448
 C    2.285578    2.843882    0.992489
 C    3.206395    2.715269   -0.236340
 N    2.369518    1.992343   -1.267728
 C    0.934353    2.169599   -0.864652
 O    0.585117    3.443127   -1.280862
 H   -0.622246   -1.428062   -1.342229
 H   -1.616479   -3.617362   -0.832944
 H   -1.533220   -3.289043    0.906173
 H   -3.210502   -1.980773    2.007363
 H   -5.281824   -0.632836    1.922534
 H   -6.245391    0.032644   -0.267936
 H   -5.144927   -0.699490   -2.369971
 H   -3.088685   -2.070285   -2.281421
 H    0.840895   -3.249612    0.434757
 H    4.260600   -1.286259   -1.152540
 H    3.625710   -0.032780    0.933026
 H    4.412587   -1.278354    1.915367
 H    5.389789   -0.263061    0.837702
 H    6.287909   -2.471493   -0.283656
 H    5.259968   -3.426965    0.802978
 H    5.109559   -3.615072   -0.957401
 H   -1.764343    0.385600   -0.627867
 H   -1.923904    1.220084    2.045019
 H   -2.798073    3.301120    1.073529
 H   -3.488090    1.838624    0.316950
 H   -2.809014    3.299210   -1.311907
 H   -0.405597    3.467596    1.270451
 H    0.014469    2.276484    2.491412
 H    1.260368    0.954527    0.851585
 H    2.774279    2.484842    1.900220
 H    2.015611    3.892100    1.140987
 H    4.105598    2.125246   -0.058741
 H    3.487929    3.681060   -0.653629
 H    2.537776    0.967235   -1.255374
 H    2.515876    2.347941   -2.214457
 H    0.358826    1.384371   -1.357248
 H   -0.388373    3.491352   -1.195639
