60 
5c1y_ligand_ani.xyz
 O    0.119100   -0.738380    2.179900
 C   -0.437398   -0.694455    1.095181
 C   -0.151800   -1.708988   -0.031720
 C   -1.224690   -2.816831   -0.071639
 C   -2.610851   -2.273886   -0.330118
 C   -3.567182   -2.238540    0.688366
 C   -4.800445   -1.621708    0.489765
 C   -5.096175   -1.030721   -0.735872
 C   -4.158465   -1.078889   -1.766396
 C   -2.930974   -1.706152   -1.567709
 N    1.170019   -2.274212    0.100870
 C    2.249102   -1.523120   -0.287732
 O    3.389660   -2.074809    0.153823
 C    4.608400   -1.384890   -0.217990
 C    4.854495   -0.248227    0.759171
 C    5.709025   -2.426784   -0.210673
 O    2.193450   -0.503014   -0.955294
 N   -1.336816    0.267613    0.757496
 C   -1.595608    1.455505    1.549665
 C   -2.977379    1.944681    1.124064
 O   -2.916834    2.191366   -0.284129
 C   -0.530832    2.583997    1.412538
 C    0.697363    2.269343    0.557670
 C    1.730273    3.396904    0.474312
 C    2.639208    2.949503   -0.679664
 N    1.764070    2.126025   -1.585895
 C    0.432046    1.991646   -0.934126
 O   -0.441830    2.907810   -1.548009
 H   -0.164835   -1.176587   -0.991099
 H   -0.924680   -3.517548   -0.858510
 H   -1.200155   -3.362289    0.879564
 H   -3.332763   -2.682262    1.654374
 H   -5.530532   -1.600500    1.296504
 H   -6.055484   -0.542544   -0.891695
 H   -4.383149   -0.626091   -2.729371
 H   -2.208020   -1.739210   -2.382203
 H    1.343447   -2.796128    0.950603
 H    4.465090   -0.985322   -1.225673
 H    4.016584    0.454799    0.746165
 H    4.965571   -0.633968    1.778391
 H    5.764446    0.293553    0.482013
 H    6.655044   -1.981063   -0.534439
 H    5.845218   -2.832061    0.797595
 H    5.462889   -3.248861   -0.888011
 H   -1.810490    0.227913   -0.135734
 H   -1.630570    1.143051    2.596114
 H   -3.253764    2.859349    1.666868
 H   -3.723829    1.167988    1.346261
 H   -3.812136    2.332895   -0.615660
 H   -1.009371    3.488300    1.012968
 H   -0.194276    2.852798    2.422554
 H    1.190109    1.378610    0.973036
 H    2.280584    3.540790    1.410109
 H    1.229448    4.337959    0.218230
 H    3.459972    2.321588   -0.319929
 H    3.072066    3.778686   -1.238522
 H    2.164415    1.179767   -1.707795
 H    1.627393    2.552740   -2.516050
 H    0.083863    0.980103   -1.132528
 H   -1.350035    2.703446   -1.244325
