48 
5c26_ligand_xtb.xyz
 N   -0.219444    0.853836   -0.165511
 C   -2.242225    2.134987   -0.197877
 C   -5.539176   -2.044715    0.548067
 C   -3.548699   -0.541872    0.138234
 C    5.052423    0.190613    0.141704
 C    4.664956   -1.137958    0.146592
 C    3.286331   -1.449371    0.115524
 C   -3.519753   -2.814931   -0.648971
 C   -2.253890   -2.619153   -1.169738
 C   -1.635911   -1.389813   -1.040390
 C    4.108684    1.205968    0.104466
 C    2.350024   -0.433032    0.075052
 C   -0.659371    5.282205    0.085358
 C   -1.846120    4.594586   -0.028898
 C   -2.272938   -0.341401   -0.379305
 C   -4.178819   -1.772296   -0.003801
 C    2.755752    0.902415    0.069092
 C   -0.134607    3.228460    0.000012
 C   -1.570768    0.942764   -0.235008
 C    0.496359    1.949385   -0.043219
 C    6.893465   -1.959664    0.206797
 C    1.633946   -3.155060    0.068553
 N    0.389878    4.438504    0.102375
 N   -1.509518    3.280945   -0.082667
 N   -6.372339   -0.972983    0.590464
 N    1.845686    1.954031    0.040064
 O   -5.884968   -3.140551    0.934238
 O    5.511481   -2.207107    0.180480
 O    2.986591   -2.775813    0.130814
 H   -3.311377    2.234759   -0.283039
 H   -4.025768    0.249539    0.698089
 H    6.096833    0.456311    0.167729
 H   -4.017276   -3.769405   -0.727556
 H   -1.747329   -3.427765   -1.675308
 H   -0.652300   -1.216608   -1.447740
 H    4.433201    2.235808    0.103878
 H    1.294901   -0.638702    0.056747
 H   -0.512210    6.341531    0.155591
 H   -2.860170    4.933884   -0.073738
 H    7.224619   -1.417101   -0.685532
 H    7.187791   -1.399154    1.100872
 H    7.366821   -2.940167    0.226435
 H    1.059884   -2.760581    0.912855
 H    1.168859   -2.826863   -0.866163
 H    1.633356   -4.243191    0.108961
 H   -7.316030   -1.119975    0.908353
 H   -6.145587   -0.102646    0.145768
 H    2.239114    2.885065    0.103005
