22 
5c28_ligand_ani.xyz
 C    0.948404    1.521657    0.000456
 C   -1.095787    0.527802    0.001070
 N   -0.597286   -0.708969    0.008048
 C   -2.570360    0.662203    0.000403
 C   -3.413209   -0.350586    0.739895
 C    0.720056   -0.805579    0.000855
 N   -0.376748    1.653342   -0.005644
 C    1.597418    0.265352   -0.013821
 N    1.680002    2.680944   -0.036843
 C    3.096373    0.173905   -0.042971
 C   -3.412074   -0.342391   -0.752065
Cl    1.345558   -2.433673    0.016272
 H   -2.895969    1.699286    0.004805
 H   -4.289791    0.020635    1.263214
 H   -2.881975   -1.161422    1.232976
 H    1.135615    3.510467    0.150277
 H    2.592100    2.675765    0.394432
 H    3.511877    0.892725   -0.757297
 H    3.534321    0.380879    0.940446
 H    3.420987   -0.824369   -0.340875
 H   -2.880736   -1.147891   -1.253857
 H   -4.287620    0.034972   -1.272603
