31 
5c29_ligand_xtb.xyz
 C    0.667984   -0.691835   -0.343971
 C   -0.870011    2.569472   -0.177673
 C   -1.879888    3.206612    0.743715
 C    4.884173    0.890968    0.588526
 C    3.671443   -0.022419    0.700971
 C    3.060851   -0.308824   -0.674059
 C   -1.624048   -0.939888    0.081036
 N   -1.792114    0.369529    0.066648
 C   -0.714147    1.109797   -0.158042
 N    0.503285    0.630965   -0.359108
 C   -0.417649   -1.578103   -0.118694
 C   -2.148919    3.158958   -0.717447
 C   -0.235742   -3.062539   -0.108085
Cl   -3.069296   -1.843114    0.380651
 N    1.905874   -1.170626   -0.598732
 H    0.058419    3.091061   -0.365380
 H   -1.617790    4.149317    1.199354
 H   -2.441639    2.538908    1.377373
 H    5.654710    0.430690   -0.026293
 H    4.603070    1.838141    0.135130
 H    5.302893    1.090661    1.571578
 H    2.909508    0.449184    1.323924
 H    3.962018   -0.964307    1.174031
 H    3.800801   -0.786198   -1.322651
 H    2.732308    0.627202   -1.127949
 H   -2.891437    2.459220   -1.066619
 H   -2.076901    4.068016   -1.294851
 H    0.173246   -3.404066   -1.059213
 H    0.444009   -3.362549    0.691054
 H   -1.191711   -3.552134    0.053966
 H    2.072931   -2.142489   -0.393845
