55 
5c2h_ligand_ani.xyz
 C   -3.431669    1.252240   -0.557773
 C   -4.272872   -0.778717   -1.633845
 C   -4.462421   -3.553948    1.123369
 C   -4.210599   -3.264365   -1.056650
 C   -4.014913   -3.766381   -2.452061
 C   -4.581944   -4.268982    2.428407
 C    2.385263    1.020021   -0.545723
 C    5.708351    0.859388   -1.666009
 C    7.138954   -0.682496   -0.501647
 C    6.279520   -0.535300    0.614065
 C   -2.535278    3.151988    0.470600
 N   -1.295244    2.735206    0.242667
 O    0.012964    1.071731   -0.627840
 S   -4.541303   -1.820337    1.005055
Cl   -2.648494    4.684301    1.304400
 C   -1.200907    1.569480   -0.386643
 N   -2.200757    0.808619   -0.814874
 C   -3.685965    2.484340    0.111878
 N   -4.467602    0.496977   -0.995960
 C   -5.094978    2.954731    0.352962
 C   -4.323081   -1.956148   -0.701594
 N   -4.291450   -4.163293   -0.008645
 C    1.154340    1.888243   -0.331312
 C    3.685453    1.827195   -0.455993
 C    4.908357    0.943856   -0.491668
 C    6.810478    0.050660   -1.669906
 N    5.170973    0.260915    0.596410
 C    8.267080   -1.538488   -0.400709
 C    8.524635   -2.211664    0.764509
 C    7.664001   -2.060752    1.881390
 C    6.567173   -1.244605    1.809451
 H   -3.300285   -0.753319   -2.136422
 H   -5.034025   -0.905817   -2.415954
 H   -4.818418   -3.426981   -3.117774
 H   -3.069976   -3.407492   -2.878777
 H   -4.002531   -4.856687   -2.447162
 H   -3.773517   -3.984087    3.110724
 H   -5.533880   -4.040975    2.919909
 H   -4.525022   -5.342237    2.236941
 H    2.301036    0.536799   -1.525696
 H    2.405639    0.220927    0.205947
 H    5.435459    1.440525   -2.544118
 H   -5.392867    0.690214   -0.645544
 H   -5.673045    2.953359   -0.578670
 H   -5.616873    2.316320    1.076421
 H   -5.105041    3.972014    0.746976
 H    1.152322    2.759455   -0.998874
 H    1.088557    2.252205    0.699481
 H    3.707351    2.381390    0.489853
 H    3.728319    2.561574   -1.270633
 H    7.441329   -0.035319   -2.552679
 H    8.921323   -1.647954   -1.263730
 H    9.389187   -2.865657    0.842752
 H    7.882305   -2.601003    2.799478
 H    5.888883   -1.109559    2.646813
