78 
5c4k_ligand_ani.xyz
 C   -3.239083   -0.558572   -0.269665
 O   -2.083939   -0.216909   -0.988472
 C   -3.744998   -1.914108   -0.773980
 N   -3.894667   -1.754184   -2.256728
 C   -5.070661   -2.252916   -0.083598
 O   -4.744284   -2.602180    1.254486
 C   -6.074305   -1.084884   -0.183479
 O   -6.495321   -1.166191   -1.558622
 C   -5.477379    0.317059    0.064009
 O   -4.206877    0.432260   -0.557437
 C   -5.496338    0.898583    1.492033
 O   -4.691332    2.075784    1.398762
 C   -5.048089    0.032829    2.661306
 C    1.151085    2.455787   -0.443754
 N    2.242847    3.313835    0.158990
 C   -0.244921    3.028399   -0.235755
 C   -1.297572    2.098510   -0.843579
 N   -2.678848    2.613857   -0.591430
 C   -1.179977    0.653403   -0.305278
 C    0.226870    0.073429   -0.435472
 O    0.245821   -1.148447    0.266918
 C    1.264254    1.043572    0.139131
 O    2.575191    0.604325   -0.174818
 C    3.372512    0.126481    0.865276
 C    4.814036    0.545668    0.519274
 O    4.742733    1.833154   -0.087371
 C    5.451414   -0.533759   -0.381513
 N    6.883989   -0.265502   -0.779815
 C    7.411926    1.116106   -0.750389
 C    5.419719   -1.930567    0.302177
 O    6.698191   -2.085907    0.938887
 C    5.175856   -3.043509   -0.717058
 C    4.342371   -1.939941    1.396956
 O    3.182160   -1.266191    0.951318
 H   -3.039775   -0.593051    0.804942
 H   -3.013754   -2.685002   -0.537896
 H   -3.761155   -2.648108   -2.756517
 H   -3.170291   -1.063606   -2.541571
 H   -4.860148   -1.372339   -2.405694
 H   -5.531128   -3.110264   -0.591409
 H   -5.422364   -3.205879    1.581872
 H   -6.926825   -1.262096    0.491203
 H   -7.075347   -0.422390   -1.770749
 H   -6.094847    1.020940   -0.507207
 H   -6.545063    1.188201    1.675358
 H   -4.746104    2.528241    2.251119
 H   -3.981757   -0.201789    2.611143
 H   -5.218908    0.575205    3.599282
 H   -5.614731   -0.898503    2.703610
 H    1.354137    2.378492   -1.513581
 H    2.414613    4.143931   -0.440359
 H    1.953476    3.622044    1.113705
 H    3.136550    2.782973    0.249944
 H   -0.454452    3.141489    0.838753
 H   -0.323214    4.019136   -0.698419
 H   -1.149661    2.045281   -1.927095
 H   -2.836777    3.536080   -1.039599
 H   -2.906695    2.654632    0.422949
 H   -3.353532    1.933191   -0.990285
 H   -1.423765    0.670164    0.766157
 H    0.448449   -0.069605   -1.509170
 H    1.168449   -1.450345    0.311349
 H    1.122703    1.073939    1.229973
 H    3.079285    0.590700    1.820277
 H    5.408832    0.669007    1.428604
 H    4.328275    1.693346   -0.953582
 H    4.841057   -0.571435   -1.288184
 H    7.019198   -0.645550   -1.736325
 H    7.432732   -0.867479   -0.122877
 H    6.955765    1.742637   -1.522955
 H    8.492808    1.098318   -0.905328
 H    7.215015    1.585515    0.214639
 H    6.775846   -3.002442    1.236015
 H    5.966147   -3.088038   -1.475294
 H    4.216386   -2.892667   -1.220786
 H    5.139118   -4.018494   -0.216156
 H    4.742007   -1.481461    2.313589
 H    4.047136   -2.965969    1.640381
