43 
5c4o_ligand_xtb.xyz
 N    1.196478    1.094194    0.330807
 C   -4.496746    0.412812   -0.962837
 C   -3.263624    1.020346   -0.849170
 C   -2.248869    0.409986   -0.112848
 C   -0.939166    1.020895    0.040594
 C    2.458810    0.574703    0.489238
 C    2.004632   -1.632785    1.597419
 C    2.957294   -3.033818   -0.594876
 C    3.406518   -0.899449   -1.829523
 C    1.547469    3.590458    0.381720
 C   -1.276458    3.628137    0.046498
 C   -0.586878    2.418745    0.089364
 O    3.447083    1.246917    0.627264
 C    2.452826   -0.929666    0.483540
 C    2.924461   -1.646561   -0.612879
 F    3.427798   -1.674539   -2.924375
 F    4.651147   -0.425411   -1.683240
 F    2.626669    0.152059   -2.133138
 C    2.511130   -3.712939    0.525815
 C    2.031878   -3.018666    1.622240
Cl    1.418524   -0.760671    2.961020
 N    0.127208    0.278338    0.189904
 C    0.810579    2.422039    0.275276
 C   -0.545716    4.792343    0.153434
 C    0.842146    4.774794    0.309632
 C   -2.487629   -0.831919    0.477862
 C   -3.725303   -1.431773    0.374806
 C   -4.749512   -0.805601   -0.335206
 C   -6.112241   -1.393030   -0.488953
 O   -6.848610   -1.103345   -1.391023
 O   -6.497379   -2.270426    0.456404
 H   -5.290465    0.867045   -1.536181
 H   -3.074688    1.952602   -1.357545
 H    3.324592   -3.572517   -1.454087
 H    2.615696    3.563712    0.516563
 H   -2.350013    3.656775   -0.053145
 H    2.535804   -4.791074    0.543300
 H    1.680210   -3.542310    2.497063
 H   -1.055758    5.743313    0.119146
 H    1.373075    5.711408    0.385512
 H   -1.685246   -1.309600    1.018155
 H   -3.870257   -2.405820    0.824538
 H   -5.836550   -2.378307    1.153110
