43 
5c4u_ligand_ani.xyz
 C   -3.610755   -3.466469   -0.379164
 C   -3.928090   -2.646489    0.696750
 C   -3.982391   -0.422664    1.833189
 C    2.209472    0.248366   -0.011979
 C    4.741782   -0.974020    0.326406
 F    1.319028   -1.942681   -0.303205
 C    2.367269   -1.143441   -0.075932
 C    3.603682   -1.738732    0.076264
 C    6.063642   -1.642209    0.566611
 O    6.302048   -2.720128   -0.219761
 O    6.860704   -1.304681    1.396318
 C    4.604680    0.414982    0.401716
 O    5.706164    1.169100    0.619587
 C    3.358119    1.004031    0.225996
 C    0.892121    0.890875   -0.173609
 C    0.606711    2.311492   -0.251756
 N    1.408745    3.397545   -0.215800
 C    0.788365    4.557972   -0.333987
 N   -0.225353    0.200358   -0.256085
 N   -1.240275    1.089105   -0.383963
 C   -0.786273    2.391802   -0.387920
 C   -1.436120    3.620900   -0.505776
 C   -0.605273    4.722665   -0.477771
 C   -2.591300    0.715485   -0.429964
 O   -3.454026    1.559625   -0.450364
 C   -2.890073   -0.758537   -0.418926
 C   -3.584103   -1.303038    0.667722
 F   -2.967318    0.372149    2.222223
 F   -4.349184   -1.152766    2.902091
 F   -5.017294    0.371442    1.526021
 C   -2.950665   -2.944915   -1.481745
 C   -2.596452   -1.600029   -1.499775
Cl   -1.781705   -0.999753   -2.912413
 H   -3.881214   -4.517262   -0.360226
 H   -4.440059   -3.045039    1.565660
 H    3.652845   -2.824201    0.045491
 H    5.625456   -2.783306   -0.908244
 H    5.439111    2.097823    0.617833
 H    3.258513    2.083770    0.269740
 H    1.424926    5.439948   -0.311642
 H   -2.510388    3.690217   -0.609664
 H   -1.012431    5.724662   -0.563969
 H   -2.701867   -3.572651   -2.331524
