60 
5c5h_ligand_xtb.xyz
 C    0.206240   -0.018270   -2.441242
 C    0.366712    1.380551   -2.424874
 C    1.681365    1.861519   -2.498069
 C   -1.714042    0.997671   -2.315861
 N    2.681018    0.980778   -2.534036
 N    1.210820   -0.890140   -2.513040
 O    0.398840   -2.478879    2.077498
 C    1.112259   -1.505696    2.162903
 O    0.794755   -0.385861    2.785491
 C    2.479921   -1.436849    1.572029
 C    3.388125   -2.474861    1.718305
 C    4.654202   -2.362547    1.170351
 C    5.009067   -1.219710    0.471429
 C    4.103988   -0.183638    0.312327
 C    2.831318   -0.284396    0.859410
 C    1.784892    0.748736    0.632514
 O    0.705558    0.456756    0.162632
 C    2.146508    2.151280    1.057221
 C    0.998164    3.141237    0.831842
 C   -0.227648    2.625885    1.557038
 O   -0.308323    2.514838    2.756104
 N   -1.285071    2.258134    0.781001
 S   -2.387259    1.282501    1.574797
 O   -3.355868    2.047252    2.267007
 O   -1.764292    0.203289    2.272008
 O   -3.008312    0.719720    0.212754
 C   -3.868653   -0.411454    0.281000
 C   -3.280212   -1.598286   -0.489288
 O   -3.155019   -1.312081   -1.877608
 C   -1.887263   -2.010994    0.016705
 O   -2.008668   -3.067461    0.920898
 C   -1.174939   -2.444110   -1.285381
 O   -1.471256   -3.777105   -1.580041
 C   -1.839009   -1.509046   -2.307745
 N   -1.139818   -0.235952   -2.373585
 N   -0.863080    1.983828   -2.329559
 C    2.393492   -0.314181   -2.538130
 N    1.986051    3.186276   -2.469737
 H   -2.776553    1.120680   -2.264194
 H   -0.169825   -0.289234    2.955563
 H    3.093943   -3.357323    2.265200
 H    5.362978   -3.168519    1.284170
 H    5.994308   -1.137027    0.037973
 H    4.370133    0.681473   -0.275105
 H    3.041846    2.471832    0.521742
 H    2.386720    2.101780    2.122804
 H    1.272089    4.107356    1.257166
 H    0.791924    3.250341   -0.230579
 H   -1.216244    2.195237   -0.229282
 H   -4.826333   -0.119970   -0.158846
 H   -4.006563   -0.697085    1.326475
 H   -3.967911   -2.447772   -0.375711
 H   -1.376211   -1.146923    0.451637
 H   -1.221551   -3.063661    1.495435
 H   -0.090139   -2.291133   -1.252882
 H   -1.753516   -4.183130   -0.741238
 H   -1.864262   -1.962484   -3.307274
 H    3.244187   -0.981276   -2.574845
 H    1.247733    3.824265   -2.717537
 H    2.923707    3.431300   -2.743560
