16 
5c5t_ligand_xtb.xyz
 C    2.402500    0.288201   -0.021338
 O    3.292834   -0.563697   -0.502715
 O    2.627911    1.421709    0.290794
 C    1.007365   -0.373041    0.113741
 O    0.918819   -1.550606   -0.157457
 C   -0.090309    0.520026    0.567380
 C   -1.401853   -0.218377    0.823061
 C   -2.471651    0.193437   -0.180702
 O   -2.311176    1.024932   -1.024010
 O   -3.639751   -0.451198   -0.051092
 H    2.851371   -1.426774   -0.656122
 H   -0.250317    1.254935   -0.235037
 H    0.263330    1.090438    1.427694
 H   -1.777669   -0.022808    1.829621
 H   -1.235750   -1.296093    0.721307
 H   -3.636381   -1.110309    0.655517
