72 
5c6p_ligand_dft.xyz
 C    1.860748   -2.480754   -2.381336
 O    1.766177   -1.967669   -1.055160
 C    1.967533   -0.621932   -0.926637
 C    0.900956    0.179740   -0.552099
 C    3.262068   -0.072770   -1.041911
 O    4.242127   -0.936748   -1.380140
 C    5.550806   -0.422847   -1.566344
 C    3.436139    1.279044   -0.763057
 C    2.357851    2.064354   -0.344617
 C    1.080978    1.530817   -0.222799
 C   -0.121906    2.331876    0.286686
 C   -1.226186    2.438124   -0.822838
 C   -0.661957    3.049185   -2.107818
 C   -2.467264    3.207626   -0.363478
 C    0.307469    3.689748    0.668052
 N    0.635042    4.748945    1.001245
 C   -0.681054    1.653938    1.568900
 C    0.345902    1.457534    2.706015
 C    0.358512    0.047008    3.294524
 N    0.965607   -0.990733    2.382512
 C    2.442770   -0.823165    2.249193
 C    0.642286   -2.407715    2.780697
 C   -0.843947   -2.763636    2.679908
 C   -1.456489   -2.353907    1.359400
 C   -2.426334   -1.348938    1.317442
 C   -1.043913   -2.919887    0.156250
 C   -1.551901   -2.462814   -1.058164
 C   -2.469419   -1.412880   -1.097875
 O   -2.931015   -0.834313   -2.227351
 C   -2.449945   -1.305996   -3.472273
 C   -2.934435   -0.866956    0.118134
 O   -3.772291    0.196337    0.185838
 C   -5.011857    0.137181   -0.522668
 H    2.860373   -2.326864   -2.795221
 H    1.113615   -2.003789   -3.027630
 H    1.654002   -3.549563   -2.309023
 H   -0.082964   -0.283305   -0.525793
 H    5.567785    0.340657   -2.352049
 H    6.162633   -1.271655   -1.869697
 H    5.948449   -0.002182   -0.635203
 H    4.414467    1.738061   -0.845143
 H    2.534201    3.110530   -0.115422
 H   -1.534552    1.406514   -1.034852
 H   -1.434418    3.059948   -2.882175
 H   -0.342624    4.084630   -1.942986
 H    0.193489    2.485485   -2.491301
 H   -2.213323    4.227751   -0.053778
 H   -2.990005    2.704509    0.453231
 H   -3.173870    3.280083   -1.195733
 H   -1.107212    0.696976    1.257410
 H   -1.522512    2.239899    1.943168
 H    1.351870    1.747668    2.387451
 H    0.107494    2.127537    3.537158
 H   -0.661487   -0.277737    3.505553
 H    0.933052    0.001185    4.223793
 H    0.567019   -0.851355    1.441557
 H    2.897655   -0.978784    3.228883
 H    2.663519    0.176330    1.877561
 H    2.812160   -1.558625    1.534369
 H    1.223527   -3.034647    2.100581
 H    1.025649   -2.547673    3.795222
 H   -0.901867   -3.848959    2.819984
 H   -1.404758   -2.325143    3.510718
 H   -2.808046   -0.896905    2.229268
 H   -0.302597   -3.713437    0.145556
 H   -1.192632   -2.909932   -1.977295
 H   -2.941595   -0.697383   -4.230299
 H   -2.707541   -2.359661   -3.627896
 H   -1.363420   -1.174337   -3.548973
 H   -5.487798   -0.838960   -0.381924
 H   -5.637554    0.913747   -0.081934
 H   -4.869188    0.329193   -1.586660
