102 
5c6v_ligand_dft.xyz
 N   -0.616946   -1.919975   -0.552252
 C   -1.820673   -2.512113    0.068704
 C   -3.008225   -1.907588   -0.670913
 O   -2.891730   -1.685294   -1.872981
 N   -4.096666   -1.597666    0.047776
 C   -5.192581   -0.799769   -0.508578
 C   -4.825900    0.699573   -0.342362
 O   -5.544712    1.483307    0.254295
 C   -6.527377   -1.116656    0.156273
 C   -7.120729   -2.512573   -0.110747
 C   -6.389392   -3.651212    0.609680
 C   -7.253481   -2.811308   -1.606617
 N   -3.610109    1.017680   -0.857045
 C   -2.905957    2.256544   -0.628059
 C   -1.478571    2.026853   -1.172203
 O   -1.136750    0.968188   -1.686944
 C   -2.956906    2.725307    0.844268
 C   -2.534435    1.671457    1.878978
 C   -1.106532    1.243292    1.678799
 O   -0.766581    0.118199    1.344359
 O   -0.251876    2.239276    1.851935
 N   -0.627270    3.072842   -1.085843
 C    0.660159    3.054827   -1.743092
 C    1.628861    2.033090   -1.138924
 O    1.692945    1.773313    0.063802
 C    1.272017    4.469937   -1.715839
 C    1.573478    5.070356   -0.322007
 C    3.003103    4.777280    0.146661
 C    1.326654    6.582278   -0.349768
 N    2.522252    1.536088   -2.016435
 C    3.564456    0.596825   -1.644041
 C    2.955838   -0.756266   -1.239323
 O    1.783948   -1.033052   -1.455689
 C    4.554285    1.154801   -0.584471
 O    4.271238    0.807846    0.744108
 N    3.814153   -1.635663   -0.673398
 C    3.305563   -2.879838   -0.130496
 C    2.254658   -2.622673    0.956071
 O    1.221545   -3.298712    0.997813
 C    4.426321   -3.761348    0.434942
 C    5.434362   -4.337788   -0.579580
 C    6.419429   -3.303743   -1.137698
 C    4.743056   -5.100200   -1.712052
 N    2.539388   -1.667624    1.859998
 C    1.637228   -1.379795    2.947650
 C    1.613314    0.093626    3.266479
 O    0.719086    0.367628    4.217564
 O    2.316899    0.933979    2.755026
 H   -0.463224   -0.962472   -0.198890
 H   -0.749392   -1.845828   -1.567261
 H    0.224927   -2.469791   -0.317576
 H   -1.798438   -2.285081    1.134165
 H   -1.789469   -3.594218   -0.076529
 H   -4.096608   -1.757019    1.045702
 H   -5.226855   -1.027676   -1.578023
 H   -6.436003   -0.947322    1.237554
 H   -7.232525   -0.356699   -0.193479
 H   -8.134275   -2.470425    0.308515
 H   -6.966600   -4.578844    0.540453
 H   -6.248693   -3.429957    1.674846
 H   -5.407735   -3.845019    0.164003
 H   -6.273430   -2.961921   -2.076199
 H   -7.831008   -3.727083   -1.766894
 H   -7.762328   -1.997106   -2.134740
 H   -3.118231    0.348953   -1.443226
 H   -3.345082    3.065111   -1.231535
 H   -2.338481    3.620091    0.965991
 H   -3.988131    3.009855    1.054240
 H   -3.174964    0.790303    1.822327
 H   -2.638793    2.109191    2.876799
 H    0.602616    2.016988    1.401478
 H   -0.925575    3.930779   -0.647327
 H    0.495486    2.773235   -2.790661
 H    2.186327    4.461862   -2.320396
 H    0.562025    5.112670   -2.251103
 H    0.889259    4.627784    0.416304
 H    3.182400    3.707689    0.277751
 H    3.733386    5.171903   -0.570378
 H    3.193536    5.256842    1.111809
 H    1.539659    7.032494    0.624545
 H    0.287823    6.816719   -0.608996
 H    1.973534    7.067886   -1.090056
 H    2.311835    1.624333   -2.999133
 H    4.139308    0.422265   -2.560173
 H    4.614403    2.241352   -0.726004
 H    5.550816    0.752173   -0.793449
 H    3.405141    1.175123    0.994289
 H    4.703366   -1.301808   -0.332312
 H    2.773088   -3.414889   -0.920149
 H    3.932345   -4.598371    0.942316
 H    4.962905   -3.202453    1.214439
 H    6.024800   -5.061654   -0.003292
 H    6.878774   -2.710480   -0.337191
 H    5.932044   -2.622731   -1.843998
 H    7.229144   -3.804926   -1.677243
 H    4.206777   -4.419107   -2.383980
 H    5.478310   -5.639057   -2.317441
 H    4.025623   -5.833079   -1.326235
 H    3.311300   -1.027096    1.693772
 H    0.629236   -1.698418    2.674158
 H    1.914192   -1.927323    3.857139
 H    0.753589    1.326019    4.374960
