42 
5c7a_ligand_xtb.xyz
 C    4.557006    1.053638   -1.308443
 C    3.952352    0.025364   -0.364318
 C    2.869359   -0.787627   -1.087223
 N    1.948119   -1.516691   -0.140569
 C    0.501734   -1.132913   -0.243392
 C    0.125562    0.354330   -0.147702
 C   -2.967073    2.176450    0.324725
 C   -3.428869    0.770567    0.121805
 C   -4.722630    0.292474    0.159149
 C   -4.945081   -1.055916   -0.073844
 C   -3.880446   -1.898955   -0.349220
 C   -2.574778   -1.430143   -0.384307
 C   -2.348915   -0.082861   -0.132661
 O    0.997940    1.257742   -0.145894
 N   -1.151206    0.670510   -0.108173
 C   -1.480189    2.105376   -0.012459
 C    2.511197   -1.575576    1.240395
 C    2.839333   -0.202734    1.830988
 N    3.276002    0.711893    0.758977
 H    4.981305    0.565587   -2.181133
 H    5.361733    1.597271   -0.820766
 H    3.808370    1.766434   -1.645410
 H    4.746365   -0.620966    0.024801
 H    2.272309   -0.107681   -1.699069
 H    3.349646   -1.504970   -1.754249
 H    1.940341   -2.495837   -0.444434
 H   -0.046951   -1.675778    0.531630
 H    0.149893   -1.477473   -1.221545
 H   -3.501461    2.870231   -0.322510
 H   -3.136120    2.491932    1.355759
 H   -5.542815    0.963247    0.358032
 H   -5.948652   -1.448469   -0.053641
 H   -4.063223   -2.942636   -0.548507
 H   -1.800677   -2.133844   -0.635203
 H   -1.254880    2.573814   -0.973592
 H   -0.843098    2.568193    0.742543
 H    3.417986   -2.183448    1.188123
 H    1.810088   -2.095005    1.897246
 H    3.621277   -0.334055    2.583388
 H    1.970169    0.235939    2.326743
 H    2.321547    1.114800    0.323756
 H    3.841548    1.481945    1.122588
