56 
5c8k_ligand_xtb.xyz
 C   -4.214583   -1.634978    0.164961
 C   -4.181327   -0.643674   -1.003040
 C   -3.654372    3.251414   -0.010686
 C   -1.782640   -0.890597   -1.212027
 C   -1.734027   -1.878975   -0.044180
 C   -2.735846    1.263571   -0.571826
 C   -2.410547    3.802621    0.201577
 C   -1.312040    2.939181    0.035875
 C   -3.065835   -2.641312    0.015557
 C   -2.982939   -3.340649    2.323843
 O   -3.080364   -3.692752    0.964286
 N   -2.896542    0.011159   -1.058506
 N   -3.839021    1.994726   -0.385142
 N   -1.483076    1.680717   -0.352429
 N   -0.055967    3.408720    0.285704
 C    1.161043    2.751520    0.295435
 C    1.276150    1.367726    0.240092
 C    2.570897    0.882773    0.271811
 C    3.681075    1.760093    0.361955
 C    3.431073    3.124707    0.431110
 N    2.201561    3.592469    0.397878
 N    4.838340    1.021248    0.368118
 C    4.453522   -0.212522    0.288257
 N    3.096535   -0.380589    0.239027
 C    2.325160   -1.591426    0.081570
 C    2.238257   -1.998837   -1.398010
 C    3.478460   -2.860698   -1.608673
 C    3.559651   -3.690327   -0.324913
 C    2.970848   -2.799035    0.783856
 H   -5.168610   -2.162993    0.185176
 H   -4.103816   -1.076427    1.096195
 H   -4.944164    0.124681   -0.881314
 H   -4.343609   -1.174404   -1.947510
 H   -4.559495    3.830293    0.124675
 H   -1.915187   -1.439260   -2.151741
 H   -0.869189   -0.300354   -1.272327
 H   -1.580130   -1.320844    0.881529
 H   -0.912569   -2.586089   -0.171346
 H   -2.278780    4.828741    0.500500
 H   -3.196598   -3.179599   -0.932921
 H   -2.057830   -2.799124    2.546069
 H   -3.837868   -2.744554    2.657535
 H   -2.977612   -4.283846    2.867682
 H    0.033025    4.402622    0.449761
 H    0.400685    0.748568    0.177853
 H    4.224447    3.853066    0.514444
 H    5.137485   -1.038540    0.271332
 H    1.334313   -1.373606    0.490301
 H    2.203886   -1.130648   -2.055062
 H    1.336628   -2.591293   -1.557280
 H    4.358535   -2.224670   -1.712655
 H    3.404387   -3.484191   -2.497953
 H    4.580353   -3.997062   -0.102721
 H    2.956921   -4.592312   -0.433575
 H    2.219000   -3.342356    1.355063
 H    3.734019   -2.466384    1.486195
