56 
5c8k_ligand_dft.xyz
 C   -4.082770   -1.778765    0.242992
 C   -4.109307   -1.006304   -1.083702
 C   -3.827909    2.985342   -0.250715
 C   -1.688757   -1.088990   -1.248879
 C   -1.562283   -1.858025    0.070724
 C   -2.805312    1.038493   -0.766015
 C   -2.623367    3.593546    0.030832
 C   -1.483380    2.772779   -0.083684
 C   -2.839301   -2.672758    0.317463
 C   -2.823333   -2.797386    2.715814
 O   -2.766503   -3.472494    1.482973
 N   -2.875479   -0.248210   -1.244122
 N   -3.955916    1.714353   -0.642771
 N   -1.578940    1.505699   -0.479531
 N   -0.252636    3.281695    0.232059
 C    1.001830    2.664897    0.315240
 C    1.194103    1.288271    0.247775
 C    2.518334    0.884718    0.373676
 C    3.569359    1.796153    0.553675
 C    3.241944    3.149726    0.620561
 N    1.988387    3.567554    0.502899
 N    4.781468    1.128779    0.637748
 C    4.456455   -0.126512    0.515080
 N    3.104335   -0.356767    0.362316
 C    2.379778   -1.604947    0.128956
 C    2.050084   -1.771836   -1.361990
 C    3.371672   -2.266132   -1.964766
 C    3.990585   -3.176218   -0.875691
 C    3.226892   -2.847664    0.433913
 H   -4.984152   -2.392669    0.350183
 H   -4.079866   -1.044774    1.058303
 H   -4.950553   -0.316554   -1.122280
 H   -4.192458   -1.701688   -1.928765
 H   -4.756899    3.544261   -0.154840
 H   -1.791346   -1.796550   -2.082421
 H   -0.813176   -0.471389   -1.442918
 H   -1.397476   -1.133625    0.878297
 H   -0.701883   -2.537312    0.045520
 H   -2.562392    4.625744    0.355008
 H   -2.915398   -3.412116   -0.491645
 H   -2.070680   -2.000735    2.800059
 H   -3.813213   -2.361824    2.909318
 H   -2.619729   -3.546195    3.484609
 H   -0.198699    4.271542    0.426888
 H    0.365568    0.612668    0.103741
 H    4.005853    3.908581    0.770803
 H    5.164077   -0.944785    0.529677
 H    1.481259   -1.563555    0.752698
 H    1.679556   -0.848428   -1.816430
 H    1.268486   -2.535316   -1.462735
 H    4.025588   -1.409479   -2.160712
 H    3.227829   -2.785016   -2.915956
 H    5.065727   -2.998298   -0.775706
 H    3.871458   -4.233517   -1.128830
 H    2.538111   -3.660443    0.683360
 H    3.876003   -2.710625    1.303252
