56 
5c8k_ligand_ani.xyz
 C   -4.716123   -1.054968    0.003112
 C   -4.318664    0.293454   -0.587610
 C   -2.917541    3.979580    0.409401
 C   -1.988403   -0.469811   -0.827279
 C   -2.357030   -1.826726   -0.233550
 C   -2.470295    1.816606   -0.071099
 C   -1.574499    4.287922    0.434517
 C   -0.689062    3.217937    0.193919
 C   -3.815062   -2.156215   -0.558576
 C   -4.184472   -3.769685    1.181022
 O   -4.208383   -3.468497   -0.192343
 N   -2.904950    0.551713   -0.337409
 N   -3.396305    2.758904    0.156514
 N   -1.135202    1.992144   -0.036519
 N    0.664508    3.468870    0.192519
 C    1.751176    2.606089    0.079314
 C    1.662804    1.234633    0.305219
 C    2.858831    0.547607    0.173962
 C    4.063274    1.186623   -0.163673
 C    4.024299    2.570679   -0.351653
 N    2.897888    3.255164   -0.221989
 N    5.094519    0.269560   -0.238266
 C    4.529081   -0.871912    0.042831
 N    3.182187   -0.784916    0.315357
 C    2.224970   -1.866069    0.538816
 C    1.737692   -2.493489   -0.775572
 C    2.823186   -3.520087   -1.121950
 C    3.261022   -4.100503    0.241818
 C    2.844250   -3.048275    1.305846
 H   -5.764524   -1.281077   -0.221091
 H   -4.613647   -0.999184    1.094533
 H   -4.894150    1.107406   -0.149981
 H   -4.507727    0.302110   -1.673937
 H   -3.664618    4.749444    0.596208
 H   -2.032547   -0.517292   -1.927880
 H   -0.967312   -0.196017   -0.558582
 H   -2.207517   -1.789033    0.852704
 H   -1.702229   -2.612509   -0.629324
 H   -1.213244    5.289993    0.640153
 H   -3.925034   -2.158982   -1.650105
 H   -3.177325   -3.683246    1.614964
 H   -4.872138   -3.139320    1.763915
 H   -4.509813   -4.809342    1.275082
 H    0.949171    4.438128    0.160677
 H    0.721514    0.779884    0.584175
 H    4.925860    3.123861   -0.607023
 H    5.061400   -1.813594    0.083518
 H    1.408178   -1.410697    1.102695
 H    1.574580   -1.745503   -1.557837
 H    0.784484   -3.002345   -0.579986
 H    3.664817   -3.008173   -1.603460
 H    2.474569   -4.288321   -1.819163
 H    4.334569   -4.315870    0.269956
 H    2.747969   -5.047301    0.441214
 H    2.087872   -3.475340    1.972691
 H    3.668803   -2.710124    1.940278
