54 
5cal_ligand_ani.xyz
 C   -3.997032    0.500234   -0.453334
 C   -4.093720    1.824074   -0.883912
 C   -1.946256   -2.239686    0.788142
 C   -1.837269    2.149371   -0.506347
 C   -1.610553    0.841511   -0.084985
 C   -2.736112    0.028105   -0.050753
 C   -0.946139   -2.547611   -0.319779
 C   -1.268309   -1.748144    2.064819
 N   -4.950355   -0.492827   -0.334821
 C   -4.909580   -2.853390    0.408156
 C   -4.294963   -1.523137    0.123440
 N   -3.039370    2.623362   -0.901945
 N   -2.951019   -1.283509    0.326379
 N   -0.847362    3.126255   -0.545451
 C    0.464144    3.110283   -0.125432
 C    1.093145    4.336905    0.158984
 C    2.401678    4.264567    0.591655
 N    3.076498    3.120907    0.719988
 C    2.394980    2.020461    0.383738
 N    1.115539    1.954551   -0.020870
 N    3.077599    0.835436    0.502487
 C    2.796471   -0.266769   -0.409052
 C    3.349044   -1.610374    0.123351
 C    4.840190   -1.495443    0.469453
 C    2.565169   -2.046918    1.363766
 C    3.112605   -2.642025   -0.985381
 O    2.122261   -3.352491   -1.000129
 N    4.032782   -2.685705   -1.995098
 H   -5.048561    2.230727   -1.209600
 H   -2.487604   -3.157735    1.027253
 H   -0.619072    0.522087    0.198075
 H   -0.393968   -1.645281   -0.607070
 H   -0.214047   -3.292340    0.005068
 H   -1.457039   -2.927347   -1.209410
 H   -0.687940   -0.837669    1.877477
 H   -2.008487   -1.529161    2.838886
 H   -0.582683   -2.513218    2.446744
 H   -4.777610   -3.140159    1.458025
 H   -5.978129   -2.799759    0.191757
 H   -4.464662   -3.637489   -0.216270
 H   -1.238933    4.031789   -0.766025
 H    0.567930    5.281503    0.060559
 H    2.950272    5.169339    0.848970
 H    4.060170    1.023281    0.658575
 H    3.207205   -0.075754   -1.413546
 H    1.709869   -0.336016   -0.510501
 H    5.422277   -0.986408   -0.309235
 H    4.973715   -0.938684    1.402302
 H    5.272484   -2.488970    0.629621
 H    2.622616   -1.278128    2.139707
 H    1.512625   -2.206224    1.108993
 H    2.962069   -2.986196    1.759380
 H    3.913198   -3.401796   -2.694892
 H    4.941073   -2.261832   -1.907669
