55 
5can_ligand_ani.xyz
 C    4.616379   -1.271874   -0.185294
 C    3.672009   -2.294050   -0.191278
 C    5.361732    2.277842    0.146444
 C    1.947646   -0.792114    0.086487
 C    2.808283    0.316949    0.125322
 C    4.158044    0.046843   -0.012847
 C    4.618059    3.005519   -0.970073
 C    4.858017    2.678850    1.530885
 N    5.993668   -1.293560   -0.318284
 C    7.761022    0.438808   -0.319415
 C    6.351030   -0.042204   -0.227389
 N    2.370600   -2.057974   -0.047850
 N    5.296307    0.828976   -0.038468
 N    0.588099   -0.526627    0.188392
 C   -0.538829   -1.331022    0.192192
 C   -0.536996   -2.721137    0.348480
 C   -1.784787   -3.316265    0.337888
 N   -2.936073   -2.660048    0.191282
 C   -2.815385   -1.329585    0.066121
 N   -1.669959   -0.635450    0.058014
 N   -3.962191   -0.607173   -0.045770
 C   -5.257508   -1.247479   -0.274548
 C   -6.060222   -0.169680   -1.016141
 C   -5.402730    1.177224   -0.628191
 C   -3.923203    0.775757   -0.506221
 C   -5.638236    2.262117   -1.673890
 C   -6.020170    1.649504    0.699922
 O   -7.042473    2.312615    0.711188
 N   -5.380664    1.270358    1.843385
 H    3.985146   -3.326612   -0.311764
 H    6.419512    2.543824    0.079286
 H    2.414993    1.317967    0.263239
 H    5.017106    2.723965   -1.948350
 H    4.725388    4.088675   -0.847351
 H    3.550059    2.768433   -0.956183
 H    5.420472    2.161328    2.312936
 H    4.975000    3.758561    1.673324
 H    3.798384    2.434672    1.654380
 H    8.414313   -0.420604   -0.481961
 H    8.071405    0.945628    0.602093
 H    7.889663    1.139825   -1.152739
 H    0.337549    0.452047    0.153710
 H    0.382163   -3.278075    0.462839
 H   -1.872909   -4.396640    0.445831
 H   -5.129096   -2.162223   -0.858480
 H   -5.712747   -1.535138    0.680208
 H   -5.949595   -0.313854   -2.098290
 H   -7.128162   -0.185256   -0.785254
 H   -3.359435    1.404959    0.187595
 H   -3.422761    0.845110   -1.483294
 H   -6.706267    2.476809   -1.752951
 H   -5.269397    1.939099   -2.653919
 H   -5.122452    3.188856   -1.400820
 H   -5.847867    1.474457    2.713400
 H   -4.684105    0.539759    1.827370
