55 
5cap_ligand_xtb.xyz
 C    4.474896    0.598782   -0.223821
 C    4.613862    1.970494   -0.384867
 C    2.232740   -2.192010    0.358722
 C    2.341947    2.254110   -0.153471
 C    2.070157    0.903872    0.026934
 C    3.175650    0.071787   -0.019949
 C    2.204938   -2.597372    1.833338
 C    2.233449   -3.406572   -0.567692
 N    5.379211   -0.428859   -0.214931
 C    5.339195   -2.847450    0.038227
 C    4.690464   -1.514583   -0.022986
 N    3.564587    2.764955   -0.351151
 N    3.334720   -1.285370    0.096373
 N    1.362602    3.240342   -0.155353
 C    0.021076    3.152745   -0.001148
 C   -0.772936    4.315902   -0.103983
 C   -2.126568    4.154464    0.047887
 N   -2.693238    2.971878    0.290204
 C   -1.865358    1.948122    0.377912
 N   -0.545973    1.972082    0.245005
 O   -2.350123    0.728408    0.632235
 C   -3.760372    0.576717    0.606658
 C   -4.072903   -0.908298    0.623394
 C   -3.492797   -1.635517    1.819051
 C   -5.558957   -1.161063    0.448128
 S   -3.314369   -1.651250   -0.901224
 O   -3.617011   -0.795800   -2.016553
 O   -3.771467   -3.016288   -0.978229
 C   -1.501328   -1.738420   -0.722282
 H    5.573763    2.438977   -0.543844
 H    1.328697   -1.610283    0.145923
 H    1.061621    0.570391    0.192363
 H    1.327608   -3.207533    2.031075
 H    3.089539   -3.170116    2.100022
 H    2.164101   -1.712590    2.464814
 H    2.427799   -3.100494   -1.593009
 H    2.977968   -4.138025   -0.269416
 H    1.257377   -3.883907   -0.532908
 H    5.129949   -3.419944   -0.864167
 H    6.411909   -2.688953    0.104050
 H    5.007343   -3.416989    0.903075
 H    1.747977    4.160415   -0.326211
 H   -0.329301    5.277650   -0.299389
 H   -2.813223    4.987413   -0.020304
 H   -4.157170    1.030584   -0.307118
 H   -4.201636    1.087231    1.471686
 H   -2.467704   -1.320520    1.995206
 H   -4.077846   -1.426291    2.713271
 H   -3.518340   -2.706525    1.629658
 H   -6.127088   -0.746019    1.278647
 H   -5.901479   -0.709312   -0.479959
 H   -5.735168   -2.232207    0.389582
 H   -1.132240   -2.106245   -1.672085
 H   -1.122786   -0.748208   -0.513507
 H   -1.279254   -2.438504    0.071152
