55 
5caq_ligand_ani.xyz
 C   -4.743288   -1.265578    0.138332
 C   -3.808602   -2.296600    0.156643
 C   -5.439226    2.302780   -0.085966
 C   -2.061784   -0.806049   -0.026216
 C   -2.910373    0.312708   -0.060371
 C   -4.266411    0.052739    0.023063
 C   -4.740065    2.964047    1.098898
 C   -4.868387    2.766584   -1.423751
 N   -6.125179   -1.276943    0.212613
 C   -7.875379    0.473094    0.186232
 C   -6.467101   -0.019763    0.143975
 N   -2.500468   -2.069847    0.070626
 N   -5.397336    0.845671    0.026692
 N   -0.698590   -0.551570   -0.096553
 C    0.423974   -1.362329   -0.072675
 C    0.410240   -2.760422   -0.114339
 C    1.654704   -3.361398   -0.086977
 N    2.811872   -2.705121   -0.024237
 C    2.706100   -1.366724    0.011799
 N    1.561877   -0.671203   -0.020433
 N    3.861432   -0.643027    0.072320
 C    5.160196   -1.284739    0.238943
 C    6.172540   -0.645192   -0.709644
 C    6.220963    0.866079   -0.506519
 C    4.811252    1.430787   -0.708319
 C    3.831150    0.793818    0.261903
 F    4.809759    2.811755   -0.517182
 O    6.699278    1.098305    0.800880
 C    7.305795    2.360557    0.999166
 H   -4.135390   -3.328437    0.241208
 H   -6.496150    2.578459   -0.053871
 H   -2.503801    1.313911   -0.149909
 H   -3.674978    2.714327    1.121760
 H   -5.186668    2.639033    2.042620
 H   -4.830619    4.053186    1.026465
 H   -3.807678    2.512912   -1.513009
 H   -4.964598    3.853880   -1.514638
 H   -5.401795    2.298688   -2.255734
 H   -8.037555    1.145055    1.037455
 H   -8.543922   -0.384163    0.285816
 H   -8.136141    1.016244   -0.729979
 H   -0.444961    0.426989   -0.103553
 H   -0.516313   -3.314371   -0.161175
 H    1.737396   -4.446951   -0.115726
 H    5.040285   -2.348158    0.039219
 H    5.500777   -1.164386    1.276006
 H    5.891626   -0.865330   -1.746872
 H    7.168611   -1.065838   -0.537181
 H    6.897984    1.335758   -1.237247
 H    4.493886    1.244363   -1.741600
 H    4.126729    1.063854    1.284709
 H    2.820839    1.158541    0.081159
 H    7.693988    2.358450    2.020343
 H    6.589979    3.178661    0.878055
 H    8.143380    2.510974    0.301013
