59 
5cau_ligand_xtb.xyz
 C    4.378755    2.312247    0.996066
 C    3.429652   -1.785794   -0.228473
 C    2.389817   -2.698040   -0.148221
 C    0.851973   -0.997981    0.014035
 C    1.815678    0.016720   -0.072264
 C    3.126056   -0.399282   -0.198564
 C    4.622852    1.648751   -0.366907
 C    3.839088    2.368191   -1.463890
 C    5.295607   -0.770401   -0.353647
 C    7.563078   -1.783052   -0.405060
 C    6.768216   -0.483937   -0.422707
 N    4.786089   -1.958151   -0.328603
 N    1.140656   -2.301548   -0.034264
 N    4.343817    0.237326   -0.298193
 F    3.085076    2.427393    1.317680
 F    4.965362    1.630235    1.989625
 F    4.887973    3.552277    1.023069
 N   -0.461569   -0.620767    0.152309
 C   -1.602755   -1.369542    0.300625
 C   -1.658720   -2.765997    0.305129
 C   -2.919480   -3.308055    0.461311
 N   -4.018760   -2.585510    0.600997
 C   -3.862615   -1.257701    0.589334
 N   -2.697129   -0.622762    0.435768
 N   -4.964490   -0.495659    0.798901
 C   -6.286266   -1.072502    0.719418
 C   -6.913380   -0.806549   -0.652959
 C   -6.927380    0.701188   -0.937983
 C   -5.472438    1.198548   -0.843123
 C   -4.927766    0.924175    0.560268
 F   -5.381619    2.545303   -1.139053
 O   -7.780687    1.301593    0.012197
 C   -8.277023    2.572354   -0.338504
 O    7.075104    0.314698   -1.555624
 H    2.559153   -3.764300   -0.171346
 H    1.518677    1.050391   -0.007798
 H    5.694675    1.760938   -0.569304
 H    4.150786    3.408700   -1.508293
 H    4.048783    1.898310   -2.420985
 H    2.769674    2.329187   -1.280339
 H    7.263784   -2.413496   -1.238868
 H    7.364665   -2.322149    0.514979
 H    8.625260   -1.562742   -0.475601
 H    7.048191    0.131550    0.443391
 H   -0.641562    0.374074    0.197278
 H   -0.771865   -3.358868    0.192290
 H   -3.069872   -4.380103    0.472819
 H   -6.195345   -2.142674    0.900117
 H   -6.909832   -0.611422    1.489778
 H   -6.340979   -1.317793   -1.427756
 H   -7.937100   -1.178947   -0.663980
 H   -7.309220    0.898769   -1.953615
 H   -4.860156    0.685922   -1.595798
 H   -5.565988    1.427979    1.292599
 H   -3.900519    1.275876    0.649995
 H   -7.491011    3.331454   -0.363782
 H   -9.004172    2.830572    0.429336
 H   -8.774021    2.543411   -1.315563
 H    7.063538   -0.252380   -2.335707
