21 
5cc2_ligand_ani.xyz
 C    1.593581    1.780129   -0.000245
 C    2.757772    1.043425   -0.000689
 C    2.675074   -0.358677   -0.000235
 C    1.462404   -1.009207    0.000578
 C    0.273732   -0.253893    0.000719
 C   -2.030735   -0.284340    0.000271
 C   -3.301642   -1.108004   -0.000877
 N   -0.922582   -0.943554    0.001001
 C    0.340278    1.149643    0.000397
 C   -2.199734    1.190624    0.000719
 C   -0.893419    1.959095    0.000688
 O   -0.878521    3.175174    0.000927
Cl    4.145333   -1.288262   -0.000753
 O   -3.106038   -2.429190    0.002622
 O   -4.397490   -0.606967   -0.004572
 H    1.611368    2.866121   -0.000410
 H    3.729651    1.526371   -0.001401
 H    1.382266   -2.090896    0.000971
 H   -2.801244    1.505100    0.868631
 H   -2.801888    1.505517   -0.866565
 H   -2.140212   -2.571778    0.004810
