35 
5ceh_ligand_dft.xyz
 C   -0.251620    1.217356    0.043581
 C   -0.454453   -0.131211    0.000499
 C    1.888438   -0.573423   -0.042519
 C    3.121051   -1.208547   -0.080127
 C    4.045168   -0.125933   -0.080909
 C    1.112122    1.765444    0.002993
 C   -1.513924    3.111258   -1.067069
 C   -1.289923    3.036591    1.460354
 C   -1.395461    2.209855    0.169827
 N    0.606862   -1.016153   -0.028507
 N    3.457475    1.048332   -0.048136
 N    2.125069    0.762966   -0.024915
 O    1.418266    2.934904   -0.003836
 C    3.332375   -2.606734   -0.109505
 N    3.454764   -3.761179   -0.132816
 C   -1.776847   -0.809869   -0.009188
 C   -2.692704   -0.571037   -1.037137
 C   -3.910672   -1.240315   -1.055919
 C   -4.221567   -2.154785   -0.052364
 C   -3.310971   -2.400252    0.971100
 C   -2.090240   -1.733161    0.992195
 H    5.124049   -0.192339   -0.103780
 H   -2.388202    3.764208   -0.971581
 H   -0.625696    3.737969   -1.177741
 H   -1.632306    2.517675   -1.980794
 H   -0.407266    3.679639    1.447035
 H   -2.177181    3.670328    1.565085
 H   -1.234667    2.384302    2.338423
 H   -2.318235    1.627152    0.243100
 H    0.429139   -2.005145   -0.131772
 H   -2.443020    0.137109   -1.821556
 H   -4.616374   -1.050681   -1.858488
 H   -5.173506   -2.676262   -0.068757
 H   -3.551146   -3.108711    1.757551
 H   -1.385543   -1.913671    1.799693
