60 
5cf4_ligand_xtb.xyz
 C   -0.247225   -2.963158    0.455929
 C   -0.197039   -2.194220   -0.862263
 C   -3.011529   -1.158208   -0.752939
 C   -3.941101   -0.958495    1.591116
 C   -5.256383   -1.747889   -0.254746
 C   -2.726296   -0.569458    2.372723
 C   -3.879926    0.385427    2.261462
 C   -6.024106   -1.097764   -1.363725
 C    1.397131    4.461649    0.095400
 C    4.596336   -0.798447    0.777119
 C   -0.397417    1.401851   -0.337248
 C    0.333965    0.206574   -0.547351
 N    1.661892    0.054103   -0.612807
 C    2.402075    1.144239   -0.487568
 C    1.798665    2.411022   -0.264204
 C    0.404508    2.542236   -0.192667
 C   -1.763830    1.046824   -0.325048
 C   -1.825090   -0.316878   -0.509833
 N   -0.552621   -0.812312   -0.675927
 N    2.384874    3.637276   -0.075607
 N    0.168869    3.869169    0.037759
 N    3.747992    1.060981   -0.617183
 C   -1.113254    4.492682    0.182874
 O   -3.126724   -1.791564   -1.790429
 N   -4.023161   -1.139181    0.169038
 C   -6.536686   -1.027103    0.041049
 C    4.432025   -0.204335   -0.627126
 C    5.345576   -2.123442    0.733894
 O    6.669507   -1.887868    0.307292
 C    7.426889   -3.061604    0.193613
 H    0.423720   -2.506912    1.180860
 H   -1.257129   -2.957336    0.861526
 H    0.057075   -3.993981    0.297028
 H   -0.885867   -2.636549   -1.586465
 H    0.818014   -2.201776   -1.263983
 H   -4.583369   -1.687929    2.077677
 H   -5.254617   -2.833818   -0.210745
 H   -1.814185   -0.321940    1.858572
 H   -2.570675   -1.077652    3.313243
 H   -4.505058    0.558626    3.124167
 H   -3.742207    1.253167    1.637960
 H   -6.522838   -1.735431   -2.075711
 H   -5.604801   -0.204026   -1.797647
 H    1.511395    5.514100    0.269459
 H    3.609491   -0.956474    1.213312
 H    5.153097   -0.100793    1.404887
 H   -2.601977    1.709448   -0.232426
 H    4.255458    1.883710   -0.330517
 H   -1.657913    4.047517    1.019128
 H   -0.977490    5.556680    0.371386
 H   -1.703519    4.362891   -0.727495
 H   -6.469425   -0.081457    0.556332
 H   -7.401164   -1.613907    0.311436
 H    3.836363   -0.885615   -1.238501
 H    5.415368   -0.071273   -1.081034
 H    4.845559   -2.818275    0.040565
 H    5.353686   -2.589031    1.733015
 H    7.501272   -3.584291    1.156270
 H    6.990177   -3.748334   -0.543120
 H    8.420640   -2.763160   -0.133753
