55 
5cf6_ligand_ani.xyz
 C   -2.405675    0.206538   -0.463464
 C    4.653435    2.103600    0.925065
 C    1.652669   -4.359136   -0.836555
 C    0.047807    3.112219   -0.723756
 C   -0.512510    4.496395   -0.429100
 C   -3.086284   -1.684739    0.978566
 C    3.920223   -3.339156   -0.391341
 C   -2.454029   -1.349512    2.300160
 C    1.187656    0.149240    0.009281
 C    1.027038   -1.231960   -0.274029
 N   -0.038591    0.746429    0.010336
 N    2.336575    0.815062    0.211619
 C   -0.990088   -0.213189   -0.282245
 C    3.446454   -1.312223   -0.051324
 C    2.232218   -1.954495   -0.300529
 N    4.497177   -2.205942   -0.109989
 C   -0.365004   -1.426395   -0.451884
 C    3.462421    0.093514    0.213929
 N    2.557088   -3.266820   -0.522041
 C   -0.255311    2.124204    0.408956
 N    4.625456    0.736185    0.446760
 N   -3.369400   -0.631928    0.043493
 O   -2.725093    1.252865   -1.016494
 O    0.119446    5.051299    0.698550
 O    1.445273    3.301845   -0.868593
 C   -4.738070   -0.231271   -0.159677
 C   -3.889059   -1.796010    2.239604
 C   -5.296801   -0.329044   -1.543739
 C   -5.742680   -1.294204   -0.480871
 H    4.041847    2.736546    0.274052
 H    5.684490    2.459310    0.889704
 H    4.272724    2.204739    1.950365
 H    1.102908   -4.157193   -1.761061
 H    0.939488   -4.524207   -0.022818
 H    2.245620   -5.264989   -0.972852
 H   -0.394921    2.718832   -1.649371
 H   -1.585539    4.438709   -0.207736
 H   -0.387586    5.129598   -1.320819
 H   -2.792904   -2.627053    0.518205
 H    4.434094   -4.285751   -0.521291
 H   -2.272510   -0.297817    2.509283
 H   -1.708448   -2.029453    2.702340
 H   -0.845053   -2.367094   -0.706314
 H    0.397292    2.358084    1.256877
 H   -1.294951    2.212477    0.728647
 H    5.437377    0.144830    0.557763
 H    1.065297    4.903578    0.545837
 H    1.908652    2.472942   -0.637609
 H   -5.069850    0.598130    0.464712
 H   -4.131246   -2.792745    2.599678
 H   -4.659589   -1.050226    2.415799
 H   -4.619038   -0.704999   -2.303149
 H   -5.982564    0.442328   -1.883572
 H   -6.746942   -1.186538   -0.076134
 H   -5.380259   -2.317275   -0.541766
