30 
5cgd_ligand_dft.xyz
 C   -2.029659    1.019779   -0.229549
 C   -3.288354    1.602047   -0.137823
 C   -4.421420    0.839543    0.103860
 C   -4.273316   -0.543520    0.248119
 C   -3.018596   -1.144398    0.154653
 C   -1.887404   -0.361144   -0.076736
 C   -0.554915   -1.018269   -0.163186
 C    0.638089   -0.315284   -0.025632
 C    1.823257   -1.039246   -0.134102
 N    1.822405   -2.359816   -0.350258
 C    0.627697   -2.936407   -0.447348
 N   -0.558163   -2.343956   -0.367688
 C   -5.435723   -1.352790    0.496659
 N   -6.373961   -2.002076    0.697907
Cl   -3.446567    3.326554   -0.337771
 C    5.502710    0.926169    0.234371
 C    5.540996   -0.440135    0.014836
 C    4.327869   -1.102828   -0.108753
 C    3.144720   -0.368577   -0.007491
 N    3.126986    0.952996    0.204633
 C    4.285024    1.591285    0.324218
 F    6.636793    1.619364    0.361954
 H   -1.173695    1.650997   -0.439450
 H   -5.398570    1.302717    0.174998
 H   -2.909996   -2.217521    0.257163
 H    0.684095    0.747106    0.175312
 H    0.620668   -4.010985   -0.612776
 H    6.491212   -0.958085   -0.055051
 H    4.279229   -2.171247   -0.281097
 H    4.260836    2.663931    0.496697
