30 
5cgd_ligand_ani.xyz
 C   -2.025319    0.910606   -0.484405
 C   -3.252716    1.538423   -0.309346
 C   -4.344709    0.853928    0.206692
 C   -4.188688   -0.494825    0.538943
 C   -2.967606   -1.143486    0.358926
 C   -1.879904   -0.438618   -0.151816
 C   -0.557547   -1.098578   -0.331635
 C    0.618183   -0.409012   -0.054218
 C    1.819281   -1.071068   -0.279648
 N    1.860845   -2.322737   -0.740697
 C    0.677462   -2.894990   -0.959576
 N   -0.529369   -2.362978   -0.766132
 C   -5.310797   -1.231565    1.065152
 N   -6.209823   -1.828159    1.485822
Cl   -3.423432    3.214858   -0.736344
 C    5.377354    0.991579    0.489644
 C    5.502197   -0.332976    0.112436
 C    4.334509   -1.034442   -0.147948
 C    3.109514   -0.378265   -0.014827
 N    3.008256    0.902359    0.357804
 C    4.125023    1.577621    0.601145
 F    6.470073    1.721660    0.752181
 H   -1.189180    1.466742   -0.897847
 H   -5.296448    1.355385    0.345560
 H   -2.867348   -2.193323    0.612854
 H    0.620182    0.596553    0.346212
 H    0.694425   -3.916234   -1.328552
 H    6.483887   -0.787696    0.027929
 H    4.356488   -2.075329   -0.451787
 H    4.038901    2.620984    0.899161
