60 
5cgj_ligand_ani.xyz
 C    1.092944   -1.413943   -1.143093
 C    2.313783   -0.830351   -0.773855
 C    2.450185    0.536965   -0.671586
 C   -1.049066    1.664829   -1.409216
 C   -0.941062    3.022472   -1.222545
 C    0.290959    3.593356   -0.862947
 C    1.391473    2.794464   -0.691682
 C    4.134780    0.866407    1.065355
 C    5.578252    0.319863    0.973838
 C    6.060929    0.858913   -0.373494
 C    4.801971    0.804732   -1.240481
 C    5.570862   -1.198445    1.008690
 O    5.761843   -1.933584    0.068273
 C   -3.020207   -0.665002    0.229679
 C   -4.233287   -0.132617   -0.245863
 C   -3.271909    0.486836    2.331322
 C   -6.416836    1.056307    0.279804
 C   -2.802653    0.860908    3.714607
 C   -1.021851   -0.527506    1.855666
 C    0.006871   -0.613659   -1.412346
 C    1.317810    1.388832   -0.880801
 C    0.079274    0.812198   -1.264337
 N    3.701343    1.115069   -0.318542
 O    5.292178   -1.674248    2.238574
 N   -1.218775   -1.195142   -1.817666
 S   -2.226142   -1.979719   -0.719793
 O   -3.224903   -2.647019   -1.531701
 O   -1.371090   -2.744300    0.168976
 C   -5.036064    0.586066    0.658972
 C   -4.545538    0.868112    1.927473
 C   -2.451149   -0.242066    1.447789
 C   -4.720906   -0.298458   -1.667652
 H    0.971011   -2.490496   -1.202560
 H    3.167512   -1.472532   -0.560536
 H   -2.018311    1.240441   -1.660587
 H   -1.811115    3.660620   -1.355272
 H    0.369115    4.667505   -0.715818
 H    2.347440    3.215916   -0.400138
 H    4.116442    1.802716    1.640419
 H    3.462447    0.163576    1.571233
 H    6.186867    0.652583    1.820540
 H    6.885105    0.274668   -0.792108
 H    6.390136    1.898534   -0.262084
 H    4.826983    1.528703   -2.064746
 H    4.689274   -0.194128   -1.682290
 H   -6.379287    1.851426   -0.474756
 H   -7.019202    0.241511   -0.137430
 H   -6.946018    1.454640    1.149861
 H   -2.427956   -0.011727    4.261264
 H   -3.617546    1.299125    4.297312
 H   -1.989606    1.596083    3.680381
 H   -0.921224   -1.533446    2.273638
 H   -0.682123    0.187816    2.608439
 H   -0.332564   -0.443393    1.010651
 H    5.287191   -2.642916    2.158554
 H   -1.726870   -0.701225   -2.540872
 H   -5.176254    1.418332    2.625467
 H   -5.287128   -1.227216   -1.784074
 H   -5.367489    0.533310   -1.961433
 H   -3.898143   -0.336477   -2.385666
