35 
5cj6_ligand_ani.xyz
 C    0.558144   -1.386393    0.385275
 C    0.272165   -0.036534    0.155452
 C    1.868948   -1.832984    0.396260
 C    1.005820    2.353096   -0.234539
 C    1.320974    0.892518   -0.039743
 C    2.621673    0.405169   -0.043948
 C    2.921037   -0.947129    0.176702
 N   -1.034428    0.474334    0.166693
 C   -2.183031   -0.407139    0.131321
 C   -3.501772    0.331722    0.434507
 O   -3.599195    0.655936    1.811596
 C   -3.699563    1.593772   -0.410616
 C   -4.535903   -0.738338    0.089172
 C   -3.980298   -1.463370   -1.158398
 C   -2.455224   -1.178194   -1.171789
Cl    3.948517    1.486841   -0.339479
 C    4.272349   -1.431152    0.184368
 N    5.349054   -1.856899    0.198155
 H   -0.239066   -2.104171    0.547256
 H    2.087126   -2.880565    0.576702
 H    0.612486    2.556753   -1.240656
 H    0.255091    2.690147    0.489993
 H    1.889269    2.978464   -0.104639
 H   -1.128127    1.249906   -0.476539
 H   -2.068818   -1.131797    0.950745
 H   -2.771691    1.108057    2.031404
 H   -4.676316    2.027732   -0.175133
 H   -2.940401    2.350585   -0.180276
 H   -3.665797    1.385892   -1.485810
 H   -4.603020   -1.420215    0.944502
 H   -5.530979   -0.307917   -0.063809
 H   -4.445845   -1.086561   -2.075201
 H   -4.191375   -2.535941   -1.113162
 H   -1.849952   -2.088488   -1.224341
 H   -2.178106   -0.567967   -2.040742
