41 
5clm_ligand_ani.xyz
 C   -4.079533   -0.492696   -1.438455
 C   -3.519633   -0.354152   -0.014592
 C   -6.275717   -0.739735   -0.725894
 C   -5.893220   -0.381355    0.693675
 C   -3.087113   -1.734114    0.504689
 C   -2.695324    2.026380   -0.087592
 C   -0.031176    1.233286   -0.029818
 C    1.872389   -0.373666    0.018558
 C    3.380649   -0.364108    0.025912
 C    5.317383    0.855419    0.011947
 C    6.082659   -0.306924    0.037144
Cl    7.813880   -0.196291    0.042531
 N    3.988353    0.826203    0.006575
 C    5.454574   -1.545054    0.057679
 C    4.066292   -1.572779    0.051814
 O    1.256552   -1.429448    0.030333
 N    1.329625    0.875061   -0.002397
 C   -1.042678    0.276442    0.029182
 C   -0.351675    2.590170   -0.112467
 C   -1.684921    2.979402   -0.138970
 C   -2.381897    0.666325   -0.004427
 N   -4.618373    0.159368    0.818590
 N   -6.748119   -0.530503    1.627692
 O   -5.210523   -1.327148   -1.438672
 H   -3.334956   -0.952259   -2.098285
 H   -4.329047    0.504740   -1.837052
 H   -7.093607   -1.459870   -0.689452
 H   -6.631257    0.165745   -1.245077
 H   -2.367910   -2.192585   -0.183109
 H   -2.609135   -1.635456    1.485808
 H   -3.948726   -2.400038    0.590559
 H   -3.738155    2.329648   -0.101231
 H    5.800049    1.830945   -0.004111
 H    6.039478   -2.459398    0.077614
 H    3.504624   -2.500737    0.066761
 H    2.009058    1.625714   -0.014536
 H   -0.745301   -0.760678    0.110828
 H    0.437384    3.336837   -0.156390
 H   -1.935799    4.035140   -0.201513
 H   -4.346637    0.265905    1.791530
 H   -6.361020   -0.231892    2.527814
