53 
5cls_ligand_ani.xyz
 C   -2.410162    0.909515    1.808178
 C   -3.505040    0.241413    1.001174
 C   -4.400502    0.994503    0.238752
 C   -5.417679    0.385923   -0.478669
 C   -5.558125   -1.004983   -0.444982
 C   -4.666878   -1.768735    0.306202
 C   -3.648410   -1.141348    1.020250
 O   -6.587093   -1.515712   -1.172069
 C   -6.775047   -2.913444   -1.140533
 N   -1.065948    0.497476    1.433803
 C   -0.270021    0.933073    0.427636
 C    0.839214    0.123474    0.496915
 N    0.675360   -0.748110    1.523080
 N   -0.471022   -0.518230    2.078795
 C    1.977754    0.186908   -0.462965
 C   -0.443797    2.123665   -0.453307
 C    1.955989    1.542207   -1.192344
 C    0.538784    1.928999   -1.637233
 O   -1.774624    2.246447   -0.952046
 C   -0.173642    3.438577    0.286239
 O    3.202383    0.021388    0.268708
 C    4.265027   -0.355141   -0.483467
 O    4.231134   -0.526852   -1.686374
 N    5.365415   -0.498780    0.304191
 C    6.580391   -1.080277   -0.249771
 C    7.774442   -0.648870    0.592186
 C    6.486471   -2.601773   -0.373094
 H   -2.472720    1.993877    1.694587
 H   -2.504737    0.668368    2.870730
 H   -4.291640    2.077339    0.193933
 H   -6.118435    0.962986   -1.072712
 H   -4.754560   -2.849124    0.346882
 H   -2.949042   -1.741708    1.599195
 H   -5.904581   -3.445161   -1.547078
 H   -7.646543   -3.115057   -1.765016
 H   -6.967875   -3.270041   -0.120000
 H    1.896513   -0.630217   -1.189300
 H    2.631162    1.489013   -2.050397
 H    2.358315    2.295345   -0.505917
 H    0.554483    2.849045   -2.231114
 H    0.134841    1.141167   -2.289426
 H   -2.081546    1.362212   -1.200626
 H   -0.346702    4.276369   -0.394876
 H   -0.860699    3.538718    1.132462
 H    0.850872    3.493502    0.668210
 H    5.200643   -0.545490    1.299025
 H    6.664360   -0.663128   -1.258374
 H    8.714132   -1.019567    0.167257
 H    7.683450   -1.049364    1.609935
 H    7.826180    0.442358    0.651340
 H    7.399494   -3.006932   -0.824031
 H    5.638915   -2.877239   -1.007556
 H    6.352078   -3.068054    0.611040
