18 
5cp9_ligand_ani.xyz
 C    2.175092    1.160785    0.205094
 C    3.368422    0.437372   -0.128188
 C    2.997610   -0.859086   -0.246883
 O    1.665816   -0.995136   -0.017350
 C    1.174123    0.243978    0.261314
 C   -0.281616    0.326275    0.575699
 C   -1.174070   -0.377079   -0.460639
 C   -2.632976   -0.166167   -0.106369
 O   -3.323321   -0.985369    0.434395
 O   -3.131016    1.066813   -0.379264
 H    2.089039    2.226164    0.378300
 H    4.363860    0.839545   -0.255577
 H    3.527590   -1.772379   -0.475180
 H   -0.554137    1.383554    0.655259
 H   -0.468010   -0.120847    1.562253
 H   -0.976333   -1.450411   -0.459409
 H   -0.961289    0.003678   -1.467624
 H   -2.472064    1.603764   -0.840438
