40 
5cpr_ligand_ani.xyz
 C   -0.869362    1.742846    0.353289
 C   -0.482604    0.392785    0.256615
 C    0.857512    0.060057    0.020070
 C    1.199730   -1.338436    0.099930
 C    3.613683   -1.195962    0.814291
 N    5.236335   -2.779024    0.011296
 C    4.254646   -3.368196   -0.675907
 C   -1.399708   -0.716293    0.373245
 C   -5.071995   -0.978718    1.022969
 C   -5.741763   -0.496122   -0.284863
 C   -5.008268   -1.230087   -1.439722
 C    1.756815    1.106868   -0.295451
 C    2.932148   -2.941462   -0.663051
 C    4.901427   -1.718711    0.747211
 C    2.601478   -1.803279    0.071490
 C    1.360827    2.419769   -0.247347
 C    0.035935    2.748861    0.112846
 C   -4.012441   -2.186830   -0.758963
 C   -3.708954   -1.539080    0.603015
 N    0.291424   -2.282790    0.202806
 N   -1.002830   -1.976898    0.354541
 N   -2.731069   -0.460138    0.526869
Cl    2.513222    3.656946   -0.618204
Cl   -0.476545    4.396958    0.231915
 H   -1.879674    2.024481    0.642192
 H    3.410238   -0.330247    1.438598
 H    4.539310   -4.239428   -1.263694
 H   -5.664459   -1.781517    1.478413
 H   -4.961254   -0.190318    1.774515
 H   -5.650209    0.588748   -0.396875
 H   -6.813958   -0.717100   -0.275850
 H   -4.478186   -0.511462   -2.074715
 H   -5.698510   -1.771322   -2.094503
 H    2.774327    0.878989   -0.588807
 H    2.163992   -3.475097   -1.214967
 H    5.706197   -1.251312    1.310612
 H   -3.096941   -2.362000   -1.331872
 H   -4.481177   -3.162747   -0.577501
 H   -3.308218   -2.268677    1.308178
 H   -3.056637    0.396532    0.106613
