40 
5cpr_ligand_dft.xyz
 C   -0.921955    1.734038    0.277619
 C   -0.512171    0.387770    0.271984
 C    0.848760    0.076330    0.095230
 C    1.213418   -1.315215    0.149733
 C    3.644964   -1.218048    0.831819
 N    5.261619   -2.748028   -0.080440
 C    4.273591   -3.293896   -0.794835
 C   -1.415701   -0.732927    0.407103
 C   -5.088117   -1.081643    1.007975
 C   -5.688594   -0.510053   -0.299955
 C   -4.889144   -1.171920   -1.456454
 C    1.762062    1.121911   -0.153890
 C    2.954709   -2.858097   -0.757211
 C    4.932741   -1.732771    0.719302
 C    2.621846   -1.783104    0.067530
 C    1.344512    2.431803   -0.171019
 C   -0.013494    2.745260    0.067143
 C   -3.975960   -2.212060   -0.784393
 C   -3.712507   -1.629681    0.612191
 N    0.317302   -2.261625    0.272715
 N   -0.995996   -1.985247    0.373574
 N   -2.748917   -0.530564    0.589611
Cl    2.503787    3.682480   -0.486556
Cl   -0.561628    4.390943    0.089660
 H   -1.953428    2.011265    0.462333
 H    3.445131   -0.407638    1.526214
 H    4.553825   -4.127124   -1.435544
 H   -5.696991   -1.916102    1.369915
 H   -5.028579   -0.348926    1.818993
 H   -5.596396    0.581511   -0.335450
 H   -6.758230   -0.726847   -0.366577
 H   -4.283125   -0.422998   -1.978403
 H   -5.542582   -1.623378   -2.207696
 H    2.804035    0.899680   -0.349578
 H    2.189128   -3.345077   -1.350849
 H    5.741681   -1.307261    1.309379
 H   -3.050941   -2.410459   -1.329877
 H   -4.501743   -3.167147   -0.666724
 H   -3.331565   -2.380196    1.306718
 H   -3.118745    0.374568    0.346914
