40 
5cqj_ligand_ani.xyz
 C    4.961513   -2.904396    0.340083
 C    3.164119   -1.539676   -0.374907
 C    2.703912   -0.552919   -1.251658
 C    1.399262   -0.108301   -1.175489
 C    0.505289   -0.648790   -0.236824
 C    0.980129   -1.639953    0.625681
 C    2.295178   -2.081775    0.570584
 C   -0.891215   -0.156883   -0.158409
 C   -1.122306    1.171194   -0.341493
 C   -0.223350    2.256589    0.098359
 C   -0.171546    3.484882   -0.578729
Cl   -2.560614    1.698075   -1.191926
 C    0.584340    2.079401    1.232084
 C    1.431890    3.092876    1.662260
 C    1.490770    4.297513    0.970162
 C    0.685514    4.488375   -0.150062
 C   -1.993514   -1.132034    0.077585
 C   -1.936200   -2.430305   -0.441675
 C   -2.969866   -3.329863   -0.217614
 C   -4.072636   -2.950654    0.542776
 C   -4.136446   -1.662869    1.067711
 C   -3.112138   -0.755687    0.830177
 O    4.465557   -1.903083   -0.521532
 H    4.900946   -2.595256    1.392096
 H    4.416653   -3.849181    0.212687
 H    6.007160   -3.049307    0.064947
 H    3.401624   -0.146275   -1.977363
 H    1.049505    0.671586   -1.848702
 H    0.298739   -2.088802    1.345809
 H    2.624719   -2.852066    1.258487
 H   -0.792777    3.642744   -1.454915
 H    0.547977    1.134988    1.768755
 H    2.054646    2.939713    2.539290
 H    2.157904    5.088206    1.304391
 H    0.718927    5.429157   -0.692661
 H   -1.061173   -2.731923   -1.012195
 H   -2.910588   -4.333339   -0.630260
 H   -4.879673   -3.655212    0.724563
 H   -4.995142   -1.359530    1.661011
 H   -3.169653    0.251541    1.235441
