47 
5cqt_ligand_dft.xyz
 C    5.977024    9.005543   -2.055100
 C    6.169384    7.477521   -2.009995
 C    4.887157    6.738896   -2.398325
 C    3.759144    7.023679   -1.381487
 C    3.937544    8.388237   -0.688145
 C    4.534820    9.396851   -1.680824
 N    4.407308   10.813257   -1.296449
 S    5.317423   11.629728   -0.169924
 O    6.688595   11.721169   -0.640032
 O    4.538826   12.828880    0.108196
 C    5.334431   10.605802    1.285037
 C    6.487338    9.912445    1.579992
 C    6.570007    8.935682    2.610263
 C    5.426495    8.677472    3.320649
 C    4.246938    9.402539    3.023897
 C    4.136337   10.380116    2.040116
 C    2.851236   10.977783    1.933134
 C    1.816765   10.566949    2.755858
 C    1.969096    9.556475    3.737731
 C    3.209758    8.984513    3.860203
 C    3.779652    7.915069    4.738237
 O    3.247454    7.249007    5.597885
 N    5.131782    7.805953    4.359135
 C    6.033845    6.820843    4.922330
 C    6.195129    5.597624    4.023651
 H    6.197084    9.397701   -3.053341
 H    6.690045    9.482664   -1.380389
 H    6.461681    7.172273   -0.996447
 H    6.996448    7.191895   -2.667974
 H    5.068206    5.661376   -2.468932
 H    4.581759    7.064611   -3.401248
 H    3.736311    6.239532   -0.616932
 H    2.788852    6.989131   -1.890472
 H    4.600463    8.283873    0.177144
 H    2.977710    8.751637   -0.303142
 H    3.927134    9.338322   -2.593316
 H    3.448486   11.136051   -1.233828
 H    7.369360   10.117984    0.982513
 H    7.506584    8.421874    2.797300
 H    2.687745   11.780891    1.223023
 H    0.849081   11.047591    2.650214
 H    1.136877    9.257222    4.366413
 H    5.611720    6.535548    5.888768
 H    6.999334    7.304683    5.107354
 H    5.231748    5.097334    3.889283
 H    6.578178    5.879083    3.037180
 H    6.894707    4.885993    4.472697
