54 
5csd_ligand_dft.xyz
 C    0.888972    1.733821   -0.775562
 C   -0.322910    2.178307    0.023296
 C   -1.580956    2.191211   -0.858650
 C   -2.817817    2.773540   -0.157508
 C   -3.211270    2.049210    1.105790
 C   -4.068336    1.030207    1.201039
 C   -4.806063    0.359516    0.063412
 C   -4.862041   -1.141800    0.241651
 C   -3.912539   -2.009508   -0.111935
 C   -2.590038   -1.655716   -0.748493
 C   -1.553260   -1.362598    0.309465
 C   -0.333692   -1.901384    0.422297
 C    0.322625   -2.897892   -0.512279
 C    1.423391   -3.669737    0.171689
 C    2.706753   -3.306437    0.224599
 C    3.320220   -2.071304   -0.375726
 C    3.470162   -0.936302    0.649024
 C    4.159093    0.297454    0.069674
 C    4.212450    1.467882    1.051137
 C    4.857827    2.712648    0.446684
 O    0.916711    0.430656   -1.117648
 O    1.761084    2.477612   -1.145944
 H   -0.111706    3.181087    0.402769
 H   -0.474079    1.510641    0.881023
 H   -1.802793    1.170206   -1.190255
 H   -1.374630    2.778689   -1.760996
 H   -3.649036    2.775305   -0.871155
 H   -2.621118    3.825370    0.084273
 H   -2.746238    2.403479    2.024884
 H   -4.267184    0.614793    2.188374
 H   -4.338353    0.614713   -0.893709
 H   -5.831907    0.748607    0.019637
 H   -5.748041   -1.530200    0.741111
 H   -4.061975   -3.062928    0.117228
 H   -2.711687   -0.771303   -1.387586
 H   -2.256916   -2.465482   -1.405119
 H   -1.873409   -0.645412    1.064257
 H    0.283009   -1.587872    1.264471
 H    0.727882   -2.358251   -1.378176
 H   -0.427111   -3.591672   -0.910048
 H    1.115445   -4.570745    0.699793
 H    3.386437   -3.937869    0.796970
 H    2.724115   -1.695984   -1.214909
 H    4.310727   -2.319007   -0.779478
 H    4.023392   -1.298427    1.527003
 H    2.470730   -0.655503    1.007617
 H    3.626472    0.618776   -0.833753
 H    5.180701    0.033542   -0.240405
 H    4.754187    1.164241    1.957879
 H    3.189521    1.713039    1.368191
 H    5.882737    2.503587    0.117367
 H    4.282659    3.052599   -0.420370
 H    4.899770    3.533393    1.170981
 H    0.200616   -0.064275   -0.676755
