19 
5csp_ligand_ani.xyz
 C    2.070467    0.984338   -0.031942
 C    0.661002   -0.933481    0.078421
 C   -1.848189   -0.757208    0.096038
 C   -0.484044   -0.132752    0.009395
 C   -0.331491    1.255967   -0.081883
 C    0.953182    1.803855   -0.106537
 O   -2.769715   -0.301314    0.713194
 O   -1.980830   -1.935479   -0.563486
 O   -1.438952    2.028674   -0.169198
 C    1.946851   -0.403990    0.067148
 C    3.159640   -1.298291    0.145003
 H    3.061724    1.432052   -0.049918
 H    0.534827   -2.011088    0.191745
 H    1.073460    2.883867   -0.183984
 H   -1.193439   -2.104912   -1.099547
 H   -1.168030    2.952083   -0.251190
 H    3.798314   -1.181541   -0.738612
 H    3.772652   -1.064326    1.023334
 H    2.871950   -2.351817    0.210232
