55 
5ctb_ligand_ani.xyz
 N   44.602321  -46.742724   18.512222
 C   43.485469  -45.937830   16.467533
 N   40.409812  -47.611929   13.491646
 C   41.500941  -45.947234   14.555839
 C   42.029795  -47.170322   15.021892
 C   44.579713  -45.815791   17.487810
 C   43.043684  -46.346517   20.396976
 C   42.789301  -50.077814   23.833071
 C   43.639744  -49.462691   22.924700
 C   41.289005  -48.156750   14.305421
 C   42.013844  -47.908271   24.534877
 C   42.906022  -45.802416   23.502564
 C   41.955509  -49.287795   24.657781
 C   41.390066  -43.410068   14.473517
 C   41.957995  -44.690395   15.005048
 C   42.964065  -44.725862   15.950926
 C   43.044403  -47.161367   16.000811
 N   40.543991  -46.278207   13.647250
 O   45.417918  -44.928056   17.414031
 C   45.752832  -46.686352   19.410924
 C   45.477453  -45.786331   20.614899
 C   44.226369  -46.238518   21.374319
 C   43.394767  -47.220304   19.188521
 C   43.939122  -45.275870   22.529555
 O   42.192105  -45.064601   24.153721
 C   42.865235  -47.281117   23.621925
 C   43.676975  -48.072042   22.808120
 O   44.548859  -47.537124   21.912462
 C   42.762004  -51.580567   23.935546
 C   41.020617  -49.925794   25.654355
 H   42.781612  -45.338066   20.054410
 H   42.162929  -46.751896   20.906476
 H   44.286100  -50.059434   22.285848
 H   41.376072  -49.235038   14.363677
 H   41.386260  -47.269405   25.154390
 H   40.316169  -43.338525   14.681770
 H   41.882815  -42.543594   14.925380
 H   41.516292  -43.345505   13.386473
 H   43.389387  -43.797668   16.325185
 H   43.482902  -48.080470   16.372615
 H   39.954113  -45.657755   13.111616
 H   45.965970  -47.705075   19.750371
 H   46.604041  -46.315931   18.838438
 H   46.337743  -45.793449   21.294254
 H   45.331518  -44.756190   20.267415
 H   42.560011  -47.238561   18.486588
 H   43.582974  -48.244990   19.528212
 H   44.870642  -45.121192   23.091062
 H   43.615426  -44.301788   22.153106
 H   43.029915  -51.920173   24.942537
 H   41.765863  -51.980975   23.715211
 H   43.466960  -52.030936   23.231841
 H   41.566165  -50.527376   26.390120
 H   40.453257  -49.167054   26.200590
 H   40.300926  -50.590296   25.163153
