55 
5ctb_ligand_xtb.xyz
 N   44.609168  -46.593829   18.539008
 C   43.512897  -45.987500   16.453642
 N   40.306630  -47.578680   13.637311
 C   41.460514  -45.940834   14.627270
 C   41.964979  -47.177073   15.099491
 C   44.699232  -45.925932   17.360972
 C   43.062499  -46.209900   20.388394
 C   42.832777  -50.081995   23.846687
 C   43.669196  -49.458713   22.936753
 C   41.181538  -48.149633   14.423376
 C   41.886416  -47.951401   24.396640
 C   42.742867  -45.850807   23.380762
 C   41.915459  -49.317378   24.586317
 C   41.438580  -43.419485   14.511102
 C   41.979019  -44.709533   15.044478
 C   43.010247  -44.771046   15.954058
 C   43.009048  -47.198203   16.026066
 N   40.468655  -46.254490   13.754620
 O   45.713691  -45.339512   17.025989
 C   45.752567  -46.624060   19.425830
 C   45.507716  -45.767218   20.667257
 C   44.232607  -46.221617   21.387951
 C   43.392384  -47.059718   19.156844
 C   43.924763  -45.321429   22.585895
 O   41.924317  -45.122798   23.896879
 C   42.739852  -47.310936   23.495783
 C   43.633838  -48.081459   22.743013
 O   44.477613  -47.562646   21.821402
 C   42.903169  -51.564781   24.029721
 C   40.993075  -49.969312   25.569881
 H   42.872748  -45.180123   20.082059
 H   42.160685  -46.598713   20.865555
 H   44.371780  -50.036045   22.354993
 H   41.236375  -49.217303   14.494653
 H   41.204409  -47.329557   24.957983
 H   40.379655  -43.319228   14.750397
 H   41.972995  -42.576452   14.939871
 H   41.544801  -43.381786   13.427025
 H   43.470206  -43.857921   16.302184
 H   43.417653  -48.133557   16.377438
 H   39.889369  -45.631027   13.217899
 H   45.931523  -47.660027   19.729830
 H   46.612554  -46.249586   18.868441
 H   46.359313  -45.858049   21.342081
 H   45.399170  -44.721907   20.376559
 H   42.567442  -47.009054   18.446650
 H   43.532396  -48.101957   19.467215
 H   44.787458  -45.306920   23.259872
 H   43.726305  -44.299314   22.263673
 H   43.151087  -51.808812   25.062017
 H   41.940501  -52.023083   23.806183
 H   43.656018  -52.000615   23.378785
 H   41.559909  -50.481496   26.346715
 H   40.352961  -49.228374   26.040559
 H   40.363372  -50.709172   25.076971
