55 
5ctb_ligand_dft.xyz
 N   44.612241  -46.788900   18.501148
 C   43.453296  -45.938500   16.496928
 N   40.409750  -47.530478   13.450050
 C   41.493406  -45.891120   14.565789
 C   41.995263  -47.125143   15.020125
 C   44.580777  -45.858518   17.483164
 C   43.053135  -46.383782   20.365377
 C   42.842781  -50.064301   23.902522
 C   43.690056  -49.457156   22.984086
 C   41.266650  -48.097655   14.270260
 C   41.931258  -47.909506   24.457803
 C   42.805635  -45.816920   23.395225
 C   41.937103  -49.280076   24.654165
 C   41.403109  -43.355277   14.507342
 C   41.957749  -44.647496   15.039172
 C   42.947730  -44.711974   15.996054
 C   42.992937  -47.146526   16.006728
 N   40.549908  -46.197508   13.633247
 O   45.463934  -45.022891   17.340967
 C   45.763719  -46.741060   19.397431
 C   45.491971  -45.832975   20.597525
 C   44.228492  -46.252947   21.348721
 C   43.403529  -47.270286   19.167064
 C   43.909568  -45.292284   22.494241
 O   42.032165  -45.077702   23.973328
 C   42.790553  -47.286102   23.545658
 C   43.670092  -48.075048   22.797211
 O   44.532662  -47.559041   21.887514
 C   42.884707  -51.558467   24.087244
 C   41.003374  -49.921903   25.648266
 H   42.788328  -45.381712   20.006040
 H   42.171414  -46.788044   20.875526
 H   44.381768  -50.047939   22.390959
 H   41.342038  -49.175717   14.308064
 H   41.256712  -47.271165   25.022177
 H   40.325551  -43.275415   14.697633
 H   41.890291  -42.496898   14.976421
 H   41.553905  -43.274688   13.423711
 H   43.378594  -43.794048   16.385377
 H   43.407938  -48.084261   16.364392
 H   39.983368  -45.571726   13.085653
 H   45.966597  -47.761681   19.738168
 H   46.621231  -46.378049   18.832463
 H   46.341871  -45.854423   21.288264
 H   45.370152  -44.803542   20.242451
 H   42.571051  -47.284132   18.465428
 H   43.579807  -48.298768   19.501395
 H   44.807975  -45.168359   23.115181
 H   43.628878  -44.305792   22.116213
 H   43.129815  -51.821573   25.122958
 H   41.911853  -52.012845   23.865513
 H   43.630791  -52.020562   23.435713
 H   41.552804  -50.460058   26.430144
 H   40.378129  -49.170382   26.137603
 H   40.337589  -50.648686   25.167198
