56 
5ctc_ligand_xtb.xyz
 N    6.202707   30.176994   23.079878
 C    5.074423   30.306353   25.218589
 N    1.790292   31.745852   28.023544
 C    3.877453   31.746729   27.226758
 C    3.131735   30.791210   26.494669
 C    5.790865   29.498075   24.180505
 C    5.957725   29.344529   20.791887
 C    8.253425   34.614230   16.388854
 C    7.008508   33.104901   14.812255
 C    1.832613   30.859171   27.063581
 C    6.918610   33.925886   16.098268
 C    4.639813   30.721779   19.045437
 C    5.793388   34.957245   16.010418
 C    5.997238   33.001106   27.779471
 C    5.232500   31.994001   26.977755
 C    5.800427   31.258089   25.962101
 C    3.747020   30.053090   25.481160
 N    3.012782   32.282514   28.126315
 O    6.020848   28.313960   24.338536
 C    5.773710   31.503710   22.713152
 C    4.815616   31.437315   21.519007
 C    5.475798   30.720618   20.345136
 C    6.872783   29.468473   22.010959
 C    6.525111   31.566967   19.587598
 N    5.678682   31.509914   18.413535
 C    5.618760   32.277536   17.307348
 O    4.707203   32.228692   16.514773
 O    6.717416   33.055789   17.235939
 H    5.092869   28.732540   21.056793
 H    6.491804   28.848472   19.980954
 H    8.189787   35.174906   17.317836
 H    9.041156   33.872006   16.487247
 H    8.504070   35.294155   15.580207
 H    7.787957   32.351321   14.904299
 H    6.061090   32.609117   14.619850
 H    7.243958   33.757126   13.975935
 H    0.959060   30.297465   26.800668
 H    3.676054   31.233435   19.100368
 H    4.500146   29.745447   18.576107
 H    5.719514   35.511450   16.944100
 H    5.996926   35.653762   15.201935
 H    4.846415   34.459873   15.820226
 H    5.544664   33.988531   27.686197
 H    5.995910   32.727939   28.834514
 H    7.027557   33.057902   27.439124
 H    6.845803   31.400344   25.726647
 H    3.201090   29.309126   24.922374
 H    3.191717   32.987462   28.821576
 H    6.658281   32.092420   22.441471
 H    5.282514   31.981246   23.561223
 H    4.520849   32.447188   21.230121
 H    3.917122   30.889631   21.812441
 H    7.143390   28.481884   22.391000
 H    7.782586   30.017608   21.744494
 H    7.495891   31.090155   19.432346
 H    6.680372   32.581762   19.962519
