56 
5ctc_ligand_dft.xyz
 N    6.264089   30.370811   23.134704
 C    4.936790   30.341617   25.210997
 N    1.834400   31.272305   28.464359
 C    3.793641   31.587423   27.383824
 C    3.117073   30.529136   26.747970
 C    5.581445   29.615359   24.066983
 C    6.018325   29.493738   20.842148
 C    8.358059   34.443815   16.201172
 C    7.004957   32.994849   14.659470
 C    1.901660   30.396808   27.486094
 C    6.988902   33.818536   15.946377
 C    4.684027   30.814397   19.058639
 C    5.902398   34.893091   15.927621
 C    5.761349   33.157365   27.709406
 C    5.061478   32.046920   26.976159
 C    5.599736   31.402700   25.881333
 C    3.709009   29.886609   25.651190
 N    2.979814   31.989797   28.398492
 O    5.532667   28.394939   24.000382
 C    5.823244   31.703671   22.729398
 C    4.882931   31.622794   21.522274
 C    5.523209   30.859407   20.365666
 C    6.931338   29.641330   22.060113
 C    6.593469   31.666119   19.565648
 N    5.797836   31.445490   18.363725
 C    5.704275   32.197640   17.234740
 O    4.749431   32.159947   16.481646
 O    6.814394   32.947564   17.098838
 H    5.163443   28.865747   21.121439
 H    6.551116   28.982610   20.030973
 H    8.357325   34.999266   17.144215
 H    9.129616   33.669728   16.255034
 H    8.612127   35.133984   15.390663
 H    7.759394   32.204205   14.727375
 H    6.030471   32.540869   14.474346
 H    7.261707   33.642189   13.814296
 H    1.090868   29.698285   27.331907
 H    3.776474   31.430681   19.069930
 H    4.433339   29.815427   18.686304
 H    5.888357   35.432001   16.880975
 H    6.113997   35.613722   15.130632
 H    4.920107   34.451646   15.754012
 H    5.169136   34.080833   27.693662
 H    5.932548   32.893767   28.760365
 H    6.732728   33.376020   27.258382
 H    6.583860   31.701806   25.528306
 H    3.233647   29.047032   25.154811
 H    3.131916   32.720366   29.073379
 H    6.713094   32.296004   22.476256
 H    5.324637   32.200807   23.560699
 H    4.603717   32.634742   21.203108
 H    3.959933   31.111969   21.828177
 H    7.227803   28.666353   22.444930
 H    7.837118   30.201485   21.791482
 H    7.597350   31.229230   19.520842
 H    6.680223   32.724048   19.844130
