16 
5cu2_ligand_dft.xyz
 C   -2.562137   -0.317735   -0.037697
 C   -0.444301   -1.431873   -0.163592
 C    1.729386   -0.178397   -0.103497
 C    0.230333   -0.214773   -0.036132
 C   -0.516985    0.966903    0.093297
 C   -1.912099    0.902660    0.098580
 O    2.351661   -1.146442    0.614780
 O    2.368782    0.598227   -0.756825
 O    0.149967    2.130619    0.245592
 C   -1.832394   -1.494651   -0.171883
 H   -3.647505   -0.344490   -0.038337
 H    0.133433   -2.343724   -0.294293
 H   -2.489449    1.817761    0.210365
 H    1.709140   -1.588521    1.185704
 H   -0.483070    2.854775    0.321326
 H   -2.336661   -2.447843   -0.287599
