16 
5cu2_ligand_xtb.xyz
 C   -2.552738   -0.306911   -0.039697
 C   -0.447890   -1.435537   -0.158613
 C    1.719590   -0.180020   -0.106690
 C    0.227299   -0.225050   -0.035872
 C   -0.507813    0.961932    0.093948
 C   -1.898841    0.902890    0.093940
 O    2.347021   -1.136334    0.613368
 O    2.342614    0.602251   -0.761557
 O    0.158884    2.120406    0.261394
 C   -1.829525   -1.481592   -0.165660
 H   -3.631891   -0.332111   -0.044533
 H    0.117285   -2.349035   -0.286374
 H   -2.465910    1.818766    0.196037
 H    1.726816   -1.680052    1.116696
 H   -0.455982    2.863834    0.297834
 H   -2.338955   -2.426258   -0.273434
