48 
5cuq_ligand_ani.xyz
 C    2.822233    0.801539    0.094483
 C    4.032598    0.073927   -0.019996
 C    5.286175    0.701360   -0.332658
 N    5.332336    2.067783   -0.534123
 C    6.413665   -0.088246   -0.375454
 C    6.310464   -1.482453   -0.148851
 C    7.553182   -2.332741   -0.216628
 N    5.176217   -2.092164    0.111450
 C    4.050207   -1.325452    0.171879
 C    2.821110   -1.980859    0.443328
 C    1.653351   -1.276828    0.516304
 C    1.648563    0.131352    0.339979
 N    0.402863    0.779869    0.409722
 C    0.180102    2.136926    0.415369
 O    1.050931    2.991345    0.432562
 N   -1.165098    2.498252    0.450659
 C   -2.242883    1.686457   -0.022721
 C   -3.060774    1.038639    0.866793
 C   -4.093567    0.180674    0.400212
 C   -4.947876   -0.573295    1.271626
 N   -4.777515   -0.483118    2.643633
 C   -5.946679   -1.331309    0.704472
 C   -6.082799   -1.384042   -0.705142
 C   -7.171344   -2.234783   -1.307818
 N   -5.299155   -0.731564   -1.532140
 C   -4.312737    0.041805   -0.989431
 C   -3.465233    0.743319   -1.882668
 C   -2.456503    1.542377   -1.416533
 H    2.800377    1.881831    0.019461
 H    4.499046    2.478146   -0.931017
 H    6.178713    2.419959   -0.961303
 H    7.386652    0.350022   -0.591639
 H    7.977499   -2.316155   -1.227093
 H    8.321541   -1.956541    0.467842
 H    7.310865   -3.363701    0.048137
 H    2.851082   -3.055933    0.584089
 H    0.719269   -1.795293    0.721861
 H   -0.401981    0.172340    0.447538
 H   -1.262952    3.493536    0.303987
 H   -2.912800    1.214649    1.929803
 H   -3.820786   -0.372232    2.948619
 H   -5.265254   -1.187220    3.182584
 H   -6.630022   -1.902737    1.331045
 H   -7.035344   -3.287418   -1.035051
 H   -8.155806   -1.925245   -0.939859
 H   -7.151654   -2.144453   -2.395440
 H   -3.652559    0.614774   -2.943012
 H   -1.798404    2.067297   -2.104710
