111 
5cvd_ligand_xtb.xyz
 O    8.355650    0.078510    0.228584
 C    7.128800    0.018777    0.297277
 C    6.430975   -0.982245   -0.626886
 N    7.507655   -1.782021   -1.233404
 C    7.467633   -1.793973   -2.697223
 C    7.526580   -3.149731   -0.694148
 N    6.378591    0.733971    1.113992
 C    4.934393    0.646120    1.249341
 C    4.218136    1.106268   -0.037941
 O    4.835055    1.528601   -0.999544
 C    4.634176    1.597367    2.417582
 C    5.742225    2.643045    2.302907
 C    6.950967    1.796937    1.929942
 N    2.891358    0.979555    0.015343
 C    2.029726    1.524069   -1.013635
 C    0.639183    1.722716   -0.396335
 O    0.461906    1.612194    0.806048
 C    2.053769    0.705079   -2.318826
 C    1.222413   -0.586108   -2.336431
 C    2.043242   -1.862955   -2.171859
 N    2.568184   -1.984277   -0.834719
 C    3.658561   -2.723684   -0.494743
 N    3.907467   -2.722367    0.870818
 N    4.525410   -3.260156   -1.273785
 N   -0.313577    2.117040   -1.252766
 C   -1.705451    2.202658   -0.855189
 C   -2.281640    0.775481   -0.716218
 O   -1.683450   -0.184507   -1.181480
 C   -2.493714    3.027110   -1.872838
 C   -2.251737    4.537622   -1.770116
 C   -2.851623    5.200494   -0.515335
 N   -4.276195    4.989031   -0.371584
 C   -4.743128    3.763051    0.075547
 N   -5.814834    3.256843   -0.582736
 N   -4.212638    3.064114    1.011428
 N   -3.425383    0.700340   -0.039911
 C   -4.040584   -0.569897    0.256079
 C   -5.501237   -0.595677   -0.192069
 O   -6.196134    0.397248   -0.278568
 C   -4.047695   -0.840745    1.777215
 C   -2.723900   -0.490402    2.453220
 C   -1.525834   -1.289602    1.944867
 N   -0.315431   -0.662300    2.443595
 C    0.924075   -1.182009    2.262390
 N    1.962460   -0.304953    2.566543
 N    1.253207   -2.347386    1.847017
 N   -5.956747   -1.834153   -0.467694
 C   -7.365940   -2.121950   -0.567447
 C   -7.876807   -2.568443    0.805351
 O   -7.183246   -2.648827    1.779727
 C   -7.616823   -3.219852   -1.606361
 O   -6.912330   -4.367228   -1.185163
 O   -9.176469   -2.842335    0.789195
 H    5.726022   -1.616905   -0.093953
 H    5.888473   -0.418909   -1.387078
 H    8.359208   -1.235813   -0.888904
 H    6.572609   -2.322992   -3.021765
 H    7.452271   -0.775733   -3.080595
 H    8.344599   -2.303845   -3.091395
 H    6.546019   -3.602404   -0.892097
 H    8.314786   -3.730257   -1.167033
 H    7.707299   -3.118464    0.377741
 H    4.627247   -0.385418    1.454434
 H    4.722647    1.065469    3.365513
 H    3.641094    2.033425    2.346826
 H    5.514090    3.342465    1.498835
 H    5.893738    3.199641    3.223837
 H    7.427550    1.360903    2.813882
 H    7.707807    2.333717    1.357530
 H    2.429491    0.614558    0.850743
 H    2.417390    2.524196   -1.263992
 H    3.101161    0.478138   -2.523261
 H    1.718696    1.360971   -3.124688
 H    0.444334   -0.558620   -1.573367
 H    0.713357   -0.662621   -3.298469
 H    1.405752   -2.724414   -2.421823
 H    2.880074   -1.848187   -2.878026
 H    1.896500   -1.848251   -0.088106
 H    4.485947   -3.501957    1.152069
 H    3.035306   -2.665986    1.412239
 H    4.272183   -3.213930   -2.254461
 H   -0.144094    2.019610   -2.241633
 H   -1.730688    2.665953    0.134440
 H   -2.211967    2.692049   -2.874633
 H   -3.555215    2.811907   -1.752645
 H   -1.179147    4.740360   -1.781420
 H   -2.690082    5.011053   -2.651844
 H   -2.674787    6.277906   -0.566491
 H   -2.351398    4.829188    0.381190
 H   -4.808948    5.375834   -1.139528
 H   -6.189180    2.381693   -0.239924
 H   -6.428995    3.864596   -1.093645
 H   -3.429861    3.510985    1.472661
 H   -3.849940    1.545943    0.405055
 H   -3.475551   -1.340162   -0.278869
 H   -4.826598   -0.222376    2.226925
 H   -4.307687   -1.885072    1.952097
 H   -2.525464    0.571333    2.292125
 H   -2.827475   -0.648378    3.527732
 H   -1.517258   -1.318078    0.848340
 H   -1.569942   -2.316696    2.320312
 H   -0.347560    0.349008    2.420309
 H    2.793914   -0.783952    2.879093
 H    1.689884    0.458511    3.168079
 H    0.472450   -2.944049    1.603797
 H   -5.382303   -2.641892   -0.277766
 H   -7.886018   -1.201432   -0.851521
 H   -8.694487   -3.411935   -1.666577
 H   -7.253532   -2.877549   -2.584624
 H   -7.099584   -5.095231   -1.786233
 H   -9.481163   -3.127255    1.666511
