75 
5cw8_ligand_dft.xyz
 C    5.736275    3.803025    0.983235
 S    5.310164    2.861282   -0.504634
 C    6.152464    1.333954   -0.124484
 C    6.032501    0.265874   -1.203234
 C    5.456859   -1.020249   -0.593073
 C    4.051321   -0.849587   -0.016524
 C    3.471102   -2.169708    0.494419
 C   -4.878082    1.538831    1.207367
 C   -6.296292    2.082033    1.050468
 C   -2.362004   -0.091119    1.662263
 C   -0.499459   -2.222499   -1.652251
 C    0.953092   -2.336282   -1.129286
 C    2.173340   -1.272060    2.471955
 C    2.084425   -2.068718    1.164505
 C   -5.202899    0.339581   -0.982268
 C   -4.613328    0.234394    0.422926
 C   -5.294683   -0.950815    1.142691
 C   -0.458864   -1.442497    0.651702
 C   -0.883259   -2.771414    1.299543
 C   -6.651683    2.280078   -0.407985
 O   -7.406343    3.158149   -0.784897
 C   -3.266023   -0.879027   -2.041687
 C   -2.664710   -1.114024   -0.656395
 C   -3.066189    0.031679    0.299485
 C   -1.142242   -1.199550   -0.713633
 C    1.025527   -1.518504    0.192263
 C   -0.838292   -0.259605    1.553147
 C   -6.077112    1.294333   -1.341470
 C   -4.785073   -0.718788   -1.969336
 O    6.769834    1.175473    0.902458
 C    7.417946    0.034908   -1.819640
 H    5.268764    4.784726    0.887603
 H    5.357911    3.294233    1.871156
 H    6.818701    3.911700    1.065858
 H    5.348884    0.627881   -1.982052
 H    6.141123   -1.369624    0.189853
 H    5.443346   -1.791921   -1.374063
 H    3.397827   -0.426900   -0.791263
 H    4.080754   -0.115720    0.798954
 H    4.170870   -2.602671    1.222527
 H    3.425529   -2.881502   -0.339756
 H   -4.172123    2.304523    0.858653
 H   -4.668298    1.378504    2.269810
 H   -6.425393    3.032472    1.575130
 H   -7.029181    1.381109    1.473679
 H   -2.777202   -0.939278    2.219086
 H   -2.566289    0.799203    2.265828
 H   -0.543045   -1.909703   -2.699689
 H   -1.019457   -3.186207   -1.586509
 H    1.678602   -1.964861   -1.860024
 H    1.213585   -3.384456   -0.940696
 H    1.307830   -1.453940    3.115028
 H    3.066942   -1.556505    3.039316
 H    2.225853   -0.193236    2.285874
 H    1.798882   -3.099281    1.420485
 H   -5.063176   -1.909781    0.669977
 H   -6.383106   -0.835118    1.129473
 H   -4.977961   -1.009101    2.188439
 H   -0.412656   -2.883220    2.282655
 H   -0.586723   -3.635732    0.696119
 H   -1.964149   -2.838025    1.450947
 H   -3.016173   -1.708307   -2.712893
 H   -2.823330    0.028353   -2.476724
 H   -3.059135   -2.067029   -0.274085
 H   -2.685258    0.953489   -0.171789
 H   -0.792532   -0.206580   -1.044831
 H    1.313279   -0.486390   -0.057330
 H   -0.400902    0.658177    1.134766
 H   -0.426683   -0.370734    2.561021
 H   -6.451844    1.348936   -2.361216
 H   -5.224085   -1.677662   -1.656881
 H   -5.201945   -0.493517   -2.956074
 H    8.122736   -0.295727   -1.050811
 H    7.361073   -0.735589   -2.594971
 H    7.809655    0.950053   -2.275142
