27 
5cwa_ligand_dft.xyz
 O    3.248951   -1.646792   -1.520244
 C    2.406602   -1.414868   -0.689296
 O    1.398722   -2.259892   -0.450964
 C    2.429704   -0.169013    0.151899
 C    3.500473    0.620482    0.210810
 C    3.630433    1.843923    1.057236
 O    1.310546    0.044900    0.943681
 C    0.205329    0.574720    0.318949
 C    0.235212    1.762663   -0.384550
 C   -0.935295    2.264988   -0.959185
 C   -2.124450    1.578549   -0.804771
 C   -0.988848   -0.154229    0.450708
 O   -0.907376   -1.335341    1.078567
 C   -2.177639    0.370059   -0.090522
 C   -3.424003   -0.414575    0.094034
 O   -3.423611   -1.555247    0.523614
 O   -4.595248    0.151963   -0.213546
 H    0.837860   -1.960844    0.289345
 H    4.341584    0.320572   -0.407626
 H    2.733527    2.018689    1.656192
 H    4.486731    1.747640    1.734179
 H    3.820092    2.725440    0.432969
 H    1.178809    2.286683   -0.495615
 H   -0.906476    3.188126   -1.526828
 H   -3.012959    1.976684   -1.288683
 H   -1.794431   -1.764596    1.006299
 H   -4.485712    1.088685   -0.420963
