76 
5cxa_ligand_ani.xyz
 O   -6.076206   -1.195693    2.264881
 C   -5.497351   -2.125107    1.736656
 O   -4.175040   -2.168515    1.579164
 C   -6.174008   -3.347747    1.159764
 C   -5.985655   -3.443850   -0.364861
 C   -6.716352   -2.342041   -1.166110
 C   -8.231410   -2.522029   -1.048070
 N   -8.806821   -3.344086   -1.965252
 O   -8.859711   -2.001920   -0.140617
 N   -6.405677   -1.013841   -0.693835
 C   -5.215171   -0.421671   -0.993488
 O   -4.453182   -0.867713   -1.835434
 C   -4.946569    0.890346   -0.232738
 C   -5.798285    2.006585   -0.862497
 C   -5.894275    3.284105   -0.019704
 C   -4.582961    4.026319    0.043956
 O   -4.181082    4.284765    1.279446
 O   -3.959888    4.353570   -0.955489
 N   -3.535071    1.211230   -0.271863
 C   -2.630237    0.729884    0.620299
 O   -2.957172    0.265279    1.715246
 C   -1.159514    0.802915    0.217715
 C   -0.488368    2.052794    0.823227
 C   -1.168643    3.331447    0.407782
 O   -1.443037    4.250228    1.158653
 O   -1.469347    3.340523   -0.893765
 C   -0.459794   -0.487700    0.675136
 C    0.963796   -0.563770    0.237143
 C    2.157268   -0.598376    0.886576
 O    1.181436   -0.600402   -1.088121
 N    2.531620   -0.656874   -1.340565
 C    3.120072   -0.657265   -0.166291
 C    4.588454   -0.722059   -0.068587
 C    5.206975   -0.894573    1.170901
 C    6.586523   -0.961951    1.270114
 C    5.385312   -0.616964   -1.211802
 C    6.765138   -0.666676   -1.106093
 C    7.390508   -0.842306    0.132067
 C    8.869327   -0.897901    0.228367
 C    9.655482    0.013341   -0.483668
 C    9.501638   -1.856519    1.025090
 C   10.888393   -1.907632    1.102423
 C   11.671530   -0.994997    0.402381
 C   11.038723   -0.037359   -0.381881
Cl   12.002585    1.116283   -1.261765
 H   -3.801900   -1.298887    1.854593
 H   -7.233116   -3.298505    1.424109
 H   -5.735732   -4.234584    1.629959
 H   -6.338483   -4.420478   -0.713546
 H   -4.919078   -3.375583   -0.600610
 H   -6.384194   -2.409005   -2.207123
 H   -9.815087   -3.392527   -1.971755
 H   -8.320726   -3.617423   -2.804253
 H   -6.957775   -0.695757    0.093724
 H   -5.230651    0.758737    0.821153
 H   -5.392496    2.252886   -1.850262
 H   -6.813016    1.623185   -1.021456
 H   -6.607913    3.965223   -0.496171
 H   -6.247649    3.075865    0.994330
 H   -3.252026    4.613140    1.239507
 H   -3.181790    1.502700   -1.173562
 H   -1.094704    0.883065   -0.870746
 H   -0.474353    2.009403    1.914711
 H    0.549964    2.106015    0.474819
 H   -2.133025    4.051416   -1.045005
 H   -0.511588   -0.551598    1.764383
 H   -1.003657   -1.355542    0.282325
 H    2.320845   -0.556113    1.952851
 H    4.602388   -0.991455    2.068075
 H    7.050487   -1.088280    2.245053
 H    4.916488   -0.489288   -2.182129
 H    7.372027   -0.592859   -2.005081
 H    9.187052    0.779839   -1.094882
 H    8.899106   -2.578878    1.570568
 H   11.365970   -2.661800    1.721235
 H   12.754877   -1.021146    0.461248
