76 
5cxa_ligand_xtb.xyz
 O   -6.165095   -0.602096    2.141401
 C   -5.709896   -1.690464    1.886790
 O   -4.420120   -1.968969    1.885684
 C   -6.550502   -2.898504    1.510927
 C   -6.163170   -3.406235    0.117681
 C   -6.629627   -2.447626   -1.000505
 C   -8.151065   -2.502487   -1.159988
 N   -8.609648   -3.627719   -1.742829
 O   -8.873354   -1.612706   -0.772650
 N   -6.282404   -1.079611   -0.702241
 C   -5.053539   -0.574012   -0.884326
 O   -4.142163   -1.178071   -1.411810
 C   -4.877571    0.859387   -0.339334
 C   -5.747733    1.871043   -1.088366
 C   -6.016703    3.133807   -0.258824
 C   -4.705139    3.797781    0.086914
 O   -4.451642    3.780032    1.373118
 O   -3.958198    4.268218   -0.746771
 N   -3.469297    1.191176   -0.435828
 C   -2.566997    0.669455    0.416783
 O   -2.870268    0.172533    1.489307
 C   -1.107531    0.783180   -0.023900
 C   -0.435929    1.952868    0.719505
 C   -1.276621    3.186994    0.505425
 O   -1.792672    3.815582    1.401783
 O   -1.447639    3.473593   -0.770820
 C   -0.419572   -0.553541    0.291706
 C    1.011985   -0.544627   -0.102014
 C    2.163579   -0.674752    0.617225
 O    1.323639   -0.374333   -1.398838
 N    2.665064   -0.393668   -1.546085
 C    3.196869   -0.574227   -0.357526
 C    4.636310   -0.645282   -0.169121
 C    5.197303   -0.755858    1.101387
 C    6.567165   -0.821887    1.257021
 C    5.481671   -0.601672   -1.278329
 C    6.849238   -0.661060   -1.118309
 C    7.414487   -0.772627    0.152099
 C    8.872947   -0.834818    0.322164
 C    9.700913   -0.009378   -0.434943
 C    9.450053   -1.713928    1.236397
 C   10.823203   -1.768903    1.386877
 C   11.647547   -0.947233    0.637255
 C   11.072265   -0.071045   -0.268823
Cl   12.086828    0.968991   -1.209987
 H   -3.863287   -1.154671    1.977029
 H   -7.604902   -2.624095    1.553113
 H   -6.352593   -3.683343    2.242087
 H   -6.598267   -4.392864   -0.050025
 H   -5.076634   -3.491588    0.065719
 H   -6.139259   -2.732322   -1.938868
 H   -9.601634   -3.736301   -1.876210
 H   -7.993536   -4.333691   -2.103306
 H   -7.002478   -0.562413   -0.211970
 H   -5.146306    0.843835    0.724951
 H   -5.252558    2.150402   -2.021531
 H   -6.704596    1.411314   -1.337511
 H   -6.620781    3.825880   -0.846643
 H   -6.537801    2.880238    0.663304
 H   -3.528553    4.067629    1.581019
 H   -3.149386    1.471727   -1.352202
 H   -1.054263    0.972172   -1.098589
 H   -0.379918    1.747048    1.788671
 H    0.566824    2.113302    0.321548
 H   -2.191133    4.116312   -0.891557
 H   -0.503455   -0.761842    1.358656
 H   -0.942732   -1.340690   -0.258094
 H    2.255597   -0.826803    1.671005
 H    4.562773   -0.785049    1.973999
 H    6.989601   -0.888846    2.248912
 H    5.038979   -0.521595   -2.258435
 H    7.491963   -0.643388   -1.985882
 H    9.274453    0.692553   -1.134570
 H    8.818583   -2.371239    1.814853
 H   11.260506   -2.458452    2.093280
 H   12.719189   -0.983657    0.751584
