38 
5cy3_ligand_xtb.xyz
 N   -4.352868   -2.636882   -0.015184
 N    4.657347   -0.931319   -1.279646
 C   -1.881244    0.001769    0.068706
 C   -2.436014    1.212126   -0.267277
 C   -1.633599    2.366159   -0.233951
 C    0.330523    3.524009    0.098130
 C   -0.248429    2.272306    0.140430
 C   -4.060269   -1.326274    0.006264
 C    2.614993   -0.906977   -0.229500
 C    4.459819   -2.153693   -0.598234
 O    5.219233   -3.062491   -0.538282
 C    3.630748   -0.217087   -1.089129
 O    3.232319   -2.146555    0.006053
 C    2.313427   -0.156939    1.101676
 C    3.596475    0.201402    1.841691
 O    1.628477    1.036660    0.823573
 C    0.303051    1.005558    0.479900
 S   -0.841088    4.660155   -0.381261
 N   -2.045397    3.592231   -0.531552
 C   -0.509305   -0.091090    0.441256
 C   -2.676961   -1.212865    0.043633
 C   -2.239169   -2.555843    0.037055
 N   -3.257496   -3.388024   -0.002254
 C   -5.651278   -3.243903   -0.056411
 H   -3.466377    1.303364   -0.565557
 H    1.338384    3.804433    0.322329
 H   -4.828437   -0.580240    0.012711
 H    1.670186   -1.054183   -0.770921
 H    3.509928    0.772912   -1.490554
 H    1.708224   -0.827307    1.727283
 H    3.348087    0.641032    2.803794
 H    4.192798   -0.692397    2.004558
 H    4.174519    0.921641    1.267589
 H   -0.140047   -1.066600    0.713131
 H   -1.240819   -2.945242    0.041234
 H   -6.250015   -2.930670    0.800590
 H   -6.175411   -2.971754   -0.974625
 H   -5.511566   -4.322373   -0.027116
