43 
5cy9_ligand_ani.xyz
 C   -2.619708    3.282035    2.332227
 C   -2.854277    1.775924    2.400770
 C   -2.832964    1.119345    1.021482
 C   -3.026772   -0.390627    1.119949
 S   -3.240793   -1.197206   -0.460983
 O   -3.181366   -2.630186   -0.233538
 O   -4.357933   -0.578681   -1.152814
 N   -1.915400   -0.718209   -1.349858
 C   -0.582733   -0.793831   -0.915664
 C   -0.064908   -1.932862   -0.304316
 C    1.271791   -2.021487    0.120294
 C    2.094748   -0.929993   -0.080694
 C    1.561294    0.214935   -0.699199
 C    0.245554    0.350172   -1.134363
 C   -0.081936    1.616869   -1.691544
 C    0.885023    2.611066   -1.796777
 C    2.212134    2.422795   -1.353315
 C    2.532482    1.209289   -0.801839
 C    3.778842    0.633672   -0.210799
 O    4.878571    1.131296   -0.087917
 N    3.426469   -0.666328    0.198596
 C    4.332344   -1.543859    0.913824
 C    4.004217   -1.637045    2.398947
 H   -1.647475    3.505044    1.877304
 H   -3.389295    3.772582    1.724871
 H   -2.636703    3.738358    3.327387
 H   -3.820313    1.573398    2.883462
 H   -2.085761    1.312011    3.034299
 H   -1.872650    1.339712    0.529602
 H   -3.621502    1.545169    0.389321
 H   -3.934918   -0.648869    1.676627
 H   -2.176712   -0.885308    1.605159
 H   -2.153575    0.048854   -1.966442
 H   -0.723265   -2.783730   -0.160733
 H    1.627654   -2.933611    0.591693
 H   -1.090412    1.839317   -2.037378
 H    0.609041    3.567563   -2.234324
 H    2.952297    3.212593   -1.444237
 H    5.332163   -1.135318    0.755804
 H    4.292485   -2.532354    0.441447
 H    4.082393   -0.654292    2.872098
 H    2.986496   -2.012329    2.551605
 H    4.700295   -2.319562    2.897235
