43 
5cy9_ligand_dft.xyz
 C   -2.560585    3.539885    1.845065
 C   -2.537986    2.042537    2.144820
 C   -2.940270    1.209161    0.926759
 C   -2.836122   -0.284467    1.201757
 S   -3.189951   -1.308879   -0.234155
 O   -3.022440   -2.688953    0.185247
 O   -4.412312   -0.849921   -0.874105
 N   -1.980918   -0.938679   -1.341378
 C   -0.611306   -0.918410   -0.978327
 C   -0.011518   -2.048880   -0.460833
 C    1.343903   -2.085995   -0.022308
 C    2.089386   -0.946555   -0.155340
 C    1.483127    0.203110   -0.704811
 C    0.157242    0.285561   -1.122796
 C   -0.228503    1.553894   -1.631744
 C    0.674043    2.602404   -1.681075
 C    2.014780    2.475722   -1.238987
 C    2.402621    1.253995   -0.750815
 C    3.683449    0.718738   -0.184870
 O    4.745264    1.278622   -0.012963
 N    3.415072   -0.619794    0.134537
 C    4.382081   -1.490926    0.770572
 C    4.152997   -1.620679    2.274223
 H   -1.860309    3.784636    1.038055
 H   -3.559515    3.864689    1.533257
 H   -2.276184    4.124645    2.725169
 H   -3.211077    1.818741    2.982220
 H   -1.530311    1.748948    2.466151
 H   -2.280357    1.471801    0.092091
 H   -3.962636    1.452442    0.617385
 H   -3.550394   -0.617533    1.961318
 H   -1.832982   -0.572436    1.532440
 H   -2.299949   -0.234620   -1.994585
 H   -0.611401   -2.948137   -0.375585
 H    1.747798   -3.005798    0.387395
 H   -1.240129    1.724063   -1.990929
 H    0.341510    3.557852   -2.074828
 H    2.700175    3.315550   -1.287176
 H    5.364802   -1.058592    0.567516
 H    4.337858   -2.470191    0.280511
 H    4.248965   -0.643845    2.757014
 H    3.154654   -2.015270    2.489751
 H    4.891515   -2.298108    2.714032
