54 
5d0c_ligand_ani.xyz
 C    3.973736   -0.921891    0.170592
 C    5.203233   -0.539722    0.991136
 N    5.543104    0.861396    0.784037
 C    6.722581    1.174026    0.160467
 O    7.531160    0.315785   -0.160733
 C    6.993321    2.642127   -0.111869
 C    4.470700    1.790978    1.098977
 C    3.217635    1.466306    0.286714
 C    2.795001    0.007985    0.482799
 C    1.574968   -0.320764   -0.380936
 N    1.100774   -1.678793   -0.119401
 S   -0.098093   -2.308680   -1.078217
 O    0.364543   -2.204996   -2.450612
 O   -0.424884   -3.595473   -0.489072
 C   -1.485723   -1.215019   -0.904331
 C   -1.741802   -0.319320   -1.940508
 C   -2.758830    0.643636   -1.884261
 C   -3.535731    0.693136   -0.746146
 C   -3.290385   -0.226804    0.290989
 C   -2.301385   -1.212293    0.274246
 C   -2.265402   -2.038172    1.427547
 C   -3.151212   -1.825513    2.477163
 C   -4.126279   -0.806121    2.455032
 C   -4.185261   -0.011850    1.341688
 C   -5.051754    1.131955    0.928011
 O   -5.963374    1.667440    1.523153
 N   -4.595371    1.493599   -0.352222
 C   -5.112752    2.632998   -1.084584
 C   -4.165299    3.825960   -1.052957
 H    3.701084   -1.966993    0.357283
 H    4.219653   -0.838887   -0.897551
 H    6.078916   -1.127238    0.712739
 H    5.000673   -0.699369    2.060459
 H    7.975199    2.708657   -0.580075
 H    6.245407    3.067204   -0.789158
 H    6.995804    3.230924    0.811082
 H    4.798756    2.817078    0.926605
 H    4.236854    1.701092    2.169942
 H    3.420041    1.636306   -0.780164
 H    2.403406    2.143971    0.572298
 H    2.509803   -0.132395    1.540145
 H    1.843771   -0.267023   -1.442394
 H    0.771049    0.413212   -0.212918
 H    0.945310   -1.907170    0.855942
 H   -1.121931   -0.374292   -2.830347
 H   -2.916662    1.323760   -2.717141
 H   -1.554812   -2.855136    1.487705
 H   -3.090009   -2.475418    3.345535
 H   -4.807052   -0.659391    3.289468
 H   -6.070420    2.877295   -0.621417
 H   -5.307504    2.314659   -2.115394
 H   -4.009863    4.165831   -0.025287
 H   -3.191304    3.562132   -1.478982
 H   -4.581945    4.654780   -1.634322
