58 
5d10_ligand_ani.xyz
 C  -13.131266  -39.801924    4.523520
 C  -13.079597  -38.727223    5.428870
 C  -11.816912  -38.366683    5.901586
 N  -10.708295  -38.987244    5.504089
 N  -12.010796  -40.420505    4.108950
 C  -14.301883  -40.946345    2.723706
 C  -15.484922  -41.892225    2.606670
 N  -16.726540  -41.177788    2.851736
 C  -17.876020  -42.029928    2.622329
 C  -16.723533  -40.659091    4.208004
 C  -15.573931  -39.682825    4.414103
 N  -14.308749  -40.292150    4.028048
 N  -11.675569  -37.346878    6.811318
 C  -10.481369  -36.965347    7.432327
 C   -9.147660  -37.143108    6.989864
 C   -8.367474  -36.570591    7.967892
 C   -6.882857  -36.430557    8.118244
 N   -9.237757  -36.087623    8.884454
 N  -10.533151  -36.306488    8.579495
 C  -10.886896  -39.975268    4.636663
 O   -9.780291  -40.623206    4.208843
 C   -8.534042  -40.205300    4.666096
 C   -8.180680  -40.288028    6.008404
 C   -6.928335  -39.847657    6.416511
 C   -7.618940  -39.744760    3.726817
 C   -6.372192  -39.295565    4.140729
 C   -6.015091  -39.336376    5.490306
 N   -4.767628  -38.809363    5.882599
 C   -3.852041  -39.253947    6.813394
 O   -2.885841  -38.561688    7.085539
 C   -4.069698  -40.592159    7.437466
 C   -3.316864  -40.958257    8.470136
 H  -13.957898  -38.160892    5.717353
 H  -13.362879  -41.490994    2.616685
 H  -14.349129  -40.192590    1.921317
 H  -15.357091  -42.734881    3.315360
 H  -15.515247  -42.316575    1.596014
 H  -18.797904  -41.462123    2.785353
 H  -17.876476  -42.384464    1.586294
 H  -17.892964  -42.914322    3.289806
 H  -17.672983  -40.143075    4.392767
 H  -16.644310  -41.478512    4.950774
 H  -15.531369  -39.430191    5.474925
 H  -15.754872  -38.759283    3.843435
 H  -12.506695  -36.979210    7.253215
 H   -8.851643  -37.627764    6.078060
 H   -6.539752  -35.432216    7.827744
 H   -6.563383  -36.610355    9.150267
 H   -6.386082  -37.161920    7.471788
 H   -9.011611  -35.594952    9.734451
 H   -8.884472  -40.673967    6.739500
 H   -6.661537  -39.881629    7.468613
 H   -7.903982  -39.720734    2.679327
 H   -5.662332  -38.909982    3.411187
 H   -4.422031  -38.013560    5.360819
 H   -4.822687  -41.253525    7.021181
 H   -3.440457  -41.924814    8.950765
 H   -2.551396  -40.287374    8.852290
