60 
5d11_ligand_ani.xyz
 C    0.715770    1.841968    0.044835
 C    2.084007    1.865937   -0.260378
 C    2.787321    0.668667   -0.096727
 N    2.211602   -0.446834    0.356501
 N    0.133958    0.728395    0.520517
 C    0.455953    4.208931   -0.507884
 C   -0.588799    5.114979   -1.144618
 N   -1.792744    5.235723   -0.253224
 C   -2.776631    6.196892   -0.766377
 C   -2.371417    3.865272   -0.038517
 C   -1.341959    2.985974    0.649656
 N   -0.111766    2.918681   -0.137464
 N    4.117808    0.621623   -0.404723
 C    4.947001   -0.488448   -0.420964
 C    4.756443   -1.803992    0.044035
 C    5.993175   -2.410082   -0.268943
 C    6.450089   -3.816840   -0.034811
 N    6.798891   -1.525866   -0.850675
 N    6.157577   -0.326806   -0.947100
 C    0.918478   -0.325706    0.638755
 O    0.366351   -1.471603    1.086201
 C   -0.966919   -1.465524    1.491837
 C   -1.891978   -2.080931    0.663039
 C   -1.312532   -0.917830    2.721087
 C   -2.641093   -1.004273    3.126915
 C   -3.591687   -1.609857    2.316766
 C   -3.223644   -2.146155    1.075951
 N   -4.230198   -2.751517    0.299056
 C   -4.162712   -3.174544   -1.008203
 O   -3.163176   -3.089317   -1.697462
 C   -5.460701   -3.783760   -1.527580
 C   -5.449720   -3.961369   -3.039073
 H    2.603870    2.763191   -0.573748
 H    0.890360    4.716345    0.369165
 H    1.245326    4.049071   -1.239123
 H   -0.920615    4.697745   -2.099942
 H   -0.176943    6.110730   -1.324918
 H   -1.458631    5.573186    0.669946
 H   -2.322749    7.186622   -0.855856
 H   -3.122392    5.879993   -1.756964
 H   -3.638957    6.246538   -0.097202
 H   -2.637566    3.452950   -1.015603
 H   -3.278692    3.951624    0.564236
 H   -1.728403    1.977053    0.778809
 H   -1.132700    3.402962    1.649529
 H    4.562232    1.433429   -0.807971
 H    3.881500   -2.210160    0.502675
 H    6.447106   -4.063617    1.033212
 H    5.794477   -4.538059   -0.536273
 H    7.463481   -3.928576   -0.422209
 H   -1.586262   -2.502536   -0.284969
 H   -0.556538   -0.432374    3.329619
 H   -2.941234   -0.588909    4.085358
 H   -4.626992   -1.663294    2.646293
 H   -5.125339   -2.833275    0.757688
 H   -6.305727   -3.156779   -1.213807
 H   -5.593325   -4.754247   -1.029320
 H   -5.358172   -2.995954   -3.544975
 H   -4.597418   -4.572680   -3.347637
 H   -6.371653   -4.443294   -3.378949
