47 
5d1r_ligand_xtb.xyz
 C    1.474935    0.179884    0.326756
 C    6.197263   -0.107985    0.160264
 C    6.826812   -1.414255   -0.310989
 C   -7.043239   -2.537439    0.252513
 C   -6.608500   -1.364714   -0.617990
 C   -5.796228   -0.341008    0.171848
 C   -5.354249    0.829996   -0.702517
 C   -4.666078    1.949597    0.080064
 C   -3.369883    1.545346    0.784405
 C   -2.278152    1.072279   -0.172740
 C   -0.952936    0.843970    0.550716
 C    0.146638    0.373782   -0.398496
 C    2.585966   -0.264736   -0.625839
 C    3.863127   -0.540437    0.135993
 O    3.936417   -1.199813    1.140275
 O    4.903490    0.055232   -0.447434
 C    7.027541    1.106486   -0.228360
 H    1.365646   -0.571916    1.110294
 H    1.767160    1.117272    0.805399
 H    6.051742   -0.145686    1.247844
 H    6.206904   -2.254698   -0.008361
 H    6.919570   -1.414102   -1.394728
 H    7.812259   -1.528983    0.131186
 H   -6.176084   -3.045971    0.668756
 H   -7.663593   -2.190817    1.076402
 H   -7.615808   -3.256192   -0.329122
 H   -7.491944   -0.878765   -1.038935
 H   -6.007463   -1.734943   -1.452021
 H   -4.921583   -0.837479    0.595455
 H   -6.400176    0.035748    1.001024
 H   -6.235470    1.251857   -1.193424
 H   -4.690228    0.466140   -1.488487
 H   -5.363111    2.329615    0.831467
 H   -4.447759    2.769418   -0.609323
 H   -3.574740    0.762832    1.516726
 H   -2.998979    2.414053    1.334938
 H   -2.137155    1.820791   -0.956375
 H   -2.583879    0.141235   -0.652678
 H   -1.093252    0.098883    1.337091
 H   -0.639396    1.773769    1.031397
 H   -0.154399   -0.567742   -0.863633
 H    0.273847    1.110709   -1.195405
 H    2.782412    0.490563   -1.386679
 H    2.288879   -1.192371   -1.121445
 H    7.144791    1.143535   -1.308305
 H    6.536568    2.019089    0.099396
 H    8.007881    1.046205    0.235058
