34 
5d1s_ligand_ani.xyz
 C   -1.398228    0.995897   -0.276770
 C   -2.872599    0.870192   -0.681050
 O   -4.562265   -0.508390   -1.483446
 N   -1.103538    0.239123    0.941593
 C    1.215178   -0.776099    0.130305
 C    1.936459    0.218869    0.786174
 C    3.174168    0.633030    0.295539
 C    3.633625    0.009547   -0.862409
 C    2.934246   -0.985952   -1.524074
 C    1.703770   -1.387042   -1.016973
 C   -1.979102    0.415860    2.098098
 C   -1.003531    2.458025   -0.119166
 N   -3.218347   -0.309626   -1.222314
 O   -3.704591    1.764494   -0.542224
 S   -0.368412   -1.250306    0.766956
 O   -0.211969   -1.816176    2.097066
 O   -1.050818   -2.026047   -0.270602
 F    4.826859    0.401600   -1.356093
 C    3.992207    1.705191    0.961447
 H   -0.785393    0.554093   -1.073469
 H   -4.940706    0.355129   -1.216530
 H    1.537440    0.675285    1.688549
 H    3.356470   -1.427875   -2.420166
 H    1.119548   -2.162933   -1.501446
 H   -1.522037   -0.082758    2.952506
 H   -2.980021    0.003471    1.924758
 H   -2.060203    1.484766    2.311679
 H    0.045835    2.509575    0.187941
 H   -1.122738    2.976860   -1.073436
 H   -1.626270    2.963824    0.622113
 H   -2.720610   -1.178751   -1.058057
 H    3.499503    2.065280    1.870040
 H    4.141506    2.560656    0.293720
 H    4.983714    1.331252    1.237310
