40 
5d1u_ligand_ani.xyz
 C   -1.297056   -0.168924   -1.049127
 C   -2.747789   -0.647787   -1.160492
 C   -0.905421    3.580219   -0.135613
 O   -4.341293   -2.192359   -0.458507
 N   -1.055168    0.509938    0.232778
 C    1.347176   -0.566873    0.672357
 C    1.995397    0.566653    0.191334
 C    3.260192    0.468435   -0.387648
 C    3.820169   -0.804803   -0.459762
 C    3.192513   -1.944327    0.015111
 C    1.934674   -1.823098    0.593158
 C   -1.453640    2.834904    1.076320
 C   -2.054052    1.472711    0.732430
 C   -0.923991    0.726346   -2.221223
 N   -3.020764   -1.780942   -0.493874
 O   -3.623496   -0.064420   -1.798826
 S   -0.260571   -0.397932    1.400147
 O   -0.176462    0.404148    2.610852
 O   -0.854174   -1.734907    1.473963
 F    5.041909   -0.924029   -1.020905
 C    4.004385    1.662486   -0.918159
 H   -0.641171   -1.047049   -1.061847
 H   -0.130797    2.996655   -0.646486
 H   -0.459650    4.535563    0.159641
 H   -1.698049    3.794218   -0.864997
 H   -4.776406   -1.496929   -0.993975
 H    1.514986    1.538828    0.270435
 H    3.692321   -2.902923   -0.074172
 H    1.404501   -2.687242    0.980679
 H   -0.672369    2.694004    1.830396
 H   -2.246960    3.428867    1.548209
 H   -2.557259    1.050890    1.610496
 H   -2.805860    1.587386   -0.055608
 H   -1.537744    1.631335   -2.243333
 H    0.131005    1.005468   -2.138090
 H   -1.075666    0.190015   -3.161264
 H   -2.492158   -2.096444    0.313651
 H    3.424187    2.578482   -0.772247
 H    4.211447    1.557847   -1.988517
 H    4.967194    1.785886   -0.411483
