40 
5d1u_ligand_dft.xyz
 C   -1.645416   -0.176988   -1.056536
 C   -3.151011   -0.385778   -0.857524
 C    0.198245    3.177910   -0.665739
 O   -4.821565   -1.566242    0.247616
 N   -1.079640    0.521846    0.109430
 C    1.298093   -0.676953    0.552441
 C    2.227243    0.360621    0.617750
 C    3.485119    0.220356    0.043850
 C    3.757823   -0.997235   -0.584059
 C    2.852746   -2.042571   -0.651019
 C    1.598741   -1.881804   -0.070515
 C   -0.584478    2.938314    0.622038
 C   -1.630259    1.828931    0.519474
 C   -1.361386    0.553467   -2.361223
 N   -3.492844   -1.478813   -0.144442
 O   -4.008324    0.371413   -1.308997
 S   -0.318242   -0.419310    1.247712
 O   -0.196359    0.382883    2.451190
 O   -0.959718   -1.735393    1.293720
 F    4.964256   -1.156159   -1.145281
 C    4.524124    1.306360    0.086941
 H   -1.169689   -1.160353   -1.099064
 H    0.744165    2.277810   -0.967560
 H    0.925951    3.985360   -0.535497
 H   -0.467631    3.456949   -1.489995
 H   -5.211801   -0.797227   -0.215650
 H    1.970205    1.283621    1.128746
 H    3.136187   -2.964766   -1.145288
 H    0.869398   -2.683793   -0.084893
 H    0.096678    2.707550    1.447691
 H   -1.114601    3.854352    0.910695
 H   -2.161135    1.728334    1.470580
 H   -2.378336    2.082891   -0.236186
 H   -1.845642    1.531679   -2.385445
 H   -0.283332    0.680199   -2.486130
 H   -1.752875   -0.027593   -3.201005
 H   -2.857022   -1.868245    0.546631
 H    4.130065    2.199302    0.577916
 H    4.846361    1.580883   -0.922396
 H    5.414229    0.977133    0.632581
