50 
5d1w_ligand_ani.xyz
 C    7.829632   -1.366768   -0.014671
 O    8.307851   -2.389464   -0.423341
 O    8.575175   -0.235834    0.022631
 C    6.405059   -1.238076    0.502807
 C    5.598037   -0.089961   -0.109645
 C    4.141919   -0.099734    0.353441
 C    3.316865    1.032128   -0.253830
 C    1.860560    1.045009    0.208726
 C    1.064801    2.209155   -0.382285
 C   -0.374117    2.317588    0.131012
 C   -1.263931    1.127890   -0.230587
 C   -2.718812    1.328695    0.191021
 C   -3.631835    0.169773   -0.203347
 C   -5.090218    0.389388    0.196926
 C   -6.008602   -0.760001   -0.213953
 C   -7.467383   -0.539719    0.181511
 C   -8.386545   -1.686434   -0.236820
 C   -9.842877   -1.454214    0.158557
 H    8.051158    0.492799    0.381633
 H    6.447142   -1.120587    1.596056
 H    5.916343   -2.193812    0.301902
 H    5.639915   -0.159242   -1.204620
 H    6.045758    0.880856    0.153421
 H    4.109525   -0.026273    1.450364
 H    3.686288   -1.066862    0.096504
 H    3.350609    0.958180   -1.351236
 H    3.784127    1.995101    0.000778
 H    1.829484    1.104661    1.307105
 H    1.387227    0.090209   -0.059353
 H    1.053221    2.116064   -1.478810
 H    1.591828    3.147393   -0.160048
 H   -0.825933    3.233301   -0.274850
 H   -0.363032    2.439294    1.224680
 H   -0.876116    0.210846    0.234516
 H   -1.221773    0.961305   -1.317549
 H   -3.101161    2.257136   -0.259404
 H   -2.766307    1.477090    1.280280
 H   -3.264661   -0.760048    0.256017
 H   -3.573734    0.016269   -1.291478
 H   -5.454527    1.323908   -0.255773
 H   -5.151470    0.534385    1.286063
 H   -5.646020   -1.695830    0.237511
 H   -5.945488   -0.903466   -1.303248
 H   -7.829161    0.397474   -0.267465
 H   -7.533131   -0.399967    1.270959
 H   -8.025182   -2.620403    0.215510
 H   -8.316841   -1.824344   -1.324782
 H   -9.941840   -1.342077    1.244732
 H  -10.234794   -0.541180   -0.305065
 H  -10.480983   -2.288113   -0.151847
