50 
5d1w_ligand_dft.xyz
 C    8.005750    0.907007    0.283420
 O    8.864189    0.911664    1.123153
 O    8.284842    1.339953   -0.970287
 C    6.582274    0.427714    0.507495
 C    6.210966   -0.780807   -0.367883
 C    4.847037   -1.382214   -0.018276
 C    3.664064   -0.438017   -0.238825
 C    2.313415   -1.112526    0.002037
 C    1.125502   -0.172308   -0.199981
 C   -0.225286   -0.847456    0.036271
 C   -1.413327    0.093227   -0.163527
 C   -2.764547   -0.581525    0.071388
 C   -3.952415    0.359665   -0.127142
 C   -5.303981   -0.314924    0.106309
 C   -6.491667    0.626788   -0.091095
 C   -7.843546   -0.047576    0.140852
 C   -9.031978    0.894172   -0.055433
 C  -10.377945    0.210256    0.177610
 H    7.495746    1.285685   -1.525052
 H    5.895218    1.262453    0.316926
 H    6.498512    0.166542    1.565087
 H    6.984345   -1.549291   -0.254246
 H    6.209816   -0.498375   -1.430760
 H    4.857966   -1.715108    1.028546
 H    4.700974   -2.284591   -0.625888
 H    3.696663   -0.047375   -1.266707
 H    3.747646    0.432869    0.425286
 H    2.287690   -1.516758    1.023835
 H    2.213403   -1.975619   -0.671109
 H    1.154139    0.235554   -1.220516
 H    1.224256    0.688632    0.476421
 H   -0.253322   -1.256640    1.056165
 H   -0.324885   -1.707611   -0.640963
 H   -1.384543    0.503358   -1.183125
 H   -1.313909    0.952878    0.514440
 H   -2.793075   -0.992432    1.090638
 H   -2.864381   -1.440679   -0.607166
 H   -3.923214    0.771471   -1.146060
 H   -3.852886    1.218276    0.552155
 H   -5.332961   -0.727472    1.124905
 H   -5.403868   -1.173021   -0.573594
 H   -6.461942    1.040157   -1.109392
 H   -6.392019    1.484363    0.589547
 H   -7.873667   -0.461750    1.158910
 H   -7.944077   -0.904820   -0.540256
 H   -9.000810    1.307660   -1.072422
 H   -8.931226    1.749421    0.626159
 H  -10.516599   -0.629320   -0.513407
 H  -10.445837   -0.185589    1.197568
 H  -11.211314    0.905335    0.031828
