34 
5d21_ligand_xtb.xyz
 O   -1.104268   -2.806433   -0.395956
 O   -3.721817   -1.710843   -0.299739
 O   -3.215627    0.518798    1.168832
 O   -0.424120    0.722581    0.241557
 C   -0.154871   -0.567049   -0.233417
 C   -1.336776   -1.500292    0.068505
 C   -2.583770   -0.955518   -0.632143
 C   -2.829867    0.492447   -0.177179
 C   -1.551848    1.321181   -0.371033
 C   -1.678685    2.716783    0.252729
 O   -0.518266    3.473239    0.049749
 O    0.949791   -1.096215    0.418789
 C    2.197042   -0.562242    0.172302
 C    3.263470   -1.245380    0.751474
 C    4.556185   -0.801045    0.558916
 C    4.800168    0.323457   -0.213642
 C    3.739300    1.001523   -0.784059
 C    2.436777    0.567494   -0.595629
 H   -0.244752   -3.089108   -0.060641
 H   -3.489320   -2.641054   -0.410612
 H   -3.862244   -0.192707    1.282568
 H    0.014660   -0.538264   -1.332956
 H   -1.496842   -1.491394    1.157433
 H   -2.412074   -0.982179   -1.720127
 H   -3.625076    0.926289   -0.805639
 H   -1.361890    1.410503   -1.454895
 H   -1.895449    2.591241    1.319459
 H   -2.497717    3.257879   -0.223212
 H    0.217795    2.971324    0.421775
 H    3.055396   -2.118249    1.350028
 H    5.376843   -1.336311    1.012386
 H    5.811048    0.669653   -0.365282
 H    3.917626    1.882787   -1.381965
 H    1.623696    1.122412   -1.035130
