53 
5d25_ligand_dft.xyz
 C    1.996960   56.399917   22.897741
 C    1.582461   55.395119   22.032285
 C    0.764591   54.373068   22.512875
 C    0.324576   54.345786   23.827664
 C    0.711008   55.370843   24.686728
 C    1.542482   56.383601   24.230003
 C    5.574678   60.707069   21.242654
 C    4.471297   60.018171   21.848604
 C    4.459924   58.746839   21.300208
 C    6.173745   59.825672   20.331927
 C    6.115840   62.059073   21.465345
 C    3.655207   57.524066   21.440642
 C    7.343823   59.995377   19.422898
 C    5.549969   62.937606   22.565193
 C    3.703437   51.621557   19.768196
 C    3.272424   52.072102   23.307393
 C    3.465561   60.558710   22.826270
 C    2.817503   52.714041   20.354946
 C    2.257168   51.370749   22.403609
 N    5.489743   58.670758   20.389319
 N    2.825419   57.468316   22.532733
 N    1.797598   52.154749   21.251499
 O    7.035704   62.480171   20.778946
 O    3.765512   56.615593   20.623133
 O    0.062585   53.564754   20.120536
 O   -0.552127   52.154611   22.138636
 O    1.967898   57.416140   25.012064
 S    0.382307   53.011584   21.425450
 H    1.900689   55.414979   20.999571
 H   -0.313538   53.538552   24.168226
 H    0.366916   55.378741   25.718106
 H    7.161648   60.797754   18.703982
 H    8.233853   60.283842   19.987356
 H    7.547449   59.066444   18.880504
 H    6.234976   63.772938   22.719257
 H    4.575642   63.340466   22.265263
 H    5.413588   62.390154   23.502397
 H    4.371025   52.060336   19.020573
 H    4.328981   51.141318   20.527778
 H    3.093324   50.853713   19.283589
 H    3.534044   51.411943   24.140680
 H    4.196701   52.310346   22.771074
 H    2.870676   53.001500   23.721312
 H    3.280191   61.620678   22.661427
 H    2.500156   60.056493   22.717246
 H    3.794204   60.444222   23.867256
 H    3.431557   53.466282   20.871570
 H    2.287703   53.220869   19.547654
 H    1.369842   51.081120   22.969088
 H    2.686827   50.443201   22.010498
 H    5.646536   57.838595   19.837412
 H    2.967725   58.154038   23.259684
 H    1.585992   57.337434   25.894001
