55 
5d26_ligand_xtb.xyz
 C    0.407375   55.146576   24.746807
 C    0.133417   54.084989   23.897518
 C    1.557034   55.063973   22.217849
 C    5.587425   60.335508   21.595384
 C    4.601242   59.594552   22.298572
 C    1.866985   56.113737   23.071875
 C    1.268185   56.154091   24.346189
 C    0.707955   54.061067   22.644591
 C    4.446172   58.395848   21.610269
 C    5.984773   59.577008   20.497167
 C    6.117812   61.686187   21.867652
 C    3.636901   57.183484   21.719158
 C    6.983178   59.877044   19.442676
 C    4.379399   59.423859   24.803376
 C    3.378779   51.362223   19.457235
 C    3.325241   51.999748   23.283704
 C    3.858251   60.063973   23.511155
 C    2.699578   52.465820   20.262975
 C    2.372540   51.198377   22.395747
 N    5.307764   58.420709   20.541913
 N    2.734177   57.148771   22.744858
 N    1.823538   51.929896   21.280585
 O    6.435335   62.465273   20.990135
 O    3.792445   56.269057   20.922042
 O   -0.078950   53.207158   20.287079
 O   -0.473150   51.762709   22.246604
 O    1.575991   57.216969   25.151063
 S    0.373783   52.682160   21.541147
 N    6.231674   62.022884   23.181066
 H   -0.045200   55.190068   25.728039
 H   -0.521928   53.280993   24.188379
 H    1.979110   55.033364   21.229340
 H    6.577793   59.641008   18.460328
 H    7.237243   60.932112   19.478917
 H    7.887925   59.285839   19.588967
 H    3.819501   59.796393   25.657940
 H    4.284243   58.340947   24.777780
 H    5.432449   59.653265   24.956725
 H    3.903157   51.802065   18.613241
 H    4.098372   50.817653   20.063682
 H    2.633746   50.664764   19.084842
 H    3.650834   51.378578   24.114257
 H    4.203881   52.313709   22.725719
 H    2.831824   52.883553   23.680741
 H    3.954576   61.148727   23.581053
 H    2.791096   59.851346   23.402530
 H    3.455246   53.135568   20.693230
 H    2.051461   53.045972   19.605244
 H    1.508854   50.867108   22.974516
 H    2.886819   50.311974   22.012003
 H    5.361527   57.647973   19.893860
 H    2.736759   57.907021   23.410481
 H    1.084104   57.146428   25.977444
 H    6.656984   62.910367   23.394293
 H    6.169775   61.336555   23.910059
