55 
5d26_ligand_dft.xyz
 C    0.541949   55.131147   24.580702
 C    0.276072   54.081657   23.705814
 C    1.685022   55.136716   22.029937
 C    5.588152   60.580829   21.605711
 C    4.608003   59.786828   22.280457
 C    1.970714   56.173231   22.911783
 C    1.385327   56.161540   24.191782
 C    0.855343   54.096156   22.445261
 C    4.444296   58.642455   21.511417
 C    5.969643   59.902014   20.447215
 C    6.163547   61.902451   21.937002
 C    3.640741   57.410817   21.553569
 C    6.924987   60.274725   19.363238
 C    4.468393   59.470352   24.801644
 C    3.228761   51.267696   19.393775
 C    2.732138   51.289727   23.783581
 C    3.879897   60.141631   23.550953
 C    3.124895   52.104777   20.663271
 C    2.058759   50.772418   22.512688
 N    5.281236   58.746157   20.424927
 N    2.794093   57.266310   22.621047
 N    1.934776   51.765433   21.448651
 O    6.667583   62.623341   21.087170
 O    3.755028   56.574825   20.661616
 O    0.568467   53.252597   19.990637
 O   -0.517820   51.951299   21.889197
 O    1.697439   57.220426   24.993910
 S    0.592460   52.716804   21.341791
 N    6.101093   62.303638   23.253855
 H    0.089583   55.146812   25.569303
 H   -0.382964   53.269528   23.990986
 H    2.095216   55.161499   21.030490
 H    6.511450   61.077351   18.746669
 H    7.858563   60.655105   19.782973
 H    7.143020   59.411777   18.726172
 H    3.932121   59.786294   25.701741
 H    4.411482   58.378765   24.740901
 H    5.527744   59.722169   24.928095
 H    4.150323   51.506720   18.852178
 H    3.236805   50.198044   19.629024
 H    2.374065   51.474407   18.745130
 H    2.846874   50.474584   24.505836
 H    3.727256   51.695915   23.573316
 H    2.137680   52.080450   24.250260
 H    3.897995   61.227701   23.676263
 H    2.816069   59.887581   23.461963
 H    4.000022   51.950506   21.304894
 H    3.111473   53.167322   20.410242
 H    1.059504   50.391993   22.731314
 H    2.630925   49.935958   22.094645
 H    5.319195   58.019777   19.722775
 H    2.807681   57.978412   23.334562
 H    1.220809   57.149772   25.829118
 H    6.639753   63.134454   23.456601
 H    6.081364   61.606104   23.981949
