55 
5d26_ligand_ani.xyz
 C    0.545499   55.081501   24.568298
 C    0.208177   54.088723   23.653251
 C    1.660679   55.114627   22.004264
 C    5.605361   60.504991   21.604887
 C    4.614149   59.716003   22.285900
 C    1.992630   56.106542   22.914988
 C    1.431729   56.082672   24.203082
 C    0.778353   54.109563   22.388058
 C    4.333334   58.660724   21.428961
 C    5.836254   59.940682   20.362534
 C    6.334515   61.721583   22.027459
 C    3.476831   57.455498   21.442553
 C    6.741488   60.368772   19.250954
 C    4.678673   59.456710   24.836689
 C    3.828824   51.165093   20.094830
 C    2.663410   51.374105   23.529775
 C    3.965561   60.043844   23.614424
 C    2.914265   52.296843   20.547936
 C    1.868899   50.861910   22.331615
 N    5.065510   58.832928   20.283636
 N    2.875592   57.165033   22.629314
 N    1.710916   51.806722   21.226823
 O    6.924369   62.433999   21.226107
 O    3.362292   56.787851   20.419696
 O    0.302615   53.396615   19.905046
 O   -0.719171   52.050201   21.791158
 O    1.812979   57.097429   25.043544
 S    0.386313   52.809859   21.232310
 N    6.380920   62.011359   23.368573
 H    0.112323   55.075726   25.566092
 H   -0.480983   53.292594   23.917610
 H    2.092946   55.139793   21.010002
 H    6.507327   61.393171   18.950922
 H    7.777956   60.386961   19.599371
 H    6.668117   59.705350   18.381771
 H    4.212649   59.810109   25.762193
 H    4.640506   58.361579   24.846890
 H    5.740925   59.726534   24.866086
 H    4.618924   51.565086   19.452705
 H    4.315517   50.662444   20.937299
 H    3.264454   50.423900   19.519748
 H    2.718211   50.588308   24.290056
 H    3.689232   51.644023   23.255852
 H    2.187160   52.248933   23.983428
 H    3.890467   61.134041   23.719192
 H    2.915867   59.717823   23.615013
 H    3.467046   52.998694   21.194140
 H    2.572681   52.862639   19.675960
 H    0.863757   50.560221   22.633859
 H    2.353748   49.971425   21.916792
 H    4.962089   58.189020   19.511291
 H    3.097603   57.752957   23.415002
 H    1.366385   56.984396   25.891594
 H    6.776475   62.910533   23.601301
 H    5.752649   61.588357   24.029166
