78 
5d3c_ligand_ani.xyz
 C   -6.062470   -1.146297   -0.010290
 C   -4.797937   -1.610684   -0.332831
 C   -1.966829   -2.566381   -1.099157
 C   -5.693731    0.793297   -1.376465
 C   -3.960127   -0.872293   -1.170194
 O    6.803430   -0.688916   -0.346536
 C    6.429272   -0.925201    0.776637
 O    5.646680   -1.972004    1.096483
 C    6.772320   -0.068832    1.976488
 C    6.420329    1.408537    1.754276
 C    4.918216    1.655648    1.538178
 C    4.636095    3.154769    1.729422
 N    4.179118    3.498187    2.955759
 O    4.896074    4.000542    0.879979
 N    4.506537    1.199012    0.226796
 C    3.221892    0.865267   -0.061404
 O    2.313731    0.932511    0.762881
 C    2.956568    0.353181   -1.500870
 C    2.213058    1.409102   -2.342921
 C    3.125963    2.326475   -3.173853
 C    4.173125    2.926178   -2.275928
 O    5.303630    2.483102   -2.183713
 O    3.701958    3.916529   -1.528929
 N    2.116999   -0.826172   -1.435180
 C    2.588995   -2.016876   -1.014046
 O    3.795265   -2.214758   -0.858319
 C    1.582739   -3.111867   -0.662098
 C    1.074753   -2.871204    0.775043
 C    2.262655   -2.924578    1.714673
 N    2.544083   -1.752919    2.330234
 O    3.706641   -1.668064    3.067756
 O    2.927511   -3.939107    1.876713
 C    0.462792   -3.394820   -1.694945
 C   -0.738284   -2.501055   -1.681460
 O   -0.657056   -1.358517   -2.389772
 N   -1.825591   -0.644976   -2.274172
 C   -2.610793   -1.358718   -1.502114
 C   -4.423241    0.340299   -1.688941
 C   -6.533352    0.063555   -0.529000
 C   -7.886903    0.561812   -0.184234
 C   -8.344908    0.498128    1.135251
 C   -8.724567    1.102240   -1.164131
 C   -9.993787    1.561896   -0.833838
 C  -10.446825    1.508717    0.480773
 C   -9.607483    0.978545    1.453935
Cl  -10.155974    0.908808    3.105779
 H   -6.704705   -1.739921    0.634905
 H   -4.456105   -2.555147    0.081173
 H   -2.350567   -3.357504   -0.471059
 H   -6.036195    1.743693   -1.779406
 H    5.200750   -2.280482    0.274111
 H    6.263308   -0.455974    2.865357
 H    7.852604   -0.159812    2.136769
 H    6.968387    1.802087    0.890319
 H    6.748385    1.978858    2.630559
 H    4.345628    1.081255    2.278443
 H    3.902478    4.459288    3.094574
 H    3.817995    2.808572    3.595196
 H    5.170581    1.311670   -0.531370
 H    3.907212    0.073006   -1.970749
 H    1.583080    2.002915   -1.668652
 H    1.544068    0.879498   -3.030722
 H    3.640000    1.746640   -3.944477
 H    2.535176    3.112212   -3.653133
 H    4.347691    4.093747   -0.804466
 H    1.125265   -0.642296   -1.412621
 H    2.208541   -4.004992   -0.614890
 H    0.536065   -1.922365    0.872275
 H    0.396863   -3.682047    1.059985
 H    2.241479   -0.853033    1.962825
 H    4.362683   -2.162931    2.530685
 H    0.108674   -4.413795   -1.497643
 H    0.896301   -3.400695   -2.700519
 H   -3.784293    0.922382   -2.344818
 H   -7.705123    0.100597    1.918276
 H   -8.382474    1.142773   -2.195537
 H  -10.635270    1.974678   -1.607104
 H  -11.433057    1.871871    0.751330
