59 
5d3l_ligand_ani.xyz
 C   15.343270  -10.138500   -4.879098
 C   16.062411  -10.283291   -6.224469
 C   15.263422   -9.808485   -7.418028
 C   14.344752  -10.593548   -8.204253
 C   13.852747   -9.788193   -9.222595
 C   19.531415   -2.770704   -4.272737
 C   15.255500   -8.546254   -7.990923
 C   15.895173   -7.237672   -7.732403
 C   17.256532   -6.005981   -6.050650
 C   17.371133   -4.799273   -6.718074
 C   18.097670   -3.755080   -6.154623
 C   18.730691   -3.868587   -4.908754
 C   18.596060   -5.097676   -4.252557
 C   17.880838   -6.146848   -4.803300
 C   13.883989  -11.990301   -8.080024
 C   12.885942  -10.067017  -10.331991
 C   14.494324  -12.919448   -7.055254
 C   19.923328   -0.133604   -9.010363
 C   21.965840   -2.927560   -8.221239
 C   20.204316   -0.621995   -7.593079
 C   20.444265   -3.037526   -8.186513
 N   14.421785   -8.571890   -9.075521
 N   16.550777   -7.119727   -6.544369
 N   19.834539   -2.021048   -7.307118
 O   13.004095  -12.418729   -8.813819
 O   15.794093   -6.341783   -8.563891
 O   17.683596   -1.145070   -6.276029
 O   17.555748   -2.500710   -8.392553
 O   17.732597   -7.364646   -4.188225
 S   18.174032   -2.245618   -7.096136
 H   15.949331  -10.559661   -4.070681
 H   15.132290   -9.092037   -4.630346
 H   14.379966  -10.660121   -4.886467
 H   16.335634  -11.332489   -6.369413
 H   17.032416   -9.766646   -6.184454
 H   18.978818   -1.826808   -4.270882
 H   19.781534   -3.033580   -3.240542
 H   20.464634   -2.600382   -4.819355
 H   16.889356   -4.673456   -7.677863
 H   19.069300   -5.226034   -3.279170
 H   13.233235  -10.908072  -10.938129
 H   11.917275  -10.369282   -9.925194
 H   12.747093   -9.192568  -10.978709
 H   13.970678  -13.875442   -7.102586
 H   15.558915  -13.080193   -7.257580
 H   14.408209  -12.507016   -6.045787
 H   20.152903    0.933821   -9.083210
 H   20.535699   -0.656982   -9.753110
 H   18.870806   -0.278795   -9.272541
 H   22.391922   -3.797438   -8.729947
 H   22.306735   -2.036089   -8.756964
 H   22.365357   -2.899547   -7.201962
 H   21.270807   -0.534788   -7.360409
 H   19.669422   -0.010055   -6.863042
 H   20.020054   -2.971536   -9.198080
 H   20.166619   -4.018480   -7.786141
 H   14.320861   -7.753670   -9.660948
 H   16.493246   -7.896055   -5.907117
 H   18.202003   -7.344834   -3.344784
