59 
5d3l_ligand_dft.xyz
 C   15.191508   -9.942075   -4.854212
 C   16.004378  -10.226878   -6.125723
 C   15.283211   -9.829836   -7.387348
 C   14.429021  -10.637002   -8.214883
 C   13.984981   -9.830344   -9.273293
 C   19.601554   -2.788310   -4.251283
 C   15.308983   -8.571799   -7.968040
 C   15.937988   -7.263168   -7.710407
 C   17.273138   -5.996533   -6.037687
 C   17.368320   -4.769445   -6.684899
 C   18.114288   -3.738608   -6.114234
 C   18.781623   -3.878506   -4.889691
 C   18.664765   -5.115054   -4.254580
 C   17.929009   -6.152963   -4.807726
 C   14.000202  -12.043112   -8.108763
 C   13.091395  -10.123278  -10.431053
 C   14.499025  -12.926328   -6.980357
 C   19.957370    0.053753   -8.764508
 C   21.691987   -3.198024   -8.511344
 C   20.303197   -0.711007   -7.488522
 C   20.180183   -3.015975   -8.475102
 N   14.526278   -8.614385   -9.098904
 N   16.564934   -7.110969   -6.504033
 N   19.773337   -2.080637   -7.416305
 O   13.237890  -12.520326   -8.937643
 O   15.864243   -6.375778   -8.554161
 O   17.858952   -1.094930   -6.104016
 O   17.328757   -2.365975   -8.210441
 O   17.796011   -7.372160   -4.211280
 S   18.145209   -2.196432   -7.014622
 H   15.743556  -10.250598   -3.960980
 H   14.955235   -8.876820   -4.756359
 H   14.237914  -10.479137   -4.874527
 H   16.259348  -11.287081   -6.157899
 H   16.971972   -9.713506   -6.072639
 H   18.984748   -1.913519   -4.031203
 H   20.056467   -3.143886   -3.322817
 H   20.395957   -2.459544   -4.928466
 H   16.865810   -4.616203   -7.630653
 H   19.165308   -5.270480   -3.300802
 H   13.482785  -10.954813  -11.021736
 H   12.100303  -10.429806  -10.087632
 H   12.992593   -9.240921  -11.071617
 H   13.973705  -13.880707   -7.041724
 H   15.574853  -13.108346   -7.082210
 H   14.324543  -12.476559   -5.998360
 H   20.370585    1.066186   -8.712450
 H   20.372053   -0.430595   -9.654761
 H   18.873450    0.131142   -8.891188
 H   21.945675   -4.001988   -9.208736
 H   22.208450   -2.294298   -8.849550
 H   22.071651   -3.465199   -7.520118
 H   21.388341   -0.789726   -7.368777
 H   19.924653   -0.179260   -6.614192
 H   19.801594   -2.697105   -9.454624
 H   19.712160   -3.980038   -8.254754
 H   14.425786   -7.804736   -9.696527
 H   16.529447   -7.879966   -5.853416
 H   18.249323   -7.371411   -3.360224
