49 
5d3n_ligand_ani.xyz
 C   -5.935525    9.919000   -1.484516
 C   -5.137990   10.172468   -0.373046
 C   -6.788986    9.070622    1.009436
 C  -12.447702    5.674926    0.743673
 C  -11.542280    6.673806    0.237487
 C   -7.553596    8.786808   -0.117355
 C   -7.143706    9.232930   -1.389601
 C   -5.580654    9.736046    0.868374
 C  -10.365027    6.501082    0.946531
 C  -11.795027    4.971765    1.747033
 C  -13.833839    5.329382    0.373717
 C   -9.029320    7.133106    0.983428
 C  -12.251297    3.846375    2.623475
 C  -14.472645    5.934853   -0.855769
 C  -11.353729    7.341264   -2.227710
 C  -11.821830    7.719841   -0.820012
 C   -4.874634    7.485721    3.278196
 N  -10.549901    5.486572    1.846445
 N   -8.759271    8.062934    0.021521
 N   -3.984401    8.481988    2.696357
 O  -14.481376    4.544520    1.052082
 O   -8.225864    6.790272    1.846872
 O   -3.414950   10.768647    1.898317
 O   -5.423859   10.382806    3.406858
 C   -7.953657    8.958931   -2.632903
 S   -4.564226    9.981560    2.306609
 H   -5.606094   10.262413   -2.462948
 H   -4.191016   10.697360   -0.448785
 H   -7.138351    8.751578    1.985413
 H  -12.583925    3.001259    2.014530
 H  -11.457620    3.508726    3.300339
 H  -13.119970    4.151991    3.212703
 H  -15.359472    5.351736   -1.109014
 H  -14.778481    6.968267   -0.655903
 H  -13.783297    5.947871   -1.704226
 H  -11.512724    8.169968   -2.925498
 H  -10.290982    7.076767   -2.253583
 H  -11.898926    6.472867   -2.611545
 H  -11.362482    8.674752   -0.526669
 H  -12.892854    7.941768   -0.846218
 H   -4.258152    6.682195    3.687969
 H   -5.425789    7.956819    4.095030
 H   -5.592334    7.054797    2.565287
 H   -9.809603    5.233355    2.486635
 H   -9.440437    8.170723   -0.709993
 H   -3.288721    8.154937    2.039489
 H   -8.002816    7.886703   -2.863380
 H   -8.983374    9.333494   -2.557851
 H   -7.496289    9.449430   -3.497281
