49 
5d3n_ligand_xtb.xyz
 C   -5.789900    9.672334   -1.521347
 C   -5.100888   10.056157   -0.382742
 C   -6.834026    9.084766    0.974096
 C  -12.433564    5.664379    0.649935
 C  -11.531570    6.682110    0.219423
 C   -7.502952    8.662996   -0.171135
 C   -6.984459    8.970418   -1.438783
 C   -5.640009    9.761639    0.852412
 C  -10.329127    6.444013    0.868973
 C  -11.736746    4.855155    1.559116
 C  -13.830916    5.374157    0.320082
 C   -9.005103    7.063666    0.933429
 C  -12.184802    3.660088    2.307798
 C  -14.668041    6.434050   -0.358539
 C  -11.532724    7.302251   -2.201981
 C  -11.782101    7.779073   -0.766745
 C   -4.906754    7.752518    3.355261
 N  -10.502516    5.351026    1.683684
 N   -8.698110    7.947375   -0.067658
 N   -4.037151    8.784156    2.842483
 O  -14.328056    4.304251    0.615249
 O   -8.223540    6.756425    1.820166
 O   -3.671377   11.084674    1.978755
 O   -5.671953   10.604884    3.352347
 C   -7.704249    8.545519   -2.685264
 S   -4.743472   10.205286    2.339838
 H   -5.387912    9.911835   -2.494629
 H   -4.167565   10.592771   -0.431418
 H   -7.242633    8.896907    1.951538
 H  -12.283562    2.810901    1.632442
 H  -11.475307    3.413729    3.094989
 H  -13.169901    3.831631    2.736156
 H  -15.696039    6.081471   -0.404149
 H  -14.632768    7.363434    0.204765
 H  -14.315964    6.612121   -1.370923
 H  -11.664718    8.121726   -2.905231
 H  -10.527514    6.900560   -2.317741
 H  -12.229239    6.508939   -2.462520
 H  -11.139698    8.631483   -0.533627
 H  -12.807782    8.131272   -0.684855
 H   -4.322298    7.047507    3.945636
 H   -5.624136    8.251269    4.003138
 H   -5.447635    7.210033    2.572695
 H   -9.763928    5.022094    2.289114
 H   -9.295169    7.956699   -0.878722
 H   -3.330962    8.472262    2.195223
 H   -7.865027    7.467415   -2.692501
 H   -8.672975    9.040642   -2.764119
 H   -7.122163    8.807933   -3.564114
