54 
5d3s_ligand_ani.xyz
 C   15.772925  -10.746290   -4.755998
 C   16.027705  -10.903234   -6.258053
 O   19.492683   -1.612180   -9.399051
 C   14.839584  -10.583480   -7.139871
 C   13.962159  -11.521092   -7.790622
 C   13.068005  -10.803772   -8.572237
 C   14.400870   -9.329207   -7.533939
 C   14.771584   -7.919392   -7.274437
 C   16.349399   -6.486575   -5.965540
 C   15.961652   -5.265053   -6.510019
 C   16.548612   -4.092628   -6.052348
 C   17.513536   -4.136562   -5.055836
 C   17.907657   -5.345084   -4.504982
 C   17.323136   -6.519922   -4.962564
 C   17.460293   -2.871951   -9.012037
 C   18.267576   -2.014369   -9.976292
 C   18.545152   -1.651128   -7.171929
 C   19.294292   -0.848958   -8.226535
 C   11.962826  -11.258474   -9.474150
 C   13.885996  -12.993753   -7.730869
 C   14.595738  -13.752571   -6.630708
 N   13.347997   -9.494599   -8.393210
 N   15.793958   -7.711326   -6.396177
 N   17.296692   -2.122871   -7.768155
 O   13.236536  -13.618221   -8.557377
 O   14.155458   -7.024570   -7.841638
 O   14.897576   -2.797005   -7.603514
 O   16.011787   -1.552252   -5.700031
 S   16.048830   -2.541994   -6.755900
 F   18.085280   -3.003584   -4.623459
 H   16.687228  -10.947062   -4.188590
 H   15.425219   -9.742251   -4.487051
 H   15.005623  -11.446820   -4.408667
 H   16.363859  -11.925613   -6.455771
 H   16.888022  -10.285196   -6.554959
 H   15.203691   -5.224959   -7.280001
 H   18.665525   -5.348570   -3.728712
 H   17.628703   -7.469411   -4.530417
 H   16.469115   -3.077585   -9.424075
 H   17.974249   -3.826455   -8.827572
 H   17.673864   -1.134008  -10.269350
 H   18.514845   -2.580041  -10.879226
 H   19.162307   -2.497494   -6.843086
 H   18.307041   -1.030228   -6.305377
 H   20.286447   -0.568801   -7.861144
 H   18.735904    0.072270   -8.457147
 H   12.359421  -11.896915  -10.267979
 H   11.250471  -11.875916   -8.919712
 H   11.428629  -10.412979   -9.923281
 H   14.118312  -14.727397   -6.517469
 H   15.646819  -13.912412   -6.899303
 H   14.566985  -13.212641   -5.680424
 H   12.896021   -8.689120   -8.804670
 H   16.201207   -8.531300   -5.982539
