48 
5d3t_ligand_dft.xyz
 C   10.942402    6.129399    2.481453
 C   11.281376    6.700970    1.099011
 C   11.236215    5.645748    0.028680
 C   12.249849    4.714390   -0.385689
 C   11.689019    3.891420   -1.366530
 C    6.410479    7.921328   -1.984970
 C    6.648942    6.444431   -1.744502
 C    6.865393    8.866988   -1.060706
 C    4.800537   10.242020   -4.561034
 C   12.251950    2.740368   -2.130721
 C   13.650641    4.540509    0.040095
 C   14.275280    5.509728    1.023050
 C   10.114859    5.366172   -0.724198
 C    8.775894    5.981175   -0.658476
 N   10.420571    4.309744   -1.565304
 N    8.054359    6.055096   -1.831020
 O   14.324974    3.624941   -0.410594
 O    8.308925    6.362866    0.411192
 C    5.743662    8.358725   -3.126987
 C    5.520790    9.720476   -3.351653
 C    5.961216   10.649894   -2.411477
 C    6.638335   10.221865   -1.274479
 O    4.263858   11.336011   -4.573102
 N    4.761133    9.404052   -5.647804
 C    8.653834    6.171310   -3.149719
 H   11.022277    6.904389    3.250791
 H    9.917158    5.750760    2.474248
 H   11.610900    5.305181    2.753870
 H   12.259612    7.188031    1.117747
 H   10.546539    7.474908    0.861010
 H    6.298981    6.161836   -0.750369
 H    6.094342    5.854583   -2.485115
 H    7.384885    8.521795   -0.171649
 H   13.150295    3.039550   -2.676082
 H   12.556703    1.937693   -1.454841
 H   11.515389    2.349911   -2.841665
 H   15.292358    5.175451    1.233583
 H   14.308937    6.518537    0.596859
 H   13.706582    5.563111    1.956059
 H    9.756760    3.848950   -2.168735
 H    5.358001    7.620620   -3.827589
 H    5.761022   11.701506   -2.587696
 H    6.984198   10.948522   -0.545624
 H    4.387025    9.813988   -6.491486
 H    5.473077    8.701072   -5.769124
 H    9.741310    6.178288   -3.080785
 H    8.339795    5.348162   -3.805692
 H    8.340364    7.114531   -3.612228
