52 
5d45_ligand_ani.xyz
 C    1.296120    0.332640   -0.261740
 C   -0.310625    4.190687    1.497449
 C   -0.500597    2.165578    0.172076
 C   -1.564140    2.758680   -0.520158
 C   -1.980069    4.048931   -0.221759
 C    3.603581   -1.173722   -0.645681
 C   -1.358039    4.771696    0.790634
 C   -0.541384   -2.745691   -0.878178
 C   -0.287504   -3.614310    0.353979
 C    5.029637    0.857921   -0.131244
 C    6.205899    0.509516   -1.007315
 O   -0.316768   -3.534756    2.727157
 C   -0.834172   -3.165576    1.705219
 O   -1.946480   -2.407373    1.762009
 N   -0.097530   -1.372256   -0.741221
 C   -0.874801   -0.260783   -0.495219
 C   -2.349370   -0.294869   -0.611786
 C   -2.989033   -0.700248   -1.790080
 C   -4.377565   -0.690062   -1.884649
 C   -5.150693   -0.274690   -0.804535
 C   -4.527698    0.152029    0.364677
 C   -3.138741    0.158285    0.451267
 C   -0.058892    0.811289   -0.163966
 C    0.115626    2.906696    1.188538
 C    1.226428   -1.017846   -0.617763
 C    2.556633    0.931795   -0.120193
 C    3.707927    0.190231   -0.301103
 C    2.379174   -1.787172   -0.809063
 C    6.215375    0.122510    0.438168
 H    0.182295    4.739040    2.295333
 H   -2.071099    2.195847   -1.301080
 H   -2.801790    4.491203   -0.778793
 H    4.505762   -1.762867   -0.790963
 H   -1.689072    5.779374    1.027386
 H   -1.600340   -2.750414   -1.136158
 H   -0.008607   -3.183614   -1.727655
 H    0.785768   -3.751516    0.507022
 H   -0.702327   -4.613211    0.167645
 H    4.951294    1.907076    0.149680
 H    6.854732    1.317161   -1.331756
 H    6.066655   -0.276677   -1.745324
 H   -2.235700   -2.077959    0.896955
 H   -2.388066   -1.021514   -2.638049
 H   -4.852337   -1.019399   -2.804526
 H   -6.235022   -0.276610   -0.875548
 H   -5.120250    0.479495    1.212918
 H   -2.651494    0.516448    1.357494
 H    0.925407    2.463117    1.765096
 H    2.640578    1.990599    0.118367
 H    2.319282   -2.837502   -1.079196
 H    6.083637   -0.927970    0.685967
 H    6.870920    0.661645    1.114937
