52 
5d45_ligand_dft.xyz
 C    1.273835    0.300871   -0.288157
 C   -0.294424    4.119447    1.556836
 C   -0.484479    2.166006    0.130417
 C   -1.424166    2.854155   -0.645974
 C   -1.799804    4.152271   -0.320012
 C    3.575805   -1.203671   -0.667217
 C   -1.234869    4.791127    0.780964
 C   -0.599028   -2.764602   -0.866149
 C   -0.300653   -3.590807    0.391063
 C    5.012914    0.815498   -0.134077
 C    6.205040    0.440552   -0.984155
 O   -0.203342   -3.235003    2.752088
 C   -0.812434   -3.069487    1.730067
 O   -2.022704   -2.477119    1.757489
 N   -0.131547   -1.394956   -0.797380
 C   -0.900361   -0.269406   -0.506825
 C   -2.373155   -0.286155   -0.591887
 C   -3.023991   -0.702141   -1.761293
 C   -4.412708   -0.692370   -1.839416
 C   -5.169159   -0.257171   -0.754212
 C   -4.531360    0.166823    0.408900
 C   -3.143427    0.150955    0.492736
 C   -0.078435    0.786976   -0.194822
 C    0.074934    2.817176    1.236461
 C    1.200985   -1.054000   -0.657505
 C    2.528172    0.905588   -0.132849
 C    3.684471    0.160530   -0.313749
 C    2.352483   -1.822614   -0.846007
 C    6.184259    0.075973    0.470424
 H    0.148132    4.607038    2.420647
 H   -1.857701    2.365090   -1.513265
 H   -2.531371    4.669988   -0.933724
 H    4.477568   -1.793015   -0.811077
 H   -1.525748    5.806846    1.032111
 H   -1.669664   -2.748594   -1.085793
 H   -0.124392   -3.255903   -1.722986
 H    0.775282   -3.719465    0.520264
 H   -0.727705   -4.592751    0.251470
 H    4.942700    1.868082    0.128382
 H    6.866539    1.238156   -1.308330
 H    6.068538   -0.350402   -1.716422
 H   -2.378551   -2.316725    0.872258
 H   -2.432094   -1.013248   -2.618179
 H   -4.903632   -1.014861   -2.752681
 H   -6.253112   -0.247141   -0.815542
 H   -5.115624    0.506452    1.258342
 H   -2.642328    0.469319    1.400789
 H    0.791618    2.286982    1.857512
 H    2.592651    1.959297    0.125808
 H    2.302110   -2.868246   -1.135251
 H    6.031428   -0.965588    0.739145
 H    6.831877    0.621201    1.150188
