52 
5d45_ligand_xtb.xyz
 C    1.415887    0.168568   -0.255085
 C    0.099430    4.173320    1.276151
 C   -0.222189    2.146955    0.011506
 C   -1.172075    2.806802   -0.766040
 C   -1.480699    4.131408   -0.522581
 C    3.593573   -1.524513   -0.434822
 C   -0.845329    4.820371    0.497327
 C   -0.675676   -2.763528   -0.706262
 C   -0.741821   -3.362581    0.715121
 C    5.151786    0.408830   -0.038380
 C    6.324117   -0.129770   -0.815437
 O   -1.344702   -1.812357    2.447013
 C   -1.695354   -2.566302    1.589893
 O   -3.002090   -2.762664    1.332918
 N   -0.095274   -1.452773   -0.696299
 C   -0.780806   -0.269445   -0.497520
 C   -2.237807   -0.184525   -0.572348
 C   -2.929582   -0.631244   -1.697203
 C   -4.308768   -0.540313   -1.751326
 C   -5.011581   -0.000708   -0.687534
 C   -4.329182    0.458199    0.427692
 C   -2.952127    0.369844    0.487600
 C    0.106966    0.747298   -0.230690
 C    0.409267    2.847756    1.037259
 C    1.245367   -1.207765   -0.524116
 C    2.699231    0.688877   -0.113071
 C    3.792303   -0.155785   -0.198202
 C    2.336313   -2.061940   -0.605064
 C    6.244468   -0.359241    0.657684
 H    0.593472    4.703867    2.077734
 H   -1.662459    2.276582   -1.569550
 H   -2.218952    4.630804   -1.133771
 H    4.447254   -2.182562   -0.494079
 H   -1.087159    5.856312    0.685529
 H   -1.679307   -2.705982   -1.137275
 H   -0.063288   -3.413354   -1.338936
 H    0.250088   -3.319944    1.166570
 H   -1.068110   -4.403694    0.659744
 H    5.146825    1.479954    0.127769
 H    7.050921    0.575763   -1.189016
 H    6.152975   -0.964263   -1.478093
 H   -3.156689   -3.383655    0.609662
 H   -2.381187   -1.020515   -2.545302
 H   -4.834591   -0.885979   -2.630146
 H   -6.088526    0.067297   -0.731417
 H   -4.874358    0.883079    1.256851
 H   -2.416584    0.711993    1.359305
 H    1.126632    2.337162    1.662453
 H    2.839207    1.746593    0.054396
 H    2.217442   -3.118014   -0.800973
 H    6.016610   -1.352216    1.013819
 H    6.916777    0.186939    1.302053
