32 
5d6p_ligand_ani.xyz
 C   -7.491232    4.807723    0.378189
 C   -5.490814    3.732297    1.217766
 C   -4.356488    3.316755    1.995108
 C   -4.001585    3.587868    3.306574
 C   -2.785990    2.912859    3.565505
 C   -2.427855    2.254155    2.411947
 N   -3.382545    2.494905    1.474243
 C   -6.099096    3.125282    0.135103
 C   -8.891890    6.784953    0.738970
 C   -5.678922    1.852457   -0.535457
 O   -8.193603    7.212726    1.642353
 N   -9.998793    7.425135    0.241142
 C  -10.484166    8.621752    0.917310
 C  -11.215480    8.336957    2.225741
 N   -8.597255    5.588014    0.091225
 S   -6.403256    5.147549    1.676570
 N   -7.231524    3.751627   -0.331702
 O   -4.379993    2.007807   -1.123783
 H   -4.557303    4.202396    4.004989
 H   -2.229251    2.909898    4.492675
 H   -1.570860    1.633740    2.191745
 H   -3.375268    2.230752    0.496532
 H   -6.430834    1.619591   -1.296988
 H   -5.645471    1.034616    0.200849
 H  -10.687103    6.867143   -0.241479
 H   -9.612097    9.251332    1.108661
 H  -11.131134    9.155475    0.214208
 H  -11.554513    9.270749    2.686521
 H  -12.090369    7.697685    2.062422
 H  -10.543456    7.832650    2.926374
 H   -9.105265    5.294690   -0.732383
 H   -4.223587    1.266462   -1.722930
