32 
5d6p_ligand_dft.xyz
 C   -7.472516    4.844169    0.403858
 C   -5.525172    3.700932    1.288125
 C   -4.345180    3.280127    2.021680
 C   -3.981571    3.454613    3.344990
 C   -2.715603    2.844435    3.520789
 C   -2.343232    2.317718    2.303624
 N   -3.333304    2.584104    1.404969
 C   -6.131792    3.114226    0.211359
 C   -8.862470    6.840210    0.728596
 C   -5.709238    1.828468   -0.428374
 O   -8.176084    7.284301    1.635153
 N   -9.967454    7.475264    0.225806
 C  -10.491557    8.648188    0.911865
 C  -11.313583    8.310417    2.152899
 N   -8.563034    5.641902    0.101332
 S   -6.363616    5.174434    1.703369
 N   -7.235635    3.772170   -0.288393
 O   -4.488163    2.024742   -1.153840
 H   -4.576854    3.949789    4.100158
 H   -2.143376    2.792946    4.436277
 H   -1.454019    1.780066    2.009195
 H   -3.345612    2.367091    0.412066
 H   -6.508156    1.505669   -1.104487
 H   -5.562223    1.059110    0.343354
 H  -10.632547    6.922717   -0.295548
 H   -9.634120    9.266477    1.184695
 H  -11.088315    9.210569    0.187051
 H  -11.689590    9.224897    2.623072
 H  -12.173846    7.680754    1.899279
 H  -10.693025    7.779194    2.879879
 H   -9.056791    5.347911   -0.729725
 H   -4.289322    1.200392   -1.615071
