49 
5d7a_ligand_xtb.xyz
 C  306.036694  -55.840507  -11.072184
 C  307.323377  -55.361265  -11.421457
 C  305.334904  -56.471979  -12.124346
 C  307.073334  -56.130460  -13.545005
 C  306.331874  -55.024555   -8.844452
 C  307.605093  -54.532845   -9.177202
 C  305.549724  -55.663977   -9.764153
 C  310.989616  -55.244530  -15.310412
 C  312.963319  -54.680264  -15.856996
 N  305.820586  -56.615465  -13.322715
 O  309.322201  -54.282098  -10.895530
 N  307.820132  -55.519166  -12.655702
 C  308.119277  -54.686086  -10.444528
 C  309.652304  -52.032421  -10.015268
 C  310.168965  -53.475052  -10.096927
 C  309.641195  -51.387692  -11.397524
 C  311.048512  -51.386296  -11.998544
 C  311.544923  -52.824155  -12.114245
 C  311.553164  -53.508577  -10.752075
 C  308.858502  -56.186941  -16.776007
 N  307.512082  -56.321657  -14.813539
 C  308.739702  -55.998205  -15.386322
 C  310.024236  -55.905237  -17.454945
 C  311.090232  -55.428544  -16.709939
 C  309.808179  -55.526402  -14.637516
 N  312.372415  -55.054837  -17.028966
 N  312.188646  -54.780092  -14.826234
 O  311.072964  -50.808259  -13.287940
 H  304.338218  -56.866528  -11.959646
 H  305.975868  -54.881781   -7.834657
 H  308.173975  -54.034286   -8.407210
 H  304.568228  -56.035230   -9.509314
 H  313.979996  -54.338885  -15.816074
 H  310.304471  -51.468860   -9.344287
 H  308.642696  -52.020692   -9.599646
 H  310.241273  -53.900803   -9.083609
 H  309.258976  -50.364728  -11.323990
 H  308.983483  -51.954812  -12.059261
 H  311.721354  -50.815645  -11.331024
 H  310.890286  -53.364037  -12.795930
 H  312.544002  -52.832741  -12.547708
 H  311.859761  -54.546976  -10.876621
 H  312.261838  -53.013977  -10.084201
 H  308.005821  -56.562306  -17.324173
 H  306.827086  -56.755315  -15.417216
 H  310.097447  -56.051841  -18.522346
 H  309.718225  -55.381891  -13.575882
 H  312.786446  -55.051281  -17.945501
 H  310.627397  -49.954821  -13.254030
