49 
5d7a_ligand_dft.xyz
 C  306.111353  -55.751152  -11.016762
 C  307.145688  -55.021296  -11.645249
 C  305.822968  -57.012267  -11.605448
 C  307.425671  -56.682459  -13.178052
 C  305.770775  -53.987081   -9.422052
 C  306.812531  -53.252897  -10.031828
 C  305.424858  -55.226141   -9.899037
 C  310.623996  -55.107702  -15.844027
 C  312.180067  -54.084193  -16.873910
 N  306.445756  -57.487285  -12.648657
 O  308.452793  -52.979574  -11.715029
 N  307.789999  -55.501161  -12.738276
 C  307.502307  -53.743476  -11.117867
 C  310.362611  -53.375514  -10.247239
 C  309.812333  -53.465599  -11.671686
 C  310.479103  -51.924741   -9.772693
 C  311.311197  -51.084902  -10.744062
 C  310.723727  -51.149029  -12.147901
 C  310.609980  -52.595588  -12.635693
 C  309.723851  -57.714426  -15.895940
 N  308.036517  -57.240447  -14.265989
 C  309.107115  -56.766104  -15.043961
 C  310.779454  -57.381934  -16.724819
 C  311.224612  -56.062182  -16.681635
 C  309.548945  -55.446957  -15.018872
 N  312.228007  -55.372744  -17.335753
 N  311.246822  -53.875593  -15.988682
 O  311.352013  -49.720586  -10.360510
 H  305.039153  -57.638011  -11.176911
 H  305.252350  -53.561962   -8.568561
 H  307.086994  -52.273040   -9.654009
 H  304.629808  -55.805597   -9.437545
 H  312.871483  -53.333703  -17.235069
 H  311.351750  -53.852963  -10.240146
 H  309.730035  -53.953943   -9.564033
 H  309.822109  -54.503386  -12.017329
 H  310.924345  -51.893170   -8.768738
 H  309.484054  -51.470001   -9.701953
 H  312.335965  -51.499013  -10.775249
 H  309.732561  -50.681952  -12.128427
 H  311.347759  -50.563208  -12.830464
 H  310.158922  -52.633396  -13.630920
 H  311.609235  -53.038723  -12.736259
 H  309.358399  -58.738289  -15.894191
 H  307.691700  -58.165127  -14.476547
 H  311.234287  -58.126893  -17.369909
 H  309.080795  -54.710735  -14.382456
 H  312.870458  -55.738877  -18.018641
 H  311.705791  -49.679979   -9.464013
