45 
5d7c_ligand_xtb.xyz
 O   -4.473396    0.177280   -0.230718
 C   -6.950645   -2.324093    0.992593
 C    1.433373   -2.276202   -0.054613
 C   -0.354127   -0.913092   -0.054268
 C    0.458196    0.254080    0.021753
 C   -1.685198    0.891612   -0.086380
 C   -1.710927   -0.471164   -0.117261
 C   -4.101862   -0.975217   -0.265323
 C   -6.381437   -1.871053   -0.348735
 N   -4.947553   -2.037477   -0.419188
 C    2.334340   -1.197307   -0.026312
 C    1.834720    0.102686    0.002332
 C    6.001356   -0.933156   -0.785520
 N   -2.779351   -1.348213   -0.188323
 C    6.448894   -1.992600   -0.010198
 C    4.350604   -2.474290    0.704118
 C    3.779082   -1.441639   -0.043405
 N    0.125440   -2.153081   -0.085545
 C    4.646003   -0.656530   -0.802665
 N    5.640989   -2.742841    0.719838
 N   -0.378739    1.342274    0.022254
 C   -0.054795    2.691143    0.097043
 N   -0.914553    3.515943   -0.490089
 C   -0.674613    4.811966   -0.457201
 C    0.438236    5.366144    0.155120
 C    1.321754    4.507831    0.794689
 C    1.076661    3.147742    0.778586
 H   -6.742885   -3.379251    1.162277
 H   -6.507990   -1.746187    1.800051
 H   -8.026823   -2.176722    1.008520
 H    1.807144   -3.290414   -0.093077
 H   -2.496512    1.588128   -0.122724
 H   -6.571994   -0.806706   -0.499544
 H   -6.842374   -2.436756   -1.165075
 H   -4.592519   -2.971879   -0.292826
 H    2.513391    0.942429    0.006507
 H    6.694540   -0.344947   -1.367171
 H   -2.509132   -2.319218   -0.241395
 H    7.497312   -2.255986    0.031392
 H    3.735106   -3.104348    1.333266
 H    4.257173    0.145597   -1.414613
 H   -1.413741    5.429371   -0.950098
 H    0.601526    6.431690    0.147607
 H    2.186583    4.895632    1.313435
 H    1.717020    2.463929    1.310461
