44 
5d7r_ligand_xtb.xyz
 C    1.153575  -21.408398   22.196915
 C    1.597056  -20.232763   21.661893
 C   -2.142369  -28.000639   24.381977
 C   -0.265313  -28.325854   25.838224
 C   -0.307093  -24.363405   23.361776
 C    1.906302  -21.993609   23.222811
 C   -0.941805  -27.525419   24.897612
 C    3.552645  -20.136510   23.120912
 C    3.103798  -21.351452   23.672947
 C    2.781798  -19.602012   22.108915
 C   -2.629482  -29.238046   24.806284
 C    1.819643  -23.158333   24.014876
 C    0.876058  -24.219449   24.059432
 C   -1.860014  -29.950741   25.754384
 C   -0.423852  -26.257219   24.464925
 C   -2.324695  -31.261151   26.234824
 C    7.300642  -19.208544   23.180689
 C    4.828844  -19.513859   23.611516
 C    6.013004  -19.865037   22.700465
 N   -0.710585  -29.483639   26.242406
 N   -0.993871  -25.480975   23.601338
 N    2.907733  -23.116456   24.821937
 N    3.684342  -22.064023   24.648889
 O   -3.362883  -31.781385   25.855643
 O    3.105544  -18.441339   21.476822
 O   -3.779186  -29.691155   24.309803
 O   -1.527329  -31.842392   27.117549
 S    1.098974  -25.612536   25.081582
 H    0.251051  -21.869745   21.830814
 H    1.055212  -19.743336   20.868162
 H   -2.695906  -27.423295   23.659304
 H    0.672473  -28.001110   26.269772
 H   -0.702715  -23.651391   22.663355
 H    8.131545  -19.480648   22.534287
 H    7.206210  -18.124037   23.177782
 H    7.533781  -19.528355   24.193580
 H    4.728823  -18.425175   23.684607
 H    5.028114  -19.899447   24.611693
 H    6.133913  -20.949587   22.694612
 H    5.803421  -19.552309   21.673866
 H    3.150972  -23.807692   25.517469
 H    3.925263  -18.090282   21.845532
 H   -3.974916  -30.569161   24.710576
 H   -1.894723  -32.699087   27.389243
