44 
5d7r_ligand_dft.xyz
 C    1.280115  -21.664277   22.048718
 C    1.744776  -20.577066   21.367850
 C   -2.250974  -27.854980   24.680792
 C   -0.108084  -28.512696   25.539294
 C   -0.484006  -24.095803   23.934096
 C    1.945730  -22.028932   23.245261
 C   -0.932312  -27.530512   24.954896
 C    3.548857  -20.139593   22.987661
 C    3.071848  -21.279929   23.694420
 C    2.870145  -19.825267   21.833020
 C   -2.717175  -29.136927   24.990165
 C    1.803249  -23.048426   24.193041
 C    0.836118  -24.120390   24.298783
 C   -1.806635  -30.043218   25.572639
 C   -0.437105  -26.186236   24.631598
 C   -2.268598  -31.407333   25.910774
 C    7.291163  -19.122723   23.327008
 C    4.762913  -19.393457   23.475647
 C    6.064884  -19.873936   22.815096
 N   -0.532741  -29.723497   25.835975
 N   -1.184332  -25.250613   24.118481
 N    2.806330  -22.845759   25.079753
 N    3.591601  -21.793842   24.822470
 O   -3.414545  -31.793744   25.708537
 O    3.211466  -18.778643   21.030715
 O   -3.989649  -29.427914   24.717839
 O   -1.348324  -32.195532   26.454682
 S    1.221498  -25.701420   24.901853
 H    0.436971  -22.237357   21.676289
 H    1.280965  -20.251495   20.442816
 H   -2.921436  -27.131025   24.231940
 H    0.933724  -28.302022   25.773682
 H   -0.989069  -23.222243   23.540171
 H    8.207010  -19.483947   22.848583
 H    7.210276  -18.047559   23.126894
 H    7.403814  -19.251156   24.409376
 H    4.646853  -18.309294   23.319952
 H    4.842462  -19.527583   24.559518
 H    6.172566  -20.947102   23.009310
 H    5.985730  -19.765257   21.725139
 H    2.979584  -23.377583   25.920100
 H    3.981182  -18.330674   21.401523
 H   -4.147040  -30.357826   24.994402
 H   -1.785805  -33.046211   26.621244
