30 
5d7x_ligand_ani.xyz
 C   -2.589904   -3.132306   -0.312949
 C   -2.870087   -1.651392   -0.198492
 O   -3.995174   -1.197063   -0.173918
 N   -1.741390   -0.831041   -0.123605
 C   -0.418670   -1.230746   -0.179019
 C    0.443221   -0.167625   -0.060269
 C    1.885645   -0.183139   -0.048052
 C    2.723257   -1.230648    0.301842
 C    2.444890   -2.614081    0.758319
 N    4.061734   -0.827431    0.191133
 N    4.187279    0.363584   -0.207326
 C    2.812290    0.916863   -0.426432
 O    2.650366    2.024519   -0.868545
 C   -0.417040    1.002143    0.080280
 C   -0.150619    2.367485    0.261052
 C   -1.214619    3.238458    0.389116
 C   -2.541758    2.779673    0.340175
 C   -2.828017    1.439305    0.164611
 C   -1.744801    0.566514    0.040877
 H   -1.960785   -3.486033    0.509627
 H   -3.547029   -3.650917   -0.286498
 H   -2.083528   -3.364472   -1.255421
 H   -0.204088   -2.287104   -0.318670
 H    1.592359   -2.665207    1.449177
 H    2.225729   -3.292959   -0.078717
 H    3.332469   -3.001573    1.264285
 H    0.870193    2.731175    0.276103
 H   -1.021674    4.299005    0.526575
 H   -3.356934    3.491765    0.441701
 H   -3.844340    1.067868    0.123780
