51 
5d9k_ligand_ani.xyz
 C    0.334661   -1.920022   -0.339576
 C   -1.496837   -0.670945    0.168949
 C   -2.340519   -1.729673   -0.243793
 O   -5.521088   -0.282795    0.409637
 O    6.080693    1.198644    0.590804
 C   -2.549559    3.944224   -0.659532
 C   -1.003237    3.418916   -2.560999
 C   -4.602482   -2.558767   -0.802760
 C    2.748478   -1.210513   -0.137099
 C    2.572705    0.078206    0.368444
 C    3.699892    0.844172    0.592978
 C    4.999941    0.418629    0.355700
 C    5.136918   -0.874175   -0.142439
 C    4.044406   -1.681788   -0.388390
 N   -0.370266   -2.995056   -0.742057
 N   -0.165404   -0.772913    0.095922
 C   -1.692243   -2.875334   -0.694787
 N    1.693103   -2.086699   -0.408624
 N   -2.035694    0.485966    0.634337
 C   -1.161689    1.619222    0.907301
 C   -0.623439    2.305549   -0.351830
 C   -1.683478    2.862620   -1.309733
 C   -3.398620    0.510050    1.135659
 C   -4.316251   -0.462371    0.397895
 N   -3.726367   -1.557250   -0.206606
 C   -3.498328    0.263392    2.647885
 F    3.574350    2.104631    1.081890
 F    6.370311   -1.336552   -0.385338
 H    5.754156    2.043364    0.932725
 H   -1.928350    4.762465   -0.271685
 H   -3.247452    4.371182   -1.388921
 H   -3.148311    3.556150    0.173310
 H   -1.741795    3.791348   -3.279774
 H   -0.339512    4.253924   -2.300967
 H   -0.399900    2.654432   -3.063651
 H   -4.532941   -3.508915   -0.261166
 H   -5.620930   -2.181591   -0.738000
 H   -4.338510   -2.718222   -1.853065
 H    1.592115    0.471685    0.592330
 H    4.222520   -2.680315   -0.777105
 H   -2.256956   -3.743371   -1.034302
 H    1.949871   -2.997003   -0.760652
 H   -0.318908    1.275026    1.520479
 H   -1.723975    2.336961    1.514219
 H    0.008422    1.588730   -0.894471
 H    0.035042    3.127249   -0.031657
 H   -2.337169    2.032894   -1.613433
 H   -3.807922    1.504850    0.926887
 H   -3.120179   -0.730143    2.907326
 H   -2.921532    1.011815    3.201466
 H   -4.546088    0.331279    2.953566
