30 
5d9p_ligand_xtb.xyz
 C    0.664394    0.226122   -0.268038
 C    0.382353   -1.207391    0.225282
 C   -1.058044   -1.604276   -0.134893
 C   -2.059725   -0.544346    0.327929
 C   -1.646823    0.803989   -0.267196
 C   -2.550483    1.942448    0.212917
 C    3.134592    0.415761   -0.034223
 C    4.228855    1.274044    0.545064
 N    1.878750    0.782338    0.297890
 O   -1.404818   -2.830134    0.459235
 O    1.214386   -2.164232   -0.370858
 O   -3.356882   -0.855807   -0.097921
 O   -0.324587    1.134616    0.135543
 O   -2.236521    3.156278   -0.410755
 O    3.361951   -0.551471   -0.738951
 H    0.751492    0.195415   -1.371931
 H    0.493792   -1.225408    1.323819
 H   -1.118162   -1.693320   -1.233010
 H   -2.019872   -0.481696    1.428073
 H   -1.697159    0.740402   -1.364345
 H   -2.455969    2.026845    1.304497
 H   -3.582898    1.704834   -0.044223
 H    4.857714    0.656150    1.182588
 H    4.850546    1.639089   -0.269595
 H    3.841769    2.112605    1.114709
 H    1.709763    1.582307    0.887481
 H   -0.675273   -3.439723    0.290572
 H    2.082178   -1.761245   -0.582710
 H   -3.496921   -1.793113    0.091640
 H   -1.291193    3.308390   -0.294190
