58 
5db1_ligand_ani.xyz
 C   -5.121682   -1.760316   -0.653097
 C   -4.061041   -0.868236   -0.496288
 C   -2.813682   -1.474033   -0.193042
 N   -2.716324   -2.797934   -0.075832
 N   -5.045629   -3.088446   -0.539719
 F   -8.196056    3.379357   -0.462266
 C   -7.524012    2.270958   -0.103091
 F   -8.419686    1.295742    0.106061
 F   -6.918177    2.528316    1.068453
 C   -6.537220    1.898539   -1.196667
 C   -5.792203    0.622485   -0.954043
 S   -6.605861   -0.919168   -1.022406
 C   -4.471155    0.491536   -0.679180
 C   -3.825851   -3.518672   -0.253345
 N   -1.705432   -0.716568   -0.035478
 C   -0.420027   -1.225599    0.409675
 C    0.707275   -0.740222   -0.502296
 C    2.052264   -1.277062   -0.031712
 C   -0.112388   -0.838458    1.860530
 C    1.250985   -1.368213    2.286588
 N    2.319667   -0.851732    1.384732
 C    3.686586   -1.242292    1.822261
 C    4.756944   -0.485258    1.073111
 C    5.759443   -1.145668    0.387679
 C    6.740073   -0.416542   -0.306655
 C    7.868421   -0.712030   -1.093027
 C    8.383288    0.552877   -1.467319
 C    9.550516    0.742794   -2.288053
 N   10.492143    0.843607   -2.950206
 N    7.695733    1.594515   -0.997332
 C    6.678241    1.033154   -0.280749
 C    5.672442    1.706979    0.410050
 C    4.715023    0.945131    1.063432
 O    3.658261    1.508043    1.725125
 C    3.706310    2.912222    1.871961
 H   -5.837989    2.734099   -1.293856
 H   -7.116270    1.834790   -2.123012
 H   -3.815258    1.354380   -0.605512
 H   -3.706709   -4.596742   -0.149893
 H   -1.833890    0.282017   -0.074696
 H   -0.494711   -2.314833    0.342820
 H    0.734222    0.359018   -0.493465
 H    0.513832   -1.055598   -1.531805
 H    2.874010   -0.925367   -0.660428
 H    2.056222   -2.375854   -0.069432
 H   -0.893456   -1.228358    2.520540
 H   -0.113935    0.256977    1.958348
 H    1.258337   -2.467215    2.244878
 H    1.478129   -1.077787    3.317925
 H    2.318237    0.182708    1.421849
 H    3.818119   -2.321783    1.675049
 H    3.760523   -1.048979    2.897068
 H    5.785321   -2.231845    0.371241
 H    8.279587   -1.675947   -1.370668
 H    5.672119    2.789285    0.397882
 H    4.640753    3.224694    2.354924
 H    3.625448    3.408441    0.896475
 H    2.857909    3.196960    2.497543
