44 
5dbm_ligand_ani.xyz
 C    5.247214   -1.212778   -0.793429
 C    4.531394   -0.263618    0.167819
 C    5.220268    1.110677    0.133179
 C    4.595283   -0.834304    1.594431
 N    3.115408   -0.109593   -0.230691
 C    2.203953    0.682891    0.381492
 N    2.585905   -0.785637   -1.268487
 C    1.315471   -0.416504   -1.296361
 C    1.000704    0.514001   -0.280908
 C   -0.272777    1.230242   -0.068124
 C   -1.471534    0.496707    0.119505
 N   -1.337055   -0.878696    0.258302
 C   -2.389186   -1.823027    0.564875
 C   -1.792848   -3.225590    0.539246
 C   -3.529240   -1.708302   -0.450384
 C   -4.499661   -0.590479   -0.160464
 O   -5.704155   -0.721838   -0.273976
 N   -3.986319    0.618412    0.263383
 C   -2.695975    1.199684    0.165401
 C   -2.669740    2.594670    0.149209
 C   -1.486166    3.307435    0.038067
 C   -0.287600    2.617583   -0.075083
 H    5.214670   -0.830084   -1.816916
 H    6.295176   -1.312201   -0.492689
 H    4.787388   -2.204352   -0.780989
 H    5.195924    1.534185   -0.876062
 H    4.739693    1.815962    0.818628
 H    6.267583    1.007634    0.435850
 H    4.082451   -0.179062    2.305689
 H    4.133654   -1.825972    1.640105
 H    5.639466   -0.928421    1.910310
 H    2.448754    1.291229    1.246805
 H    0.648768   -0.826164   -2.046352
 H   -0.421687   -1.149079    0.589332
 H   -2.802611   -1.628098    1.567675
 H   -2.546919   -3.972693    0.807381
 H   -0.966495   -3.318348    1.252843
 H   -1.416131   -3.463780   -0.462956
 H   -4.129592   -2.620799   -0.466783
 H   -3.104658   -1.567273   -1.450510
 H   -4.730393    1.286905    0.420775
 H   -3.613929    3.133690    0.219542
 H   -1.503750    4.393010    0.029098
 H    0.652960    3.151291   -0.187345
