45 
5dcz_ligand_ani.xyz
 C    0.970106   -2.175006   -0.231507
 C    5.476494    0.884116    1.914698
 C    4.520851    1.310598    0.797400
 C    0.069056   -1.101239   -0.256729
 C    2.812569   -0.679875   -0.656435
 C    2.320864   -1.968834   -0.445742
 O    4.929117   -1.398882   -1.444836
 C    4.281541   -0.520936   -0.891699
 N    4.873116    0.653087   -0.461235
 C    6.283691    0.837256   -0.795668
 C    7.164129    0.393565    0.369361
 O    6.825783    1.098569    1.550301
 N   -1.281997   -1.396467   -0.024785
 C   -2.400952   -0.614686   -0.015714
 N   -2.439299    0.660627   -0.233566
 C   -3.682944    1.305213   -0.190991
 C   -3.738493    2.688512   -0.426507
 C   -4.949355    3.349733   -0.397877
 C   -6.143221    2.657706   -0.134115
 C   -6.119925    1.296031    0.104825
 C   -4.892860    0.640156    0.075401
 N   -4.782457   -0.734544    0.309524
 N   -5.739674   -1.625099    0.593057
 N   -5.138601   -2.762091    0.720923
 N   -3.814913   -2.654914    0.531447
 C   -3.607446   -1.376440    0.274800
 C    0.549289    0.185960   -0.514508
 C    1.910501    0.382046   -0.710470
 H    0.602391   -3.182992   -0.051481
 H    5.312256   -0.175229    2.168081
 H    5.294613    1.482161    2.813181
 H    4.602757    2.395794    0.654037
 H    3.492669    1.071203    1.076415
 H    3.014650   -2.804369   -0.451596
 H    6.454805    1.902442   -0.993317
 H    6.498709    0.258400   -1.695840
 H    8.219385    0.606905    0.169723
 H    7.048707   -0.691916    0.519635
 H   -1.492353   -2.367856    0.170503
 H   -2.808116    3.211002   -0.629717
 H   -4.980221    4.420672   -0.582339
 H   -7.086763    3.195672   -0.117863
 H   -7.021600    0.727171    0.312953
 H   -0.139402    1.019683   -0.545583
 H    2.271722    1.386317   -0.919218
