41 
5dd9_ligand_dft.xyz
 C    3.107352    1.945502   -0.432185
 C    1.999525    1.102650   -0.248920
 C    0.793263    1.784327    0.090124
 N    0.811835    3.108251    0.285895
 N    3.124441    3.273692   -0.288521
 F    5.551972   -1.634903    1.159393
 C    4.751771   -2.421218    0.428330
 F    3.666724   -2.701117    1.169291
 F    5.400755   -3.577684    0.212122
 C    4.371376   -1.773793   -0.891625
 C    3.667991   -0.461332   -0.714538
 S    4.543011    1.044252   -0.831833
 C    2.361950   -0.282854   -0.396055
 C    1.956878    3.766749    0.093237
 N   -0.412584    1.169995    0.259321
 C   -1.529666    1.937182    0.808557
 C   -2.586642    0.997380    1.367864
 C   -0.726610   -0.128111   -0.318546
 C   -2.178058   -0.181872   -0.785297
 N   -3.068958    0.099240    0.321846
 C   -4.386109   -0.226247    0.285888
 S   -5.108565   -1.107023   -1.050093
 N   -5.231044    0.082363    1.233213
 N   -6.496226   -0.360033    0.968907
 C   -6.618996   -0.991334   -0.149073
 C   -7.898349   -1.576049   -0.649824
 H    3.727714   -2.482225   -1.421160
 H    5.288159   -1.665045   -1.477628
 H    1.700093   -1.123520   -0.236188
 H    1.917016    4.840277    0.261565
 H   -1.966683    2.594599    0.045318
 H   -1.152204    2.580980    1.604057
 H   -3.434219    1.573453    1.744795
 H   -2.180022    0.419423    2.207606
 H   -0.550467   -0.939669    0.401153
 H   -0.093046   -0.300893   -1.191723
 H   -2.371493   -1.190858   -1.166872
 H   -2.329257    0.524794   -1.615646
 H   -8.188473   -1.142370   -1.612407
 H   -7.821433   -2.661076   -0.775041
 H   -8.678193   -1.360634    0.083490
