41 
5dd9_ligand_ani.xyz
 C    3.075835    1.891522   -0.427659
 C    1.961673    1.072648   -0.217548
 C    0.768219    1.775122    0.135722
 N    0.810448    3.094559    0.338751
 N    3.111950    3.218218   -0.292296
 F    5.759299   -1.509979    0.916632
 C    4.853149   -2.365996    0.425209
 F    3.903393   -2.541251    1.363738
 F    5.457533   -3.550508    0.234226
 C    4.257586   -1.857454   -0.875285
 C    3.601952   -0.523960   -0.715142
 S    4.491002    0.965706   -0.877556
 C    2.310007   -0.314680   -0.364214
 C    1.955797    3.732006    0.096656
 N   -0.434232    1.174754    0.300500
 C   -1.523648    1.949373    0.887736
 C   -2.638099    1.022244    1.339376
 C   -0.781954   -0.094561   -0.329676
 C   -2.204664   -0.047264   -0.878356
 N   -3.127512    0.252019    0.203611
 C   -4.409323   -0.190620    0.234902
 S   -5.188184   -0.960366   -1.129613
 N   -5.178081   -0.064877    1.279091
 N   -6.427401   -0.586870    1.075443
 C   -6.600403   -1.085062   -0.100375
 C   -7.872449   -1.716818   -0.565561
 H    3.522432   -2.602998   -1.195525
 H    5.060755   -1.827923   -1.615363
 H    1.643036   -1.144178   -0.153759
 H    1.935484    4.813111    0.239737
 H   -1.905326    2.680538    0.161960
 H   -1.128704    2.517854    1.732523
 H   -3.475386    1.593315    1.747429
 H   -2.284283    0.353007    2.137428
 H   -0.705025   -0.920232    0.392604
 H   -0.077840   -0.285156   -1.143522
 H   -2.452123   -1.019318   -1.315992
 H   -2.278737    0.705888   -1.676360
 H   -8.298627   -1.167891   -1.412203
 H   -7.703354   -2.750309   -0.885325
 H   -8.587687   -1.709144    0.259322
