47 
5ddf_ligand_dft.xyz
 C    3.220717    2.113331   -0.112655
 C    1.994251    1.427003   -0.135826
 C    0.846977    2.257255    0.056886
 N    1.016101    3.560516    0.318858
 N    3.391726    3.420543    0.099316
 F    4.684122   -3.672481    0.565081
 C    4.195757   -2.449494    0.761347
 F    5.033909   -1.774304    1.549528
 F    3.016438   -2.555844    1.381008
 C    4.016308   -1.709120   -0.584642
 F    5.222426   -1.712370   -1.201724
 F    3.154598   -2.456155   -1.318630
 C    3.497826   -0.315437   -0.440911
 S    4.576730    1.048272   -0.357425
 C    2.190178    0.014206   -0.304203
 C    2.253453    4.057603    0.329510
 N   -0.436119    1.812019    0.008852
 C   -1.525546    2.711243    0.390739
 C   -2.720821    1.912566    0.885292
 C   -0.815655    0.555137   -0.625805
 C   -2.229787    0.651723   -1.192208
 N   -3.176402    0.989221   -0.147505
 C   -4.337517    0.316467    0.084159
 S   -4.989745   -0.791129   -1.172707
 C   -6.168979   -1.446888    0.093724
 C   -7.508532   -1.801345   -0.545742
 C   -5.549777   -2.661982    0.789014
 C   -6.280682   -0.250167    1.070726
 N   -5.021299    0.460133    1.155567
 H    1.414821   -0.738162   -0.299430
 H    2.331285    5.120820    0.544043
 H   -1.808823    3.356957   -0.450969
 H   -1.168253    3.365248    1.185652
 H   -3.539897    2.589642    1.143397
 H   -2.460286    1.362737    1.799806
 H   -0.771935   -0.278618    0.088328
 H   -0.130925    0.341259   -1.451847
 H   -2.492850   -0.315258   -1.626862
 H   -2.251616    1.396242   -1.999391
 H   -7.931764   -0.948969   -1.084938
 H   -7.412471   -2.640400   -1.242426
 H   -8.214737   -2.100373    0.237924
 H   -5.341616   -3.464148    0.074635
 H   -4.615997   -2.389192    1.289856
 H   -6.244335   -3.047016    1.545903
 H   -6.576309   -0.613473    2.062154
 H   -7.066550    0.439163    0.726882
