39 
5dex_ligand_ani.xyz
 C   -0.383884    1.567171    0.922899
 C   -1.943819    3.096193   -0.801101
 C   -1.015257    2.200504   -1.321550
 C    3.542639   -0.135851    0.546040
 N   -3.077282   -2.063992   -1.187503
 C   -1.941493   -1.330355   -0.509112
 C   -0.579790   -1.708767   -1.089748
 C    0.595758   -0.926399   -0.514989
 C    1.944826   -1.540773   -0.882551
 C    2.925521   -0.376039   -0.822483
 N    2.069312    0.838538   -1.023734
 N    0.664336    0.455003   -1.060523
 C   -0.232641    1.420252   -0.465005
 C   -1.314725    2.469254    1.433765
 C   -2.098449    3.233372    0.574897
 O    3.272365    0.864731    1.175675
 O    4.362511   -1.093922    0.970554
 C   -2.079745   -1.595487    0.987483
 O   -3.381664   -1.819837    1.290074
 O   -1.214461   -1.597749    1.826492
 H    0.224382    0.982174    1.610664
 H   -2.548185    3.689044   -1.481498
 H   -0.895119    2.076695   -2.395674
 H   -2.794686   -3.039947   -1.403278
 H   -3.874960   -2.084773   -0.529150
 H   -3.357073   -1.574936   -2.051745
 H   -2.128094   -0.265286   -0.644329
 H   -0.399019   -2.779493   -0.920989
 H   -0.587621   -1.539727   -2.171026
 H    0.495826   -0.897541    0.577370
 H    2.226944   -2.353979   -0.212652
 H    1.911163   -1.934662   -1.903085
 H    3.709686   -0.449795   -1.569477
 H    2.318494    1.363717   -1.897130
 H    2.283168    1.422534   -0.152589
 H   -1.426649    2.566432    2.511158
 H   -2.824896    3.935461    0.976098
 H    4.671554   -0.831785    1.854625
 H   -3.423120   -1.955222    2.251397
