93 
5dg6_ligand_dft.xyz
 O    1.057228   -0.010810    0.192858
 C    1.291997   -1.127708    0.655126
 O    1.534976   -1.414295    1.935603
 C    1.471051   -0.412541    2.991358
 C    0.067806    0.188501    3.060443
 C    1.773756   -1.234231    4.240971
 C    2.544340    0.649879    2.774157
 O   -1.184921   -3.306325   -1.914526
 C   -0.523255   -2.312831   -1.660934
 N    1.826562    4.448543   -0.236994
 C    2.718253    3.390699    0.196843
 C    4.043996    3.420800   -0.557522
 C    4.992618    2.311229   -0.090862
 C    4.490923    0.907943   -0.431353
 C    5.432659   -0.194197    0.067588
 C    1.013352   -2.361694   -1.497769
 C    1.565359   -3.671182   -2.063422
 C    3.079125   -3.671157   -2.346439
 C    3.882803   -3.091556   -1.235398
 N    4.177248   -3.586459   -0.080870
 N    4.815384   -2.569851    0.629401
 C    4.863591   -1.549397   -0.159483
 O    4.291726   -1.806771   -1.362421
 N    1.338516   -2.264359   -0.077088
 N   -2.173776    1.431419   -0.566959
 C   -2.443309    2.872351   -0.432962
 C   -1.664366    3.382270    0.786321
 C   -0.139182    3.296960    0.667345
 C    0.496920    4.545503    0.061986
 O   -0.123042    5.578770   -0.134960
 C   -2.149409    3.659471   -1.726024
 O   -3.223322    3.669330   -2.626146
 N   -1.045772   -1.080238   -1.449745
 C   -2.474969   -0.889046   -1.243199
 C   -2.818343    0.591825   -1.410098
 O   -3.637378    0.959044   -2.246467
 C   -2.915828   -1.434846    0.127531
 C   -4.365490   -1.133026    0.517698
 C   -4.665039   -1.724215    1.902820
 C   -6.108863   -1.469517    2.341202
 C   -7.100102   -2.000555    1.302703
 C   -6.820627   -1.397930   -0.075839
 C   -5.375838   -1.645558   -0.519626
 H   -0.683079   -0.603491    3.150056
 H   -0.010733    0.835580    3.939897
 H   -0.146094    0.785988    2.171770
 H    1.768624   -0.588402    5.124256
 H    1.022457   -2.017756    4.376849
 H    2.756317   -1.706917    4.154690
 H    2.305988    1.271700    1.911783
 H    3.517304    0.172837    2.616761
 H    2.612171    1.290217    3.659611
 H    2.238467    5.327698   -0.521981
 H    2.919958    3.462748    1.277990
 H    2.225081    2.430780    0.024351
 H    4.525882    4.395406   -0.406014
 H    3.849477    3.323011   -1.632743
 H    5.977137    2.464666   -0.550091
 H    5.141800    2.395327    0.995007
 H    3.498395    0.736968   -0.003239
 H    4.371746    0.817100   -1.517633
 H    6.404684   -0.116987   -0.436503
 H    5.621806   -0.097564    1.141087
 H    1.461769   -1.497107   -2.002533
 H    1.313297   -4.483576   -1.373684
 H    1.032797   -3.897048   -2.989857
 H    3.408347   -4.698034   -2.525954
 H    3.290317   -3.092644   -3.250809
 H    1.525265   -3.117137    0.431631
 H   -1.589817    1.011827    0.143925
 H   -3.514624    2.999561   -0.231717
 H   -1.988939    2.805946    1.662341
 H   -1.943444    4.424248    0.963311
 H    0.306307    3.165626    1.663306
 H    0.166594    2.412173    0.097669
 H   -1.952103    4.700351   -1.460620
 H   -1.226054    3.254846   -2.177313
 H   -3.514227    2.746589   -2.728977
 H   -0.405564   -0.362019   -1.126124
 H   -2.999398   -1.416103   -2.040969
 H   -2.754508   -2.519285    0.106461
 H   -2.239877   -1.033950    0.898212
 H   -4.488003   -0.040394    0.590084
 H   -3.964014   -1.313801    2.642085
 H   -4.485249   -2.809159    1.867714
 H   -6.291341   -1.933248    3.317680
 H   -6.263997   -0.389000    2.469979
 H   -7.008784   -3.094577    1.244099
 H   -8.129105   -1.784348    1.612358
 H   -7.001504   -0.314495   -0.039558
 H   -7.514083   -1.806329   -0.819636
 H   -5.205466   -1.156484   -1.484658
 H   -5.214840   -2.723734   -0.669049
