78 
5dgj_ligand_ani.xyz
 O    4.646805   -0.641185   -1.361809
 C    4.305995   -0.682599   -0.193809
 O    5.127599   -0.820165    0.864260
 C    6.563192   -0.970822    0.652136
 C    7.114570   -1.123990    2.065932
 C    7.133325    0.280875   -0.009084
 C    6.848706   -2.225981   -0.167405
 O    0.965800    0.734543    1.242975
 C    0.886701    0.521365    0.043822
 N   -2.443756   -3.762555   -1.052186
 C    1.989346   -0.232075   -0.715957
 C    1.467401   -1.455899   -1.496406
 C    0.828261   -2.521099   -0.613284
 N    3.011230   -0.605015    0.231354
 C   -2.556956   -4.623176   -2.207838
 N   -3.411449   -0.110705    0.534097
 C   -4.403009   -1.177487    0.485111
 C   -4.114001   -2.272449    1.521281
 C   -2.831290   -3.073086    1.255141
 C   -3.017971   -4.087845    0.137212
 O   -3.651392   -5.117408    0.324304
 C   -5.777832   -0.544685    0.701073
 O   -5.811554    0.244047    1.883036
 N   -0.167993    0.953565   -0.713068
 C   -1.452607    1.221612   -0.097379
 C   -2.366242    0.001751   -0.316812
 O   -2.145540   -0.807026   -1.213907
 C   -2.112843    2.491519   -0.657407
 C   -1.218720    3.738390   -0.640921
 C   -2.011148    4.953757   -1.136691
 C   -1.165619    6.228950   -1.153198
 C   -0.568476    6.506581    0.228263
 C    0.231564    5.301392    0.727427
 C   -0.616971    4.026958    0.739267
 H    8.201877   -1.248562    2.040661
 H    6.881714   -0.238823    2.666263
 H    6.677164   -2.001011    2.553509
 H    6.759396    0.385937   -1.029977
 H    6.856502    1.171542    0.564566
 H    8.226099    0.210928   -0.036116
 H    6.367123   -3.095202    0.292289
 H    6.480034   -2.115121   -1.189308
 H    7.929296   -2.402483   -0.196174
 H   -2.117428   -2.809742   -1.177054
 H    2.430292    0.452345   -1.456199
 H    0.757337   -1.122129   -2.265642
 H    2.328251   -1.867437   -2.031369
 H   -0.032562   -2.119957   -0.068661
 H    0.479634   -3.363390   -1.221167
 H    1.549039   -2.897592    0.118827
 H    2.847992   -0.339179    1.194089
 H   -3.176467   -4.170149   -2.992079
 H   -3.018346   -5.560980   -1.889795
 H   -1.566142   -4.838132   -2.625144
 H   -3.588174    0.611526    1.219640
 H   -4.361969   -1.606060   -0.519528
 H   -4.955724   -2.975630    1.552726
 H   -4.041107   -1.808572    2.513964
 H   -2.586070   -3.650074    2.152178
 H   -1.989744   -2.402675    1.048538
 H   -5.997162    0.134356   -0.128506
 H   -6.559460   -1.319114    0.716510
 H   -5.887565   -0.354242    2.637269
 H   -0.240539    0.552799   -1.637723
 H   -1.270843    1.341531    0.975762
 H   -3.022376    2.693428   -0.073174
 H   -2.445327    2.301346   -1.687500
 H   -0.380291    3.572267   -1.334462
 H   -2.418500    4.747206   -2.135259
 H   -2.875044    5.101976   -0.469699
 H   -0.349248    6.109600   -1.880794
 H   -1.765417    7.081941   -1.493087
 H    0.062092    7.403762    0.202795
 H   -1.382857    6.716049    0.937338
 H    0.638955    5.495620    1.727221
 H    1.094523    5.141905    0.063773
 H   -0.006598    3.179438    1.076466
 H   -1.434566    4.139526    1.468925
