84 
5dgu_ligand_dft.xyz
 C    5.634276   -2.654154   -0.289266
 C    4.796836   -3.400256    0.543768
 C    3.426369   -3.153542    0.536934
 C    2.905208   -2.174053   -0.294812
 C    3.735473   -1.433968   -1.140808
 C    5.094721   -1.671950   -1.134902
 S    1.164118   -1.851332   -0.291906
 O    0.698237   -1.780474   -1.680303
 O    0.524983   -2.806447    0.606761
 N    1.114403   -0.284038    0.269451
 C    1.673792   -0.051627    1.607688
 C    2.248967    1.362245    1.730141
 C    2.659015    1.633937    3.177413
 C    3.413547    1.591625    0.768806
 C   -0.141445    0.444004   -0.018298
 C    0.041613    1.460598   -1.146208
 O   -0.018324    0.850042   -2.422835
 C   -1.015964    2.577292   -1.162847
 N   -2.385861    2.065000   -1.192555
 C   -3.075675    1.627492   -0.106660
 O   -2.744057    1.736093    1.061376
 O   -4.243849    1.062692   -0.497117
 C   -4.871675    0.232745    0.487816
 C   -6.303721   -0.025055    0.049816
 O   -6.169217   -2.298489    0.892301
 C   -4.858631   -2.156085    1.412916
 O   -4.164339   -3.332401    1.177673
 C   -3.465634   -3.242653   -0.067459
 C   -3.728021   -1.825566   -0.614655
 C   -4.090020   -1.067898    0.661127
 C   -0.831989    3.655754   -0.083007
 C    1.130381    4.633550    1.145625
 C    2.369235    5.265306    1.202165
 C    3.028873    5.611037    0.026561
 C    2.432040    5.328779   -1.198953
 C    1.190109    4.703048   -1.248683
 C    0.521568    4.336461   -0.076892
 O    6.973645   -2.801296   -0.355536
 C    7.585081   -3.771278    0.470246
 O   -2.623179   -1.228600   -1.237809
 C   -2.343462   -1.735363   -2.523745
 C   -6.908221   -1.096614    0.957062
 H    5.192266   -4.167313    1.198503
 H    2.760040   -3.720002    1.178948
 H    3.312150   -0.675963   -1.791289
 H    5.767449   -1.111820   -1.774745
 H    0.901594   -0.222185    2.371704
 H    2.474200   -0.777329    1.786108
 H    1.456116    2.074230    1.472064
 H    3.036122    2.656881    3.280916
 H    1.815463    1.512430    3.866227
 H    3.456429    0.950509    3.495498
 H    4.253409    0.926154    1.006947
 H    3.761881    2.627725    0.831835
 H    3.116917    1.398923   -0.266026
 H   -0.946282   -0.247237   -0.286889
 H   -0.453622    0.940622    0.902531
 H    1.020666    1.942189   -1.012242
 H    0.351273   -0.046157   -2.343465
 H   -0.888374    3.056073   -2.139603
 H   -2.662765    1.627196   -2.059157
 H   -4.870940    0.769351    1.442274
 H   -6.325648   -0.373644   -0.987992
 H   -6.885865    0.900888    0.103544
 H   -4.915825   -1.995886    2.498661
 H   -2.392558   -3.371721    0.115948
 H   -3.820171   -4.034740   -0.733645
 H   -4.577339   -1.837753   -1.312992
 H   -3.158721   -0.862052    1.200188
 H   -1.618696    4.404882   -0.240471
 H   -1.023813    3.227081    0.902023
 H    0.625036    4.361122    2.069406
 H    2.820325    5.482281    2.166319
 H    3.998433    6.098471    0.064642
 H    2.935143    5.596060   -2.123708
 H    0.745121    4.492872   -2.217455
 H    8.653192   -3.708964    0.262185
 H    7.226526   -4.780605    0.234361
 H    7.409553   -3.560310    1.532261
 H   -3.251452   -1.740716   -3.145933
 H   -1.925984   -2.749107   -2.479293
 H   -1.604150   -1.065680   -2.961766
 H   -6.954187   -0.729485    1.997184
 H   -7.925682   -1.344525    0.647169
