84 
5dgu_ligand_xtb.xyz
 C    5.718482   -2.524119   -0.327614
 C    4.867548   -3.292552    0.465777
 C    3.504164   -3.051494    0.441936
 C    2.991233   -2.053722   -0.361402
 C    3.823961   -1.287628   -1.160027
 C    5.181673   -1.517577   -1.140811
 S    1.233458   -1.755825   -0.418435
 O    0.851092   -1.635194   -1.804329
 O    0.560501   -2.753551    0.363544
 N    1.115420   -0.226593    0.246356
 C    1.522752   -0.185687    1.634778
 C    2.205000    1.141263    1.986837
 C    2.511502    1.186862    3.480865
 C    3.475290    1.330219    1.164553
 C   -0.107664    0.493110   -0.090097
 C    0.161172    1.528843   -1.187810
 O    0.253186    0.943932   -2.466642
 C   -0.936872    2.615994   -1.283752
 N   -2.269499    2.037754   -1.345524
 C   -2.986484    1.581174   -0.298232
 O   -2.754588    1.751819    0.875891
 O   -4.093412    0.937413   -0.750318
 C   -4.872976    0.296068    0.255611
 C   -6.284464    0.066208   -0.272315
 O   -6.397444   -2.057402    0.900921
 C   -5.119588   -1.936706    1.494922
 O   -4.498912   -3.174113    1.480184
 C   -3.807725   -3.336717    0.242825
 C   -3.808345   -1.960584   -0.465122
 C   -4.206607   -1.015681    0.675588
 C   -0.853542    3.688343   -0.190425
 C    1.089622    4.481061    1.174691
 C    2.328321    5.083272    1.310939
 C    2.995854    5.555869    0.195087
 C    2.409058    5.433542   -1.053143
 C    1.169620    4.834113   -1.185991
 C    0.497601    4.337414   -0.074468
 O    7.061402   -2.672514   -0.387971
 C    7.671690   -3.691203    0.372359
 O   -2.564418   -1.591904   -0.999373
 C   -2.243532   -2.274391   -2.191649
 C   -7.037867   -0.817394    0.723538
 H    5.251858   -4.077266    1.097199
 H    2.823343   -3.638880    1.038241
 H    3.391950   -0.530181   -1.793336
 H    5.858458   -0.939399   -1.748936
 H    0.661628   -0.354768    2.294743
 H    2.225604   -1.008737    1.784064
 H    1.516244    1.953867    1.740735
 H    2.979117    2.133509    3.739527
 H    1.600654    1.082309    4.065520
 H    3.189992    0.381566    3.754640
 H    4.205707    0.559242    1.402686
 H    3.913910    2.304262    1.368190
 H    3.245454    1.270016    0.104837
 H   -0.866997   -0.216549   -0.433332
 H   -0.486264    0.989799    0.803382
 H    1.113074    2.035929   -0.953845
 H    0.501484    0.006675   -2.364919
 H   -0.781716    3.087799   -2.260237
 H   -2.521445    1.631673   -2.233971
 H   -4.909046    0.954429    1.136050
 H   -6.234943   -0.430171   -1.241314
 H   -6.796004    1.020023   -0.397862
 H   -5.232541   -1.617231    2.543445
 H   -2.780513   -3.641967    0.467098
 H   -4.306403   -4.109927   -0.349004
 H   -4.569695   -1.946131   -1.259475
 H   -3.302314   -0.793041    1.248689
 H   -1.600949    4.451987   -0.426508
 H   -1.132376    3.249934    0.766319
 H    0.567051    4.129372    2.053096
 H    2.770993    5.185746    2.291227
 H    3.963637    6.024318    0.297085
 H    2.918101    5.811198   -1.927875
 H    0.722616    4.752762   -2.165135
 H    8.734335   -3.629414    0.144380
 H    7.297944   -4.679901    0.090195
 H    7.522485   -3.535517    1.445033
 H   -2.957839   -2.022183   -2.985381
 H   -2.241595   -3.357750   -2.040617
 H   -1.242506   -1.954122   -2.470971
 H   -7.124669   -0.297325    1.690169
 H   -8.037111   -1.056161    0.355346
