89 
5dgw_ligand_ani.xyz
 C   -4.541452   -3.962232   -0.110147
 C   -3.519271   -3.782412   -1.043086
 C   -2.455971   -2.932393   -0.748507
 C   -2.426543   -2.251682    0.461257
 C   -3.437077   -2.439641    1.401716
 C   -4.491959   -3.287670    1.115342
 S   -1.115694   -1.116094    0.780918
 O    0.080946   -1.605757    0.097099
 O   -1.055580   -0.877954    2.228796
 N   -1.556069    0.287969   -0.009692
 C   -2.830445    0.907944    0.358241
 C   -3.709474    1.216069   -0.860918
 C   -4.033773   -0.051163   -1.653561
 C   -4.984661    1.928688   -0.408997
 C   -0.435171    1.188007   -0.334008
 C    0.137492    1.980060    0.860728
 O    0.868194    1.129149    1.734156
 C    1.089916    3.143499    0.507950
 N    2.467491    2.722541    0.298609
 C    2.811931    1.847152   -0.688708
 O    2.217642    1.642533   -1.728352
 O    3.958786    1.216474   -0.342456
 C    4.338039    0.133182   -1.211685
 C    6.257298   -1.217533   -1.976916
 O    5.653759   -2.392165   -1.467938
 C    4.238568   -2.398934   -1.493492
 O    3.827122   -3.473712   -0.718051
 C    3.965522   -3.073199    0.641937
 C    3.670007   -1.558753    0.687628
 C    3.622058   -1.158376   -0.808078
 C    0.628488    4.070194   -0.624744
 C   -1.091617    5.375521    0.702717
 C   -2.364879    5.909511    0.872350
 C   -3.336871    5.730009   -0.105915
 C   -3.020905    5.015866   -1.257754
 C   -1.744353    4.486361   -1.426898
 C   -0.759477    4.649731   -0.446232
 O   -5.621084   -4.767394   -0.295249
 C   -5.689774   -5.499065   -1.498637
 C    5.847025   -0.005679   -1.152511
 N    2.415928   -1.220956    1.419926
 C    2.395392   -1.535501    2.871816
 C    3.172520   -0.521786    3.706622
 H   -3.535685   -4.298438   -1.995886
 H   -1.651220   -2.798595   -1.468456
 H   -3.385368   -1.925240    2.358366
 H   -5.299056   -3.448002    1.822854
 H   -2.632429    1.843303    0.895004
 H   -3.369352    0.256774    1.056030
 H   -3.142204    1.900264   -1.510365
 H   -4.684559    0.183759   -2.502443
 H   -4.551362   -0.786680   -1.022209
 H   -3.122348   -0.523505   -2.034871
 H   -5.579049    2.248643   -1.272120
 H   -5.604417    1.260334    0.202114
 H   -4.756713    2.816218    0.191992
 H   -0.801544    1.885067   -1.093337
 H    0.345740    0.582587   -0.794766
 H   -0.705912    2.426912    1.411275
 H    0.228821    0.543741    2.181850
 H    1.128453    3.740267    1.428712
 H    2.970554    2.515678    1.148901
 H    4.032682    0.395328   -2.229229
 H    7.336212   -1.390419   -1.934926
 H    5.978217   -1.066672   -3.034748
 H    3.890343   -2.555020   -2.523774
 H    3.254396   -3.673592    1.220421
 H    4.981675   -3.289347    0.991494
 H    4.493282   -1.045510    1.193661
 H    2.566858   -1.079144   -1.107322
 H    0.712203    3.528413   -1.571672
 H    1.373164    4.874660   -0.672363
 H   -0.342026    5.539274    1.475834
 H   -2.598633    6.467466    1.775810
 H   -4.331957    6.145670    0.027466
 H   -3.776627    4.857055   -2.025208
 H   -1.510821    3.942704   -2.341040
 H   -4.828762   -6.171846   -1.609101
 H   -5.737807   -4.833785   -2.371165
 H   -6.605853   -6.088988   -1.442414
 H    6.312981    0.907632   -1.538338
 H    6.172580   -0.134649   -0.114362
 H    2.206208   -0.212626    1.328998
 H    1.634172   -1.712703    0.953843
 H    1.350534   -1.568934    3.192550
 H    2.801566   -2.540191    3.025957
 H    2.783927    0.488533    3.543780
 H    4.241985   -0.523685    3.466826
 H    3.075040   -0.756132    4.770688
