31 
5dh4_ligand_ani.xyz
 C   -1.089928   -0.336094   -0.760935
 C   -3.221045   -0.381916    0.383253
 N   -3.194921    0.956433    0.617603
 C   -4.116652   -1.398424    0.688045
 C    1.091726   -0.571892   -1.847423
 C    2.090708   -0.345511   -0.747151
 C    3.439080   -0.312261    1.271346
 C    3.257122    0.352889   -0.830654
 C    4.018651   -0.482397    2.636259
 C   -2.141341    1.582791    0.170645
 N   -2.188127   -1.009617   -0.298248
 S    1.917077   -1.023305    0.830312
Cl   -2.077692    3.307581    0.459340
 C   -1.042861    1.024242   -0.521385
 N   -2.362996   -2.335895   -0.441611
 C   -3.532008   -2.556807    0.158029
 N   -0.181914   -1.086475   -1.412066
 N    4.013411    0.364706    0.326245
 C    3.750694    1.074925   -2.043807
 H   -5.049825   -1.287862    1.221539
 H    1.498175   -1.275098   -2.584955
 H    0.947212    0.372009   -2.391392
 H    3.350388   -0.073191    3.401727
 H    4.183071   -1.541052    2.864612
 H    4.973627    0.045142    2.675591
 H   -0.206714    1.637606   -0.831981
 H   -3.928374   -3.565189    0.194123
 H   -0.383558   -2.078414   -1.447709
 H    3.867646    0.392941   -2.895093
 H    3.055443    1.865087   -2.354742
 H    4.717399    1.530700   -1.826264
