49 
5dh5_ligand_dft.xyz
 C    1.327891   -0.992533   -1.595988
 C    2.404544   -0.416435   -0.970124
 N    2.795546   -0.986088    0.214187
 C    1.548523    2.507210   -1.011758
 C   -1.236807   -3.489233   -0.966497
 C   -2.424339   -2.691435   -0.502016
 C   -3.016512   -2.894846    0.860649
 C   -2.225432   -1.646576    0.582654
 C   -2.902284   -0.333934    0.404304
 C   -2.810043    2.052851    0.132714
 N    3.794750   -0.499277    0.991710
 C    3.775577   -1.308841    2.051626
 C    2.784045   -2.295921    1.984371
 N   -0.031784    3.886756   -0.147528
 C    2.137978   -2.066538    0.774560
 N    1.079267   -2.641950    0.166272
 O   -0.317660   -2.629830   -1.662879
 C    0.710044   -2.112808   -0.977000
 N    3.136199    0.661633   -1.374276
 C    2.461478    1.801558   -1.979277
 C    1.506864    2.342053    0.359401
 C   -2.154276    0.847672    0.347969
 C   -4.194153    2.043391   -0.017078
 C   -4.849399    0.819993    0.043115
 N   -4.231132   -0.344557    0.246519
 N    0.556871    3.181889    0.830486
 C    0.564222    3.483062   -1.264698
 C    0.074731    3.301222    2.189768
 H    0.935980   -0.611062   -2.527896
 H   -1.530144   -4.244735   -1.698593
 H   -0.723719   -3.974617   -0.134558
 H   -3.122246   -2.394911   -1.281107
 H   -4.090070   -2.777614    0.959926
 H   -2.558237   -3.632652    1.513276
 H   -1.227841   -1.596363    1.009594
 H   -2.244060    2.978110    0.066146
 H    4.495445   -1.144322    2.842618
 H    2.550657   -3.066689    2.701318
 H    3.845404    0.900790   -0.687895
 H    3.241114    2.474452   -2.350088
 H    1.907257    1.464344   -2.860651
 H    2.080324    1.702416    1.018277
 H   -1.071767    0.811078    0.443913
 H   -4.749675    2.959824   -0.186252
 H   -5.929438    0.765585   -0.080692
 H    0.266823    3.911504   -2.212735
 H   -0.857384    2.742226    2.317184
 H   -0.102156    4.355168    2.408371
 H    0.831071    2.907816    2.871131
