35 
5diq_ligand_xtb.xyz
 C    2.177899   -0.140970   -0.406724
 C    1.521364   -1.333890   -0.005089
 C    3.502392    0.095597    0.051178
 C    3.474302   -1.992929    1.254713
 C    3.548613    2.198481   -1.136514
 C   -2.046826   -0.634328   -0.178098
 C   -2.806209    0.415503    0.374221
 C   -2.691761   -1.585922   -0.966718
 C   -4.172024    0.482663    0.127409
 C   -2.150886    1.417125    1.267551
 C   -4.054203   -1.503942   -1.192126
 C   -4.801300   -0.473574   -0.649163
 C    1.576018    0.826204   -1.239772
 C    0.112898   -1.617689   -0.458189
 C    2.164899   -2.226448    0.811958
 C    4.129783   -0.854869    0.882926
 C    4.163605    1.280842   -0.333379
 C    2.243384    1.965577   -1.593153
 O   -0.727134   -0.605341    0.069477
 O   -2.546322    2.695291    1.066240
 O   -1.358873    1.151601    2.123347
 H    3.952377   -2.718637    1.895819
 H    4.059372    3.105893   -1.423809
 H   -2.135292   -2.400302   -1.402980
 H   -4.757562    1.272797    0.578746
 H   -4.534534   -2.256701   -1.799234
 H   -5.864156   -0.417107   -0.824046
 H    0.568977    0.671730   -1.593171
 H   -0.203808   -2.601777   -0.088603
 H    0.058123   -1.621559   -1.558133
 H    1.660188   -3.129342    1.125002
 H    5.136879   -0.661630    1.223566
 H    5.169043    1.450029    0.025263
 H    1.766360    2.698040   -2.228298
 H   -3.169014    2.771564    0.331175
