108 
5diu_ligand_dft.xyz
 C    1.867213   -3.721553    1.340299
 O    1.892627   -3.517797   -0.057976
 C    2.487732   -2.391286   -0.518017
 C    3.011470   -1.390390    0.301877
 C    2.535658   -2.259835   -1.912822
 O    2.058408   -3.250847   -2.717882
 C    0.672455   -3.142261   -3.004485
 C    3.101065   -1.107533   -2.473242
 O    3.049425   -1.035345   -3.825048
 C    3.627569    0.089503   -4.449387
 C    3.650175   -0.120139   -1.648947
 C    3.613335   -0.264747   -0.264810
 C    4.239924    0.791289    0.634571
 C    5.665707    0.438776    1.133271
 C    6.687209    0.613075   -0.001241
 C    8.120997    0.395572    0.490964
 C    8.282417   -0.972507    1.158405
 C    7.255339   -1.157857    2.277511
 C    5.826781   -0.950454    1.766379
 C    3.276818    1.085738    1.789439
 O    3.474389    0.637610    2.913490
 N    2.138854    1.790704    1.495561
 C    1.838507    2.500556    0.250604
 C    1.729869    4.003535    0.502547
 C    0.674010    4.284295    1.574414
 C    0.964904    3.485351    2.847766
 C    1.146756    1.993937    2.551654
 C   -0.188300    1.331712    2.161002
 O   -1.263896    1.836691    2.441599
 N   -0.073444    0.140720    1.499885
 C   -1.185082   -0.318871    0.668987
 C   -1.131311    0.407001   -0.666858
 C   -2.020419    1.451169   -0.916751
 C   -0.147639    0.098151   -1.603443
 C   -0.064521    0.820047   -2.790563
 C   -0.957876    1.848786   -3.054509
 C   -1.942185    2.163470   -2.115593
 O   -2.778472    3.183720   -2.454051
 C   -3.821015    3.486685   -1.566136
 C   -4.821148    2.339317   -1.440070
 O   -4.988552    1.495701   -2.290994
 O   -5.462560    2.392341   -0.279684
 C   -1.166869   -1.840763    0.535525
 C   -2.338800   -2.380600   -0.298033
 C   -3.689296   -2.126707    0.334252
 C   -4.576386   -1.176260   -0.180883
 C   -4.075508   -2.829968    1.472892
 C   -5.305695   -2.612814    2.088161
 C   -6.192760   -1.673654    1.563268
 O   -7.421021   -1.393072    2.060332
 C   -7.817775   -2.058166    3.238233
 C   -5.805920   -0.955364    0.422070
 O   -6.682218   -0.007487   -0.071452
 C   -7.392173   -0.423568   -1.236730
 H    1.371213   -4.680732    1.490693
 H    1.298861   -2.934623    1.852195
 H    2.881433   -3.765129    1.755285
 H    2.988954   -1.488694    1.381154
 H    0.446591   -2.196991   -3.512109
 H    0.072531   -3.215722   -2.088581
 H    0.427750   -3.976628   -3.664019
 H    4.700058    0.164724   -4.230844
 H    3.487542   -0.060324   -5.520226
 H    3.129295    1.019611   -4.145442
 H    4.106946    0.766111   -2.074754
 H    4.359764    1.705830    0.044184
 H    5.899503    1.178999    1.911733
 H    6.462196   -0.107662   -0.800695
 H    6.594009    1.614518   -0.443502
 H    8.824765    0.499298   -0.343266
 H    8.373172    1.181548    1.216813
 H    9.300468   -1.087022    1.548774
 H    8.140405   -1.759994    0.404548
 H    7.351323   -2.156301    2.719805
 H    7.460224   -0.436783    3.081425
 H    5.603292   -1.720563    1.015744
 H    5.110697   -1.062893    2.583925
 H    2.586572    2.273370   -0.505142
 H    0.886181    2.125341   -0.143970
 H    2.707323    4.387209    0.824507
 H    1.470689    4.503836   -0.437252
 H    0.635912    5.354778    1.802667
 H   -0.314337    3.999841    1.193644
 H    1.889630    3.847750    3.312927
 H    0.152670    3.603906    3.568527
 H    1.531110    1.480328    3.436430
 H    0.851060   -0.080662    1.146388
 H   -2.094934   -0.023174    1.196084
 H   -2.757299    1.687695   -0.156895
 H    0.568256   -0.691179   -1.404109
 H    0.700476    0.563760   -3.518719
 H   -0.921690    2.412549   -3.980626
 H   -3.448129    3.762098   -0.572465
 H   -4.333513    4.354367   -1.990066
 H   -6.016987    1.573792   -0.197150
 H   -1.197959   -2.270319    1.544129
 H   -0.226524   -2.171532    0.078956
 H   -2.305916   -1.933861   -1.297984
 H   -2.196431   -3.459887   -0.431658
 H   -4.319378   -0.594022   -1.063032
 H   -3.404189   -3.574881    1.893858
 H   -5.566496   -3.186100    2.970475
 H   -8.806229   -1.667876    3.482820
 H   -7.884675   -3.143474    3.086797
 H   -7.130292   -1.849560    4.067819
 H   -8.092252    0.379181   -1.473043
 H   -7.942646   -1.345815   -1.025259
 H   -6.705272   -0.566123   -2.075715
