108 
5diu_ligand_ani.xyz
 C    2.175233   -3.704384   -1.701391
 O    1.959442   -2.541190   -2.465095
 C    2.585942   -1.408157   -2.053731
 C    3.211477   -1.262150   -0.812587
 C    2.510910   -0.325247   -2.933831
 O    1.899798   -0.465911   -4.147965
 C    0.541261   -0.071950   -4.160687
 C    3.078643    0.897761   -2.555422
 O    2.864494    1.924846   -3.420876
 C    3.401806    3.185652   -3.086256
 C    3.754122    1.022462   -1.339864
 C    3.812025   -0.056862   -0.450382
 C    4.459938    0.112375    0.926654
 C    5.847651   -0.548230    1.109173
 C    6.922651    0.256582    0.365656
 C    8.329313   -0.291680    0.617248
 C    8.419587   -1.775966    0.256197
 C    7.340385   -2.580214    0.985259
 C    5.944326   -2.023988    0.697465
 C    3.457124   -0.344496    1.996306
 O    3.565601   -1.419825    2.567844
 N    2.375149    0.475121    2.233793
 C    2.225381    1.868048    1.828985
 C    2.209303    2.777977    3.054917
 C    1.108924    2.343213    4.022235
 C    1.260275    0.866531    4.390780
 C    1.333851   -0.006423    3.139257
 C   -0.041129   -0.080339    2.451805
 O   -1.077159    0.189372    3.039417
 N   -0.016977   -0.500533    1.154697
 C   -1.181444   -0.346843    0.299909
 C   -1.252778    1.050065   -0.307900
 C   -2.362914    1.862126   -0.057255
 C   -0.236950    1.527853   -1.135134
 C   -0.341781    2.783222   -1.728208
 C   -1.440285    3.590040   -1.478947
 C   -2.447622    3.131387   -0.629192
 O   -3.489128    4.000433   -0.424688
 C   -4.398240    3.698604    0.603529
 C   -5.339337    2.556344    0.239224
 O   -5.660785    2.264201   -0.890036
 O   -5.751245    1.922073    1.335620
 C   -1.169367   -1.450942   -0.760050
 C   -2.407991   -1.458337   -1.670682
 C   -3.681774   -1.841699   -0.942855
 C   -4.699930   -0.913056   -0.685264
 C   -3.860226   -3.147476   -0.495949
 C   -5.023037   -3.540927    0.164228
 C   -6.037749   -2.620702    0.398411
 O   -7.224885   -2.891212    0.999085
 C   -7.424441   -4.202814    1.476324
 C   -5.851808   -1.294451   -0.021011
 O   -6.835830   -0.359647    0.259620
 C   -7.840691   -0.272176   -0.746878
 H    1.672428   -4.517801   -2.227436
 H    1.752469   -3.608273   -0.691779
 H    3.246786   -3.932292   -1.615888
 H    3.227799   -2.085000   -0.100352
 H    0.433155    0.993930   -3.922005
 H   -0.058791   -0.660335   -3.448827
 H    0.173149   -0.255321   -5.173367
 H    4.499717    3.161748   -3.074066
 H    3.068483    3.876312   -3.863074
 H    3.040757    3.532335   -2.108298
 H    4.211268    1.971441   -1.079432
 H    4.634539    1.184819    1.072642
 H    6.071233   -0.498048    2.184429
 H    6.703477    0.225050   -0.711997
 H    6.877329    1.311037    0.667851
 H    9.068403    0.288255    0.051345
 H    8.578976   -0.163143    1.681021
 H    9.417225   -2.169065    0.487273
 H    8.280728   -1.891611   -0.828793
 H    7.390441   -3.637647    0.698783
 H    7.526278   -2.540315    2.068940
 H    5.748230   -2.120451   -0.381915
 H    5.183806   -2.606126    1.226699
 H    3.018899    2.154051    1.140290
 H    1.279355    1.976732    1.278329
 H    3.186659    2.728189    3.553147
 H    2.059659    3.817571    2.738489
 H    1.131769    2.956835    4.929485
 H    0.124622    2.492218    3.559257
 H    2.187114    0.715170    4.957001
 H    0.422912    0.530503    5.009214
 H    1.629625   -1.029147    3.402012
 H    0.884717   -0.539782    0.699810
 H   -2.056526   -0.474640    0.945573
 H   -3.161646    1.488417    0.580033
 H    0.659070    0.932348   -1.321496
 H    0.449508    3.116811   -2.397702
 H   -1.544958    4.576108   -1.920839
 H   -3.892759    3.457023    1.546448
 H   -4.994125    4.604299    0.751626
 H   -6.276312    1.135763    1.047575
 H   -1.092571   -2.411012   -0.235236
 H   -0.260878   -1.361831   -1.368604
 H   -2.521360   -0.467461   -2.132243
 H   -2.235140   -2.167521   -2.491291
 H   -4.617546    0.123446   -1.007980
 H   -3.078986   -3.886613   -0.670170
 H   -5.129351   -4.570042    0.490129
 H   -8.415244   -4.212178    1.932501
 H   -7.392293   -4.934950    0.658280
 H   -6.672753   -4.473597    2.230233
 H   -8.520079    0.531445   -0.453855
 H   -8.394187   -1.214163   -0.814831
 H   -7.378495   -0.025117   -1.710283
