31 
5djr_ligand_ani.xyz
 C    0.448133    3.142878   -0.624014
 C    1.766803    2.762383   -0.441219
 C    0.987945    0.430918   -0.186759
 C   -0.591922    2.200192   -0.589034
 C   -0.343678    0.844346   -0.389267
 C   -3.105804    1.033435    1.170106
 C   -4.406406    0.604684    1.496200
 C   -2.625241    0.077716    0.260296
 C   -1.425292   -0.139442   -0.444082
 C   -1.320690   -1.282847   -1.232954
 C   -2.384068   -2.190168   -1.360438
 C   -3.578711   -1.990181   -0.686003
 C   -3.709339   -0.871384    0.128356
 C    2.048778    1.413102   -0.214673
 N    3.267960    0.833709    0.017052
 C    3.007617   -0.457957    0.199666
 C    1.651420   -0.791583    0.096911
 C    4.132913   -1.390405    0.497906
 O    5.326609   -0.794765    0.534659
 O    3.978472   -2.569751    0.689192
 N   -4.785479   -0.521016    0.888046
 H    0.213048    4.188704   -0.797556
 H    2.581890    3.478881   -0.461893
 H   -1.618673    2.522173   -0.738985
 H   -2.567084    1.893037    1.554305
 H   -5.089169    1.101758    2.182825
 H   -0.392756   -1.454821   -1.772282
 H   -2.267184   -3.061514   -1.998521
 H   -4.408688   -2.685581   -0.773053
 H    1.234118   -1.781946    0.239446
 H    5.181737    0.152462    0.353234
