43 
5dl1_ligand_dft.xyz
 N    0.290226    1.745091   -1.318857
 C    1.563038    2.448391   -1.321729
 C    2.563800    1.816791   -0.405163
 C    2.791865    2.063352    0.905329
 C    4.060588    0.459830    0.245383
 C    5.781499   -0.904026    1.507392
 C   -1.780449    1.018072   -0.272168
 C   -2.969923   -1.000955   -0.673866
 C   -6.444133   -1.122740    0.479871
 C   -6.408619   -0.926335    1.995158
 C   -4.067371   -0.373853   -0.045513
 C   -2.949095    1.519623    0.356414
 C   -7.191356   -0.001369   -0.241092
 N   -5.089222   -1.269645   -0.054711
 N   -4.715366   -2.429034   -0.645450
 C   -3.460650   -2.291094   -1.017934
 C   -1.784923   -0.268815   -0.786210
 N   -4.089017    0.862729    0.473940
 C   -0.582477    1.915599   -0.287621
 O   -0.411651    2.774554    0.568691
 N    3.384294    0.776687   -0.816373
 O    3.755570    1.199849    1.334001
 C    5.074066   -0.563789    0.384621
 S    5.523422   -1.539137   -0.973539
 C    6.665885   -2.404771   -0.019968
 C    6.698307   -1.965089    1.271812
 H    0.140654    1.016071   -1.997030
 H    1.373792    3.480570   -1.020059
 H    1.951325    2.447641   -2.342571
 H    2.372037    2.741635    1.629176
 H    5.644762   -0.409211    2.461200
 H   -6.914109   -2.081779    0.247570
 H   -5.915077    0.015887    2.249436
 H   -7.429994   -0.900989    2.387996
 H   -5.871974   -1.748121    2.478472
 H   -2.912321    2.520326    0.777801
 H   -8.226639    0.038202    0.112112
 H   -6.719754    0.965114   -0.042513
 H   -7.200537   -0.175323   -1.321205
 H   -2.953104   -3.104989   -1.516997
 H   -0.897193   -0.713247   -1.229288
 H    7.254405   -3.194112   -0.467335
 H    7.350897   -2.380441    2.030178
