44 
5doh_ligand_ani.xyz
 F   -1.365231   -2.306214   -0.160369
 C   -1.269762   -0.966995   -0.041204
 C   -2.292810   -0.282311    0.606884
 S   -3.714505   -1.078372    1.283697
 C   -4.453931   -1.777835   -0.225821
 C   -4.893291   -0.710044   -1.222443
 O   -5.853060    0.163149   -0.682443
 C   -2.123788    1.096262    0.730818
 F   -3.043349    1.840560    1.350974
 C   -1.004534    1.729413    0.209561
 F   -0.883356    3.039447    0.421008
 C   -0.144515   -0.366324   -0.611978
 C   -0.025055    1.032999   -0.487397
 S    1.380144    1.963328   -1.027727
 O    0.920454    3.218629   -1.584162
 N    2.148747    2.302934    0.408056
 O    2.254152    1.096809   -1.818619
 N    0.798983   -1.155457   -1.247968
 C    1.574461   -2.093014   -0.438398
 C    2.452251   -1.372672    0.582641
 C    2.097729   -0.856984    1.822758
 C    3.060623   -0.174415    2.564064
 C    4.350495   -0.000800    2.056022
 C    4.700849   -0.512566    0.809029
 C    3.745610   -1.211202    0.079502
 C    3.869810   -1.864011   -1.282154
 C    2.624845   -2.775659   -1.338540
 H   -5.320909   -2.343514    0.128375
 H   -3.740046   -2.469764   -0.682665
 H   -4.007457   -0.165022   -1.589716
 H   -5.360541   -1.202338   -2.082185
 H   -5.417250    0.651035    0.032865
 H    3.020984    1.794848    0.515636
 H    2.252610    3.305519    0.513485
 H    1.402215   -0.596215   -1.843811
 H    0.883998   -2.798388    0.032480
 H    1.083205   -0.962110    2.201568
 H    2.806399    0.246534    3.533519
 H    5.085546    0.551040    2.637273
 H    5.704069   -0.361483    0.416684
 H    4.802276   -2.424901   -1.396789
 H    3.854069   -1.090930   -2.062103
 H    2.232870   -2.922145   -2.350063
 H    2.874761   -3.759686   -0.923484
