44 
5doh_ligand_dft.xyz
 F   -1.305487   -2.344855   -0.450741
 C   -1.197329   -1.031246   -0.218332
 C   -2.201880   -0.405939    0.508375
 S   -3.587930   -1.298825    1.163377
 C   -4.484194   -1.670867   -0.390246
 C   -4.922440   -0.414418   -1.139985
 O   -5.764064    0.414477   -0.382595
 C   -2.082876    0.968125    0.710014
 F   -3.031644    1.643392    1.361985
 C   -0.992329    1.665438    0.222453
 F   -0.920864    2.965793    0.482524
 C   -0.071402   -0.372316   -0.735916
 C    0.018408    1.014663   -0.490022
 S    1.425721    2.020205   -0.973876
 O    0.956995    3.280299   -1.509931
 N    2.107376    2.341948    0.501106
 O    2.317222    1.186198   -1.774207
 N    0.870890   -1.132292   -1.429289
 C    1.650525   -2.099781   -0.619835
 C    2.359627   -1.423005    0.540986
 C    1.840088   -1.030487    1.769646
 C    2.660571   -0.340416    2.661747
 C    3.980406   -0.044201    2.318828
 C    4.499075   -0.438155    1.082340
 C    3.682970   -1.134913    0.198517
 C    3.999253   -1.656729   -1.182482
 C    2.828307   -2.626615   -1.460180
 H   -5.362171   -2.235329   -0.062750
 H   -3.864606   -2.315295   -1.019957
 H   -4.034536    0.125278   -1.505423
 H   -5.498252   -0.722070   -2.018688
 H   -5.252458    0.740462    0.370389
 H    2.806971    1.654430    0.776374
 H    2.440280    3.299824    0.538886
 H    1.508681   -0.518179   -1.925398
 H    0.975592   -2.896641   -0.302453
 H    0.810836   -1.256263    2.035163
 H    2.269699   -0.030379    3.625874
 H    4.612885    0.489206    3.022714
 H    5.530555   -0.213327    0.824469
 H    4.973040   -2.152663   -1.237217
 H    4.014804   -0.827311   -1.899721
 H    2.564679   -2.705281   -2.518138
 H    3.091540   -3.627717   -1.104351
