57 
5dp4_ligand_ani.xyz
 O   -5.243895   -0.913867    2.040883
 O    1.599649    3.511204   -0.816452
 C    1.925834   -1.436860   -0.917277
 C    4.376354   -1.071803   -0.399543
 C    5.774758   -2.840914    0.455901
 C    4.688226   -3.709035    0.407528
 C   -3.711887   -0.688767    0.133284
 C    3.451845   -3.253499   -0.039203
 C   -4.938944   -1.186841    0.896621
 C   -1.944081    2.784140    0.023992
 C   -0.742688    3.423508   -0.675235
 C    0.594036    3.163258   -0.006700
 C   -0.283222   -0.398934   -0.412139
 C    2.933873    3.307838   -0.310321
 O    0.760793    2.721432    1.113053
 C    3.334644    4.364385    0.702854
 C   -2.095973    1.276377   -0.212439
 C   -3.388259    0.767310    0.441588
 C   -4.035883   -1.021856   -1.327444
 C   -4.957916   -2.246174   -1.219733
 N   -5.621071   -2.014720    0.052049
 N   -0.931630    0.569440    0.293328
 O   -0.734715   -0.886502   -1.439789
 C    1.025831   -0.885566    0.202878
 C    0.709971   -1.920407    1.291706
 C    3.274376   -1.928349   -0.448862
 C    5.614362   -1.519764    0.050841
 H    2.055564   -0.652452   -1.671855
 H    1.378178   -2.244472   -1.414944
 H    4.272396   -0.039272   -0.730661
 H    6.741515   -3.193408    0.805954
 H    4.801535   -4.743422    0.720713
 H   -2.877570   -1.319500    0.467881
 H    2.601151   -3.934472   -0.057336
 H   -2.854394    3.278914   -0.334609
 H   -1.880831    2.977111    1.103353
 H   -0.668625    3.094808   -1.718879
 H   -0.864743    4.513912   -0.703662
 H    2.995846    2.304772    0.127351
 H    3.563484    3.352054   -1.202221
 H    2.704602    4.301370    1.593136
 H    4.374158    4.197815    1.003630
 H    3.251899    5.368854    0.276787
 H   -2.137574    1.084306   -1.293328
 H   -4.225703    1.395760    0.107985
 H   -3.327542    0.887219    1.530119
 H   -3.132065   -1.204772   -1.914082
 H   -4.584056   -0.187888   -1.785719
 H   -5.685316   -2.303546   -2.034389
 H   -4.376823   -3.179455   -1.208986
 H   -6.371125   -2.590354    0.403181
 H   -0.430830    1.031922    1.040286
 H    1.517569   -0.019748    0.674101
 H    0.041822   -1.497238    2.048676
 H    1.621350   -2.251682    1.799788
 H    0.219121   -2.800160    0.858312
 H    6.459712   -0.836421    0.080450
