57 
5dp4_ligand_xtb.xyz
 O   -4.988660   -1.344681    2.040483
 O    1.370053    3.192213   -0.799125
 C    2.043580   -1.029967   -0.967542
 C    4.188062   -0.979439    0.335292
 C    5.491142   -2.959156    0.701678
 C    4.575106   -3.689585   -0.035058
 C   -3.516034   -0.756496    0.168129
 C    3.468007   -3.064971   -0.581993
 C   -4.669665   -1.461365    0.880369
 C   -2.043010    2.840076    0.372545
 C   -0.900576    3.548538   -0.353855
 C    0.458661    3.143325    0.172044
 C   -0.228152   -0.088221   -0.520488
 C    2.726848    2.912485   -0.450211
 O    0.701269    2.837274    1.312342
 C    3.456810    4.178656   -0.026792
 C   -2.148833    1.367125   -0.031983
 C   -3.379148    0.700190    0.598092
 C   -3.820838   -0.970697   -1.316770
 C   -4.651441   -2.258446   -1.333999
 N   -5.269761   -2.255115   -0.028816
 N   -0.943249    0.661811    0.341797
 O   -0.549570   -0.242772   -1.683023
 C    0.983571   -0.765149    0.112411
 C    0.509294   -2.067268    0.762804
 C    3.259632   -1.703192   -0.403455
 C    5.295162   -1.600714    0.884316
 H    2.320885   -0.074160   -1.418520
 H    1.591074   -1.645762   -1.745965
 H    4.044583    0.082603    0.478368
 H    6.355335   -3.445344    1.129836
 H    4.722970   -4.749458   -0.184017
 H   -2.602652   -1.295807    0.442595
 H    2.756687   -3.640045   -1.157450
 H   -2.983932    3.338681    0.138983
 H   -1.875681    2.908719    1.449538
 H   -0.928752    3.352113   -1.425743
 H   -0.982613    4.628098   -0.203117
 H    2.736375    2.180054    0.363378
 H    3.174077    2.482559   -1.348919
 H    3.003819    4.586022    0.874094
 H    4.498857    3.948862    0.176144
 H    3.404531    4.924082   -0.816551
 H   -2.214348    1.285644   -1.122731
 H   -4.274419    1.251366    0.305385
 H   -3.305767    0.735435    1.687116
 H   -2.916958   -1.047672   -1.916685
 H   -4.421076   -0.139552   -1.689965
 H   -5.407270   -2.262640   -2.122604
 H   -4.013410   -3.143111   -1.458837
 H   -6.009470   -2.891135    0.219668
 H   -0.624936    0.779819    1.291547
 H    1.400695   -0.111020    0.885071
 H   -0.229775   -1.866706    1.536373
 H    1.349462   -2.589378    1.215103
 H    0.060962   -2.715866    0.012741
 H    6.008023   -1.023927    1.455666
