74 
5dp5_ligand_ani.xyz
 C    0.027904    0.685541   -0.584829
 C    0.136122    1.316322    0.823462
 C    0.137471    2.829211    0.783397
 C    1.338683    3.517330    0.589003
 C    1.364723    4.905988    0.516411
 C    0.171840    5.598961    0.643390
 C   -1.037769    4.952046    0.838754
 O    3.520013    0.602614    0.364571
 N    5.504814    0.523515   -0.789700
 N   -4.094865   -1.366222   -0.166595
 N    1.388177   -1.252162    0.078983
 C   -2.521461    0.407533   -0.615964
 O   -2.902222    0.814020    0.466958
 O   -2.214281   -3.105647    0.899913
 C   -1.038440   -3.089038    1.212943
 O   -0.549897   -2.354186    2.211262
 C   -1.487763   -1.512999    2.925528
 C   -2.419563   -2.309454    3.819711
 C   -0.024515   -3.974987    0.535787
 C    1.454474   -3.655435    0.743050
 C    2.007298   -2.542010   -0.159922
 C    3.528923   -2.410884    0.006202
 C    4.190565   -1.395571   -0.930663
 C    5.631572   -1.724124   -1.349461
 C    6.229236   -0.354418   -1.693869
 C    4.326057    0.019916   -0.352848
 C    0.316002   -0.820498   -0.634541
 O   -0.353820   -1.577554   -1.328824
 C   -1.301835    0.975246   -1.308034
 C   -3.350650   -0.708323   -1.279386
 C   -4.278573   -0.189467   -2.400988
 C   -5.287256    0.867042   -1.943152
 C   -4.987227   -1.353210   -3.094924
 C   -1.045752    3.561616    0.906153
 F    0.188794    6.942838    0.574917
 H    0.831441    1.140996   -1.188591
 H    1.073750    0.998128    1.290297
 H   -0.679921    0.956723    1.458365
 H    2.265690    2.954017    0.494895
 H    2.288705    5.455001    0.364425
 H   -1.948397    5.534500    0.932427
 H    5.745283    1.493531   -0.648874
 H   -3.508172   -2.120951    0.247279
 H   -4.273885   -0.634958    0.549441
 H   -4.978897   -1.768478   -0.502078
 H    1.993529   -0.559261    0.505484
 H   -0.841749   -0.851765    3.510121
 H   -2.044709   -0.908955    2.200263
 H   -3.064688   -2.958517    3.223746
 H   -3.049925   -1.619226    4.389621
 H   -1.849978   -2.922837    4.523695
 H   -0.287164   -3.981208   -0.524441
 H   -0.246743   -4.981948    0.911699
 H    2.019076   -4.566500    0.508705
 H    1.643725   -3.418039    1.794528
 H    1.782006   -2.821947   -1.199753
 H    3.976598   -3.397874   -0.166071
 H    3.753350   -2.145954    1.048425
 H    3.579736   -1.286616   -1.837720
 H    5.677317   -2.429424   -2.183418
 H    6.176242   -2.160726   -0.503374
 H    6.041513   -0.091339   -2.744961
 H    7.306008   -0.298556   -1.511446
 H   -1.245183    0.566025   -2.319449
 H   -1.446368    2.056600   -1.396254
 H   -2.661023   -1.431033   -1.714538
 H   -3.610445    0.278399   -3.136590
 H   -6.013303    0.449744   -1.233856
 H   -4.797217    1.716665   -1.457801
 H   -5.853427    1.246193   -2.800770
 H   -4.284174   -2.144305   -3.380453
 H   -5.492005   -1.007655   -4.003630
 H   -5.756856   -1.803167   -2.456242
 H   -1.984517    3.031301    1.041544
