70 
5dp7_ligand_ani.xyz
 C   -0.523507    1.311794    1.796898
 C   -1.776711    0.980975    2.634439
 C   -2.633756   -0.091582    1.996183
 C   -2.363909   -1.448443    2.195298
 C   -3.145541   -2.424745    1.586679
 C   -4.197207   -2.062518    0.747529
 N   -2.249242   -2.359018   -2.046058
 C   -4.462429   -0.716259    0.520943
 C   -1.539369    3.200072   -1.323492
 C   -2.997029    2.772034   -1.570598
 C   -3.962303    3.599861   -0.721913
 C   -3.337981    2.888197   -3.055545
 C   -1.105814    3.008649    0.122065
 O   -0.980327    3.923856    0.921198
 N   -0.865129    1.704468    0.449585
 C   -3.694347    0.255737    1.153428
 C    0.447934    0.125549    1.830498
 O    0.748783   -0.402936    2.893695
 N    0.928086   -0.292012    0.633965
 C    1.635072   -1.551387    0.486542
 C    1.173605   -2.250151   -0.799303
 C   -0.312947   -2.630923   -0.783909
 C   -1.256012   -1.633676   -1.472573
 O   -1.155963   -0.414136   -1.504933
 C   -2.153969   -3.792059   -1.821854
 C   -0.667798   -3.955765   -1.475698
 C    3.150991   -1.359543    0.589614
 C    3.754607   -0.449370   -0.473703
 C    5.222697   -0.201907   -0.212517
 O    5.858821   -0.671764    0.702302
 O    5.743383    0.618196   -1.141300
 C    7.137029    0.945815   -0.987900
 C    7.363544    1.990872    0.090696
 H   -0.011105    2.164139    2.258463
 H   -2.350138    1.908420    2.747999
 H   -1.442406    0.667363    3.628910
 H   -1.527117   -1.735169    2.828925
 H   -2.929330   -3.476471    1.768458
 H   -4.817324   -2.827083    0.283906
 H   -3.064029   -1.909697   -2.435393
 H   -5.273376   -0.421933   -0.140918
 H   -1.418187    4.259887   -1.566570
 H   -0.873906    2.617572   -1.978730
 H   -3.093904    1.711512   -1.287459
 H   -3.926587    4.654770   -1.023828
 H   -4.992883    3.249470   -0.848532
 H   -3.712583    3.561848    0.344374
 H   -3.221006    3.924014   -3.397863
 H   -4.373867    2.587395   -3.248264
 H   -2.683548    2.255152   -3.665987
 H   -1.247300    0.988040   -0.160874
 H   -3.930441    1.305046    0.991072
 H    0.572313    0.143279   -0.206152
 H    1.347849   -2.166645    1.347920
 H    1.375342   -1.614040   -1.670574
 H    1.775659   -3.158852   -0.926157
 H   -0.654307   -2.683945    0.261754
 H   -2.791331   -4.103426   -0.979325
 H   -2.455976   -4.349765   -2.712767
 H   -0.470066   -4.825935   -0.843758
 H   -0.084348   -4.062736   -2.398460
 H    3.645075   -2.337465    0.554329
 H    3.368096   -0.943775    1.579029
 H    3.247262    0.523421   -0.497652
 H    3.659735   -0.872851   -1.482458
 H    7.693860    0.029341   -0.772132
 H    7.429158    1.321503   -1.970699
 H    7.069784    1.602155    1.069161
 H    6.791142    2.899764   -0.118165
 H    8.427102    2.248558    0.127415
