61 
5dpa_ligand_xtb.xyz
 N    2.039574    3.960987   -1.206251
 C   -1.264845   -0.123147    0.007288
 C   -2.140422   -0.169702   -1.248054
 C   -3.594478   -0.127061   -0.880698
 C   -4.307101    1.063885   -0.918339
 C   -5.637464    1.103593   -0.539035
 C   -6.272862   -0.050070   -0.114509
 C   -5.571167   -1.243127   -0.072941
 C   -4.241861   -1.279399   -0.452130
 C    0.150170   -3.595919   -2.082361
 C   -1.303358    1.230857    2.061146
 C   -1.586234    2.613636    2.589684
 O    3.485628   -3.477408   -0.022288
 C    2.434793   -3.281449    0.531560
 O    1.247951   -3.658580    0.060393
 C    1.193020   -4.290117   -1.222222
 C    2.280786   -2.566926    1.858507
 C    2.973856   -1.201706    1.812071
 C    2.457642   -0.340559    0.655575
 C    3.082742    1.061925    0.679012
 C    2.778086    1.855620   -0.597080
 C    3.956860    2.662974   -1.151086
 C    3.278971    3.794743   -1.927830
 C    1.687734    2.909096   -0.442800
 O    0.676901    2.843942    0.224369
 N    1.015924   -0.262125    0.718809
 C    0.226055   -0.249025   -0.358731
 O    0.622781   -0.345807   -1.506958
 N   -1.515428    1.102216    0.737846
 O   -0.921473    0.303562    2.759802
 H    1.434089    4.752467   -1.349994
 H   -1.516427   -0.951669    0.681636
 H   -1.905241   -1.085901   -1.791136
 H   -1.874876    0.674987   -1.886549
 H   -3.820042    1.968173   -1.255886
 H   -6.179918    2.037407   -0.575709
 H   -7.311260   -0.020511    0.180900
 H   -6.062247   -2.147496    0.255613
 H   -3.697900   -2.212714   -0.418892
 H    0.122408   -4.058318   -3.064909
 H    0.395449   -2.541805   -2.190474
 H   -0.830675   -3.682293   -1.621253
 H   -1.491011    2.620373    3.671302
 H   -0.860425    3.297124    2.154018
 H   -2.586568    2.931181    2.306194
 H    2.185826   -4.234723   -1.680041
 H    0.931409   -5.340866   -1.057577
 H    1.219936   -2.462272    2.080637
 H    2.747214   -3.180896    2.631131
 H    4.046209   -1.351379    1.681615
 H    2.803612   -0.682860    2.757217
 H    2.709235   -0.822239   -0.296965
 H    2.701889    1.602750    1.548659
 H    4.163342    0.955334    0.786211
 H    2.411864    1.167214   -1.367596
 H    4.615509    2.066333   -1.777669
 H    4.537810    3.077159   -0.325156
 H    3.858462    4.720578   -1.925634
 H    3.086207    3.502692   -2.968166
 H    0.590366   -0.144139    1.632549
 H   -1.584581    1.944352    0.188389
