47 
5dro_ligand_xtb.xyz
 C    1.503615   -1.386299   -0.973990
 C   -1.890032   -0.093385   -0.339236
 C   -4.442833   -0.034644   -0.121528
 C   -7.051109    0.019983    0.106720
 C   -9.837197    0.084819    0.361367
 C   -9.229298    0.316903   -0.875784
 C    0.288980    0.986530   -0.217220
 C    6.480980    1.857349    0.227716
 C    6.135706    2.971570   -0.752273
 O    6.926134   -0.435469    1.779514
 C    6.467851   -0.625853    0.657965
 N    6.361911   -1.839783    0.121450
 O    6.677993   -2.947573    0.910292
 C    5.957966    0.490698   -0.262683
 N    4.512101    0.507419   -0.213923
 C    3.752563   -0.401622   -0.861078
 O    4.259686   -1.295834   -1.531081
 C    2.285629   -0.261116   -0.709734
 C    0.133636   -1.338403   -0.849716
 C   -0.491646   -0.147557   -0.465318
 C   -3.099868   -0.067087   -0.237456
 C   -5.652809   -0.011268   -0.018838
 C   -7.656645   -0.215597    1.344897
 C   -9.026817   -0.184583    1.468016
 N  -11.201184    0.187877    0.501647
 C   -7.859353    0.286080   -1.002750
 C    1.661030    0.929036   -0.336842
 O    5.903837    2.154499    1.476415
 H    2.000159   -2.296102   -1.276452
 H   -9.848591    0.523961   -1.737191
 H   -0.195222    1.909566    0.066871
 H    7.574952    1.783115    0.323909
 H    6.460173    3.922063   -0.339092
 H    6.635419    2.803883   -1.701750
 H    5.062486    3.013997   -0.915888
 H    5.765493   -2.039177   -0.684311
 H    7.011361   -2.556927    1.742057
 H    6.275823    0.286447   -1.290437
 H    4.123551    1.140261    0.471963
 H   -0.467735   -2.213140   -1.048367
 H   -7.038416   -0.425150    2.205673
 H   -9.488680   -0.367566    2.428008
 H  -11.610983   -0.229026    1.320738
 H  -11.754959    0.125794   -0.336268
 H   -7.398721    0.466067   -1.963224
 H    2.238521    1.825453   -0.162242
 H    6.222295    1.479581    2.097243
