55 
5dt2_ligand_ani.xyz
 C   -0.724851    3.398381   -0.764404
 C   -0.661407    2.168816   -0.083931
 C   -1.704016    1.257214   -0.012848
 C    0.993313    0.978301    1.317379
 C   -4.034218   -0.613232   -0.469239
 C    0.303608    0.793592    2.514424
 C    0.654584   -0.220503    3.396839
 C    1.688520   -1.092025    3.063492
 C    2.372267   -0.935977    1.861106
 C    2.034350    0.096151    0.987774
 C   -5.276445   -2.485948   -0.294763
 C   -4.167479   -3.244637    0.017192
 C   -2.944178   -2.546124    0.052721
 C    3.435835   -0.702402   -0.759179
 C    2.793441   -1.842289   -1.236742
 C    3.548062   -2.835740   -1.853406
 C    4.925069   -2.693973   -1.997821
 C    5.551463   -1.542741   -1.526853
 C    4.808175   -0.541432   -0.913376
 C   -2.871292    1.584376   -0.685629
 C   -2.977906    2.830954   -1.359395
 C   -1.930809    3.724763   -1.407012
 C    0.557235    4.023933   -0.601125
 C    1.342353    3.185638    0.138971
 N    0.615223    2.036027    0.451443
 C    2.751696    3.367879    0.601479
 N   -3.985098    0.736053   -0.711780
 N   -5.251285   -1.171675   -0.545739
 N   -2.892198   -1.238052   -0.198537
 O    2.723702    0.327331   -0.176348
 N   -1.750020   -3.147239    0.305998
 C   -0.565449   -2.332704    0.483692
 H   -1.613140    0.336597    0.545967
 H   -0.517668    1.470202    2.734680
 H    0.116906   -0.337108    4.334089
 H    1.956192   -1.900797    3.738515
 H    3.175700   -1.614242    1.593104
 H   -6.259449   -2.951706   -0.349785
 H   -4.224448   -4.311193    0.211125
 H    1.719509   -1.953838   -1.109292
 H    3.053700   -3.731153   -2.219892
 H    5.506177   -3.476700   -2.477673
 H    6.625962   -1.420701   -1.639298
 H    5.282937    0.363520   -0.543727
 H   -3.910308    3.074939   -1.863129
 H   -2.040921    4.666079   -1.938330
 H    0.858886    4.988566   -0.990642
 H    3.392555    2.586087    0.185067
 H    3.118568    4.347074    0.281017
 H    2.818553    3.310553    1.693987
 H   -4.869289    1.132603   -0.992724
 H   -1.770627   -4.057035    0.737324
 H   -0.475249   -1.665660   -0.380270
 H   -0.624754   -1.695165    1.376061
 H    0.322709   -2.966986    0.558821
