35 
5dtj_ligand_xtb.xyz
 C    2.587038   -0.011990    0.025914
 C    3.539609    1.018349   -0.008335
 C    4.893079    0.748294   -0.029499
 C    5.318768   -0.572453   -0.016132
 C    4.401587   -1.606444    0.019292
 C    3.045390   -1.325281    0.040298
 C    0.281146   -0.621037    0.061606
 C   -1.063958    0.097775    0.047133
Cl    2.989649    2.649246   -0.024771
Cl    7.009208   -0.917822   -0.044103
 O    1.289934    0.368501    0.041537
 C   -2.228907   -0.887395    0.055528
 C   -3.573143   -0.165626    0.037380
 C   -4.743408   -1.155328    0.032630
 N   -6.007611   -0.474029   -0.000849
 C   -6.683661    0.040934    1.070063
 C   -7.790132    0.654807    0.559545
 N   -7.804350    0.534107   -0.793096
 C   -6.729611   -0.137519   -1.096050
 H    5.604522    1.557335   -0.056667
 H    4.739463   -2.630226    0.030435
 H    2.346794   -2.145565    0.068540
 H    0.371476   -1.272172   -0.818765
 H    0.372553   -1.237433    0.966649
 H   -1.111305    0.726514   -0.843059
 H   -1.118478    0.751866    0.918411
 H   -2.166512   -1.516627    0.946600
 H   -2.157260   -1.541084   -0.817013
 H   -3.640093    0.466903   -0.850183
 H   -3.655726    0.481473    0.913000
 H   -4.702920   -1.782201    0.928923
 H   -4.676542   -1.803372   -0.846247
 H   -6.332796   -0.079977    2.074444
 H   -8.574267    1.170938    1.075620
 H   -6.438019   -0.411644   -2.090738
