33 
5dtk_ligand_ani.xyz
 C   -0.043695    3.594765   -0.202902
 C   -2.520727   -0.716849    0.048281
 C   -1.228484    0.018292    0.025110
 C   -1.202654    1.413191   -0.034683
 C    0.007483    2.096207   -0.111567
 C    1.208475    1.388325   -0.056101
 C    4.740754   -1.056414    0.861626
 N   -4.967730   -2.113188    0.073524
 C   -0.016648   -0.675981    0.049113
 C    1.208516   -0.004668    0.030002
 C    2.490922   -0.758029    0.079918
 O   -0.954801    4.253638    0.222941
 O    1.007101    4.190391   -0.808570
 C    3.566495   -0.313284    0.848284
 N    4.920191   -2.182276    0.167170
 C    3.887733   -2.598333   -0.569680
 C    2.666929   -1.937770   -0.641523
 C   -3.590606   -0.293340    0.836156
 C   -4.773550   -1.022581    0.818345
 C   -3.941554   -2.508305   -0.683317
 C   -2.711924   -1.861760   -0.724640
 H   -2.125326    1.987625   -0.044543
 H    2.163952    1.910630   -0.055754
 H    5.587210   -0.721532    1.459056
 H   -0.028282   -1.760493    0.129770
 H    1.574951    3.521665   -1.215968
 H    3.481232    0.588937    1.447165
 H    4.040064   -3.517994   -1.132145
 H    1.868692   -2.323493   -1.269491
 H   -3.494942    0.583605    1.470060
 H   -5.614258   -0.705729    1.433163
 H   -4.106836   -3.398184   -1.288524
 H   -1.916866   -2.229821   -1.367156
