29 
5dtq_ligand_xtb.xyz
 C   -2.619948    1.169310   -0.156063
 C   -3.786216    1.104779   -0.901830
 C   -4.328062   -0.132767   -1.204233
 C    0.532746    0.035220    0.404916
 C    0.578611   -0.083571   -1.002959
 C    1.776210   -0.133033   -1.654381
 C    2.989956   -0.064195   -0.935212
 C    2.950251    0.057027    0.482956
 C    1.704747    0.103467    1.127961
 C    5.268276   -0.047796   -0.949238
 C    5.346013    0.073901    0.451639
 C    4.182817    0.126028    1.168800
 C   -3.715803   -1.298760   -0.776802
 C   -2.549813   -1.216767   -0.032782
 C   -1.988879    0.013678    0.289713
Cl   -1.909201    2.696997    0.222257
Cl   -1.751885   -2.652206    0.503023
 C   -0.747550    0.093478    1.141281
 O   -0.819977    0.198626    2.342288
 N    4.151025   -0.114088   -1.616079
 H   -4.258314    2.014035   -1.236803
 H   -5.237300   -0.189465   -1.782013
 H   -0.345300   -0.134608   -1.559915
 H    1.832124   -0.224338   -2.727631
 H    1.655297    0.194837    2.204043
 H    6.173247   -0.091588   -1.542347
 H    6.309439    0.123849    0.934888
 H    4.184914    0.219258    2.245844
 H   -4.133148   -2.263817   -1.014178
