24 
5dts_ligand_ani.xyz
 O   -2.994611   -2.173562   -0.028605
 C   -3.258165   -0.867940    0.201738
 O   -4.359436   -0.518820    0.534548
 C   -2.110854    0.084625    0.015218
 C   -2.412876    1.422050   -0.235747
 C   -1.386179    2.340791   -0.423449
 C   -0.059730    1.931167   -0.339229
 C    0.258879    0.596119   -0.067918
 C   -0.778974   -0.318894    0.112357
 C    1.670924    0.142582    0.001840
 C    2.046441   -1.091403   -0.536197
 N    3.287877   -1.570867   -0.531356
 C    4.228305   -0.820937    0.046495
 C    3.971579    0.418792    0.623780
 C    2.673846    0.909184    0.592865
 H   -2.114888   -2.266084   -0.419829
 H   -3.456365    1.718816   -0.279356
 H   -1.618524    3.381725   -0.628755
 H    0.739831    2.649376   -0.504039
 H   -0.527047   -1.339765    0.401583
 H    1.291861   -1.713216   -1.018086
 H    5.235537   -1.233139    0.045129
 H    4.773699    0.991140    1.080504
 H    2.433974    1.869456    1.044271
