21 
5dtt_ligand_ani.xyz
 C    0.295671    0.446768   -0.000390
 C    0.088046    1.829464   -0.032826
 C   -1.208304    2.332493   -0.078279
 C   -2.301182    1.469974   -0.074774
 C   -2.095339    0.089593   -0.025953
 C   -0.801264   -0.412899   -0.004746
 C   -3.215072   -0.910136   -0.052393
 C    4.018227   -0.640090    0.041784
 O   -4.407426   -0.490847    0.422893
 O   -3.087364   -2.032306   -0.466077
 C    1.638572   -0.150206    0.029430
 S    3.093108    0.802944   -0.047269
 C    3.186840   -1.712917    0.120561
 N    1.846443   -1.432732    0.110735
 H    0.931322    2.514136   -0.026938
 H   -1.367866    3.406569   -0.107234
 H   -3.305839    1.884158   -0.148297
 H   -0.645401   -1.486360    0.004579
 H    5.098102   -0.629496    0.031459
 H   -4.312589    0.371094    0.850183
 H    3.508584   -2.745111    0.188391
