58 
5du4_ligand_xtb.xyz
 C   -2.486194    0.071419   -0.871107
 C   -3.125585    1.438675   -0.569000
 C   -2.139913    2.584577   -0.836953
 C   -0.511333    1.012550    0.126986
 F   -2.741969    3.859194    1.089378
 C   -2.694043    3.888288   -0.244964
 F   -2.002829    4.967466   -0.603383
 F   -3.956799    4.095306   -0.667398
 C   -3.478735   -1.025568   -0.574535
 C   -3.655369   -1.481876    0.724823
 C   -4.593715   -2.458402    0.999980
 C   -5.382316   -2.995004   -0.009983
 C   -6.375416   -4.080877    0.286897
 C   -5.719384   -5.456682    0.152176
 C   -5.198931   -2.536443   -1.308075
 C   -4.258442   -1.562875   -1.588844
 N   -1.313938   -0.055059   -0.035892
 N   -0.881843    2.262247   -0.226072
 N    0.080229    3.170424    0.059069
 C    1.059606    2.492211    0.602945
 C    0.766846    1.111578    0.682584
 C    1.509855   -0.056091    1.136743
 O    1.059137   -1.190613    1.006129
 N    2.705173    0.196224    1.719178
 C    3.618503   -0.855330    2.116059
 C    4.798847   -0.928044    1.183199
 C    4.614764   -1.339153   -0.128834
 C    5.668899   -1.378426   -1.024022
 C    6.942040   -1.000436   -0.610499
 O    8.052585   -0.998706   -1.399625
 C    7.925637   -1.407588   -2.739332
 C    7.132386   -0.585190    0.707935
 C    6.072077   -0.546599    1.588558
 H   -2.213241    0.034608   -1.940243
 H   -4.022442    1.572237   -1.173392
 H   -3.410506    1.455243    0.485718
 H   -2.012726    2.763698   -1.916222
 H   -3.050479   -1.072589    1.519859
 H   -4.720430   -2.805547    2.015169
 H   -6.758741   -3.963417    1.302283
 H   -7.216183   -4.013696   -0.406377
 H   -5.345542   -5.600603   -0.859003
 H   -4.882899   -5.545806    0.841459
 H   -6.437482   -6.242902    0.372730
 H   -5.800382   -2.944421   -2.107648
 H   -4.129690   -1.217248   -2.604918
 H   -0.863127   -0.951052    0.110269
 H    1.943773    3.012791    0.914036
 H    3.056739    1.139529    1.718432
 H    3.950976   -0.675954    3.143300
 H    3.041045   -1.783452    2.078976
 H    3.628219   -1.635387   -0.454207
 H    5.486112   -1.706456   -2.035158
 H    7.585658   -2.445765   -2.812857
 H    7.239177   -0.759988   -3.294647
 H    8.923016   -1.325081   -3.168488
 H    8.124716   -0.295264    1.015174
 H    6.237173   -0.221754    2.605924
