54 
5du6_ligand_xtb.xyz
 O    2.463529    1.449859    2.473152
 C    1.756647    1.170952    1.522071
 N    1.669188   -0.109828    1.030414
 C    2.536342   -1.156758    1.535506
 C    3.707946   -1.400999    0.621203
 C    4.677451   -0.414072    0.474501
 C    5.742858   -0.594346   -0.387011
 C    3.816037   -2.575507   -0.111107
 C    4.879141   -2.775277   -0.974464
 C    5.826941   -1.777282   -1.099605
 F    6.865115   -1.963887   -1.943799
 C    0.899474    2.132770    0.839414
 C   -0.228031    1.924488    0.039789
 N   -0.658250    3.140900   -0.347349
 N    0.114794    4.128611    0.138738
 C    1.037102    3.539438    0.858596
 N   -0.845853    0.774198   -0.374075
 C   -2.122935    0.861376   -1.075133
 C   -2.803403    2.216007   -0.825146
 C   -1.843431    3.365802   -1.139518
 C   -2.442874    4.726495   -0.812177
 C   -3.033395   -0.264741   -0.656835
 C   -3.259637   -0.524091    0.690052
 C   -4.102928   -1.548001    1.076634
 C   -4.747840   -2.334814    0.130741
 C   -5.622712   -3.478669    0.553516
 C   -4.790486   -4.752972    0.712770
 C   -4.523700   -2.069561   -1.213789
 C   -3.677560   -1.048060   -1.603905
 H    1.332589   -0.228696    0.087301
 H    1.950685   -2.073132    1.662163
 H    2.884937   -0.809726    2.512757
 H    4.591183    0.497945    1.045682
 H    6.502867    0.160938   -0.508877
 H    3.067319   -3.347040   -0.003002
 H    4.977909   -3.685130   -1.545245
 H    1.790955    4.107345    1.364109
 H   -0.769135    0.001695    0.272714
 H   -1.913540    0.773342   -2.152259
 H   -3.695741    2.290641   -1.445809
 H   -3.105808    2.280587    0.222585
 H   -1.570274    3.337219   -2.205077
 H   -1.694320    5.498103   -0.963413
 H   -3.299311    4.920114   -1.452091
 H   -2.759698    4.758584    0.227091
 H   -2.777010    0.079481    1.447003
 H   -4.266745   -1.735770    2.127997
 H   -6.106685   -3.243908    1.503472
 H   -6.399766   -3.647191   -0.194387
 H   -4.309505   -5.010826   -0.228166
 H   -4.016975   -4.608558    1.463736
 H   -5.421700   -5.583379    1.019475
 H   -5.017088   -2.669797   -1.964567
 H   -3.514617   -0.856965   -2.654936
