57 
5duc_ligand_ani.xyz
 O    0.621896   -1.547840   -0.527829
 C    1.209889   -0.466954   -0.444456
 N    2.562941   -0.400441   -0.370234
 C    3.338345   -1.627816   -0.290915
 C    4.818627   -1.337316   -0.314436
 C    5.457043   -1.077037   -1.525078
 C    6.824343   -0.770015   -1.593046
 C    7.508985   -0.722877   -0.401218
 O    8.840367   -0.478312   -0.183639
 C    8.968191   -0.350352    1.228531
 O    7.797714   -0.898241    1.826346
 C    6.880892   -0.976529    0.811471
 C    5.543703   -1.290276    0.889310
 C    0.491706    0.817997   -0.421783
 C    0.893201    2.170053   -0.563285
 N   -0.129081    3.006764   -0.559495
 N   -1.217264    2.218538   -0.380857
 C   -2.585925    2.729299   -0.437414
 C   -2.774199    3.945735    0.468915
 F   -1.952924    4.949574    0.164192
 F   -4.039709    4.398977    0.325181
 F   -2.607668    3.645935    1.770118
 C   -0.892160    0.906186   -0.332863
 N   -1.844828   -0.063488   -0.212016
 C   -3.175345    0.277209   -0.694101
 C   -3.571273    1.618541   -0.053694
 C   -4.160383   -0.823821   -0.369735
 C   -5.192338   -1.133530   -1.256028
 C   -6.143344   -2.095527   -0.932921
 C   -6.090283   -2.779023    0.282142
 C   -7.107111   -3.840644    0.632003
 C   -6.555935   -5.264065    0.490540
 C   -5.044818   -2.476903    1.159561
 C   -4.096343   -1.513893    0.842550
 H    3.009344    0.481447   -0.172108
 H    3.043562   -2.259176   -1.136305
 H    3.063258   -2.180939    0.615744
 H    4.877116   -1.111856   -2.445212
 H    7.321434   -0.577098   -2.538523
 H    9.843829   -0.909299    1.566229
 H    9.052111    0.713675    1.494606
 H    5.067626   -1.494765    1.844071
 H    1.884396    2.586874   -0.703711
 H   -2.778730    3.086298   -1.458684
 H   -1.482997   -0.992284   -0.414381
 H   -3.148952    0.412332   -1.787785
 H   -3.569374    1.485504    1.033550
 H   -4.583075    1.900597   -0.354676
 H   -5.260385   -0.618490   -2.213120
 H   -6.945342   -2.317732   -1.634315
 H   -7.451380   -3.687654    1.663188
 H   -7.990813   -3.723812   -0.006700
 H   -6.235842   -5.456964   -0.538285
 H   -5.689300   -5.415478    1.143849
 H   -7.314740   -6.007397    0.757284
 H   -4.974180   -3.011631    2.105309
 H   -3.289868   -1.297632    1.539453
