57 
5duc_ligand_xtb.xyz
 O    0.878301   -1.107876    0.952292
 C    1.322080    0.033099    1.043644
 N    2.542628    0.302665    1.566237
 C    3.468662   -0.743323    1.945822
 C    4.553178   -0.918141    0.912450
 C    4.231954   -1.471918   -0.318569
 C    5.179365   -1.626232   -1.326156
 C    6.457229   -1.204496   -1.049888
 O    7.572327   -1.240604   -1.845602
 C    8.615846   -0.686090   -1.074446
 O    8.117391   -0.311749    0.191778
 C    6.787678   -0.643390    0.184080
 C    5.854597   -0.485165    1.178675
 C    0.546286    1.185692    0.610861
 C    0.808523    2.572038    0.520639
 N   -0.202247    3.229617    0.010578
 N   -1.155270    2.302436   -0.241941
 C   -2.440899    2.600538   -0.806707
 C   -3.003793    3.886193   -0.184052
 F   -2.349878    4.983914   -0.555676
 F   -4.284745    4.067487   -0.560527
 F   -3.004438    3.844464    1.151011
 C   -0.748436    1.061032    0.099242
 N   -1.533901   -0.022012   -0.038493
 C   -2.727466    0.081729   -0.846875
 C   -3.391747    1.430450   -0.516988
 C   -3.680371   -1.047719   -0.543477
 C   -4.458488   -1.600869   -1.550455
 C   -5.352719   -2.616270   -1.266612
 C   -5.490313   -3.101609    0.027361
 C   -6.423332   -4.239330    0.324584
 C   -5.691645   -5.576287    0.187335
 C   -4.707507   -2.544691    1.030949
 C   -3.815364   -1.526609    0.752820
 H    2.894966    1.244432    1.519398
 H    2.871774   -1.656098    2.026241
 H    3.901447   -0.503097    2.920982
 H    3.216613   -1.792809   -0.493816
 H    4.928873   -2.059703   -2.279363
 H    9.418165   -1.431102   -0.949263
 H    9.022547    0.200504   -1.587282
 H    6.124054   -0.051266    2.127662
 H    1.691427    3.110770    0.802983
 H   -2.354160    2.791879   -1.887806
 H   -1.063024   -0.909223    0.097784
 H   -2.475951    0.063728   -1.921842
 H   -3.646321    1.433847    0.545618
 H   -4.308583    1.546322   -1.094610
 H   -4.363205   -1.236409   -2.563568
 H   -5.951825   -3.037880   -2.060723
 H   -6.811476   -4.144421    1.340499
 H   -7.266991   -4.217800   -0.367925
 H   -5.306833   -5.694876   -0.823045
 H   -4.853654   -5.621501    0.879213
 H   -6.365409   -6.402241    0.402185
 H   -4.800880   -2.910705    2.043133
 H   -3.212528   -1.104032    1.542435
