40 
5duf_ligand_dft.xyz
 O   -0.996555    3.744433    0.126861
 C   -2.152680    3.348341    0.114161
 O   -3.195295    4.194700    0.220067
 C   -2.535539    1.964371   -0.025043
 C   -3.793981    1.318178   -0.146925
 N   -3.678557    0.025069   -0.341589
 N   -2.324117   -0.203789   -0.331579
 C   -1.759120   -1.512869   -0.576366
 C   -2.431259   -2.584513    0.288982
 F   -2.407769   -2.256032    1.585590
 F   -3.693338   -2.817760   -0.064412
 F   -1.755330   -3.742402    0.144554
 C   -1.610804    0.930215   -0.159105
 N   -0.251630    0.935452   -0.138477
 C    0.420287   -0.187826   -0.775951
 C   -0.251984   -1.473915   -0.274821
 C    1.896651   -0.191630   -0.448586
 C    2.827070   -0.574944   -1.412545
 C    4.181456   -0.636293   -1.103749
 C    4.641792   -0.311434    0.173317
 C    6.117954   -0.319389    0.491892
 C    6.770040    1.043544    0.226874
 C    3.703428    0.075842    1.132825
 C    2.348185    0.133453    0.831180
 H   -2.810486    5.081832    0.296296
 H   -4.773668    1.773184   -0.102313
 H   -1.943453   -1.796054   -1.618879
 H    0.148130    1.863758   -0.226881
 H    0.302050   -0.134830   -1.871022
 H   -0.097313   -1.538420    0.806987
 H    0.226914   -2.340918   -0.732985
 H    2.491380   -0.827170   -2.416115
 H    4.893734   -0.936610   -1.868533
 H    6.620217   -1.086542   -0.108847
 H    6.266527   -0.595366    1.542337
 H    6.307135    1.822206    0.842084
 H    6.650040    1.333026   -0.822398
 H    7.840477    1.016929    0.455132
 H    4.040167    0.334652    2.134030
 H    1.632052    0.439092    1.588747
