49 
5duw_ligand_xtb.xyz
 C    0.203305    0.162973    0.045418
 C    1.545501   -0.463700   -0.381395
 C    2.680526    0.435602    0.111757
 C    2.457601    1.880926   -0.380265
 C    1.032353    2.342232   -0.037403
 C    0.694007    3.696844   -0.672567
 O   -0.802235   -0.684234   -0.416944
 O    1.667448   -1.753451    0.180170
 O    3.929407    0.013420   -0.398129
 O    2.647332    1.955089   -1.764808
 O    0.064973    1.429473   -0.523149
 O   -0.581241    4.124628   -0.286448
 C   -4.889856   -0.305884   -0.087550
 C   -4.122089    0.687448    0.791205
 C   -2.645777    0.759877    0.378978
 C   -2.040675   -0.647139    0.276515
 C   -2.966494   -1.582605   -0.519630
 C   -2.487017   -3.039320   -0.460769
 O   -6.181455   -0.396026    0.402568
 O   -4.646383    1.984973    0.685009
 O   -1.934176    1.493056    1.342160
 O   -4.289279   -1.574747   -0.024504
 O   -3.299652   -3.882814   -1.222329
 S    4.731085   -1.054358    0.494144
 O    6.095420   -0.910518    0.161973
 O    4.230203   -2.413376   -0.089989
 O    4.307025   -0.912677    1.844562
 H    0.171840    0.237514    1.149791
 H    1.567212   -0.515102   -1.479035
 H    2.730054    0.384942    1.205322
 H    3.178059    2.534450    0.137177
 H    0.936392    2.409809    1.058230
 H    1.401467    4.454397   -0.332619
 H    0.768434    3.589362   -1.760879
 H    0.829951   -2.210535    0.015972
 H    3.466076    1.482788   -1.969164
 H   -1.184277    3.390585   -0.455869
 H   -4.884980    0.052998   -1.139335
 H   -4.185403    0.324584    1.829459
 H   -2.579219    1.244325   -0.607318
 H   -1.900046   -1.024333    1.301459
 H   -2.965320   -1.243068   -1.567299
 H   -1.484839   -3.103321   -0.885312
 H   -2.465334   -3.359490    0.590462
 H   -6.598647   -1.187188    0.042031
 H   -5.595704    1.938246    0.851056
 H   -2.390420    2.336976    1.461915
 H   -4.209028   -3.763478   -0.922383
 H    3.268966   -2.450622    0.063147
