24 
5dva_ligand_ani.xyz
 C    2.066743   -1.074600   -0.604092
 C    1.666260    0.130111   -0.027045
 C    2.641142    0.877139    0.632438
 C    3.942037    0.390425    0.686795
 C    0.251920    0.583293   -0.106406
 C   -0.786296   -0.330146    0.077867
 C   -2.117946    0.078668    0.004459
 C   -2.418550    1.417435   -0.243395
 O   -3.022140   -2.172727   -0.021501
 C   -3.266327   -0.865931    0.222950
 O   -4.353017   -0.509332    0.593721
 C   -1.391714    2.332355   -0.448743
 C   -0.065656    1.918463   -0.377346
 C    3.397614   -1.462325   -0.507256
 N    4.335511   -0.756454    0.128528
 H    1.347454   -1.689739   -1.137226
 H    2.387619    1.814173    1.119936
 H    4.711768    0.959782    1.205160
 H   -0.529138   -1.355824    0.345510
 H   -3.461365    1.718715   -0.269973
 H   -2.157632   -2.272004   -0.443639
 H   -1.623640    3.373374   -0.653806
 H    0.737709    2.631556   -0.546307
 H    3.724542   -2.397697   -0.958470
