56 
5dwr_ligand_dft.xyz
 C    0.461476   -2.951877   -1.095821
 C   -0.408539   -2.610033    0.121382
 C    0.433322   -2.540466    1.387139
 C    3.362093    0.628872   -0.191630
 C    1.631216    2.413237    0.085877
 C    0.124505    2.532479    0.051185
 C   -0.445817    3.802949    0.062072
 C   -1.826924    3.912976    0.011512
 C   -2.561131    2.739248   -0.034104
 C   -1.925709    1.499330   -0.020279
 C   -2.731577    0.248950   -0.037095
 C   -3.282067   -0.258236   -1.213220
 C   -4.029894   -1.427167   -1.250849
 C   -4.265322   -2.109560   -0.063214
 C   -3.737293   -1.646180    1.141263
 C   -2.984561   -0.486809    1.112400
 F   -2.395992   -0.073313    2.272815
 F   -3.053923    0.404223   -2.344406
 F   -3.889535    2.780655   -0.083017
 N   -0.596022    1.405484    0.016431
 O    2.332981    3.365495    0.365847
 N    2.057779    1.155442   -0.228263
 C    4.486447    1.460567   -0.277110
 N    5.736066    1.004468   -0.258601
 C    5.917955   -0.310896   -0.161067
 C    4.867116   -1.215153   -0.067138
 C    3.551052   -0.759151   -0.073220
 C    2.418845   -1.766095    0.050031
 C    1.541005   -1.501396    1.294230
 N   -0.464130   -2.177287    2.560657
 C    1.583130   -1.916754   -1.237594
 C   -0.400393   -3.015087   -2.356318
 H    0.917386   -3.939008   -0.931156
 H   -0.874054   -1.631306   -0.051011
 H   -1.214672   -3.346538    0.229821
 H    0.840785   -3.526295    1.635507
 H    0.199893    4.672362    0.104442
 H   -2.333080    4.871844    0.005495
 H   -4.431618   -1.771991   -2.196331
 H   -4.870346   -3.009746   -0.072772
 H   -3.938260   -2.145488    2.083256
 H    1.302126    0.529831   -0.461484
 H    4.355274    2.533303   -0.353187
 H    6.947742   -0.658650   -0.156776
 H    5.075574   -2.278055    0.017376
 H    2.895803   -2.741430    0.215825
 H    2.176502   -1.525067    2.187887
 H    1.080457   -0.508411    1.245846
 H   -1.197878   -2.878475    2.697480
 H    0.069789   -2.103958    3.432062
 H   -0.942518   -1.274329    2.409202
 H    2.254938   -2.204214   -2.052677
 H    1.128749   -0.965961   -1.545280
 H    0.207543   -3.260330   -3.232029
 H   -1.182579   -3.775927   -2.266108
 H   -0.885817   -2.049452   -2.542849
