48 
5dxh_ligand_dft.xyz
 C   -3.163987   -0.851927   -0.590558
 C   -1.544560    0.964796   -0.230564
 C   -2.603537    1.744809    0.271648
 O   -5.417759   -2.628512   -0.747550
 N   -5.516138   -0.501340    0.108031
 C   -4.184398   -0.070230   -0.043135
 C   -8.149084   -0.881852    0.605352
 O   -7.356655   -1.894653    0.014556
 C   -6.037652   -1.725236   -0.242331
 C   -1.887340   -0.322269   -0.674882
 O   -2.456589    3.023837    0.713995
 C   -1.753912    3.915708   -0.144395
 C   -0.274947    3.948455    0.179070
 C    0.436187    2.645519   -0.058705
 C   -0.138957    1.406515   -0.239881
 S    1.096175    0.188553   -0.454091
 C    2.369930    1.354255   -0.318608
 C    1.858079    2.602204   -0.112117
 C    3.789107    1.062803   -0.445769
 N    4.715286    1.986337   -0.570028
 N    5.931893    1.362235   -0.638177
 C    5.715205    0.080093   -0.560600
 N    4.376959   -0.180892   -0.440771
 C    3.773998   -1.460332   -0.306150
 C    3.488366   -2.204601   -1.448292
 C    2.882914   -3.449872   -1.338593
 C    2.561312   -3.951665   -0.080763
 C    2.849842   -3.220102    1.066402
 C    3.460268   -1.976039    0.954791
Cl    3.816625   -1.060718    2.386986
 C   -3.891048    1.228957    0.364825
 H   -3.372165   -1.852966   -0.938346
 H   -6.126212    0.179935    0.529488
 H   -7.795892   -0.624374    1.611948
 H   -8.195463    0.016561   -0.023119
 H   -9.151893   -1.301019    0.686177
 H   -1.116716   -0.952932   -1.108412
 H   -2.199061    4.899661    0.025026
 H   -1.923362    3.634227   -1.191150
 H   -0.154381    4.247399    1.227654
 H    0.198377    4.733268   -0.425123
 H    2.495074    3.472970   -0.005690
 H    6.460263   -0.701677   -0.582184
 H    3.735439   -1.782052   -2.416792
 H    2.657387   -4.022250   -2.231926
 H    2.081430   -4.920403    0.013522
 H    2.602626   -3.605514    2.049099
 H   -4.659570    1.884834    0.764672
