48 
5dxh_ligand_xtb.xyz
 C   -3.005345   -0.902973   -0.151691
 C   -1.447727    0.989307   -0.151170
 C   -2.551645    1.862379   -0.106383
 O   -5.221022   -2.722633   -0.070119
 N   -5.419895   -0.448956   -0.008769
 C   -4.087536   -0.029227   -0.068443
 C   -8.127945   -0.768611    0.107942
 O   -7.240162   -1.865352    0.045411
 C   -5.895579   -1.731037   -0.015376
 C   -1.734541   -0.385004   -0.188911
 O   -2.553205    3.222923   -0.101525
 C   -1.413623    3.961002   -0.469905
 C   -0.256561    3.817019    0.522857
 C    0.527811    2.586256    0.218783
 C   -0.054330    1.383713   -0.117123
 S    1.172420    0.191576   -0.464079
 C    2.444072    1.328432   -0.147102
 C    1.932901    2.552874    0.189539
 C    3.830894    1.007959   -0.270322
 N    4.797826    1.893745   -0.323378
 N    5.955048    1.245648   -0.474360
 C    5.703618   -0.025573   -0.524392
 N    4.364019   -0.255098   -0.399055
 C    3.710999   -1.497119   -0.346197
 C    3.671530   -2.310076   -1.472210
 C    3.022689   -3.530036   -1.426004
 C    2.409454   -3.944531   -0.255502
 C    2.454133   -3.149784    0.876953
 C    3.109519   -1.930998    0.837011
Cl    3.185017   -0.937043    2.250966
 C   -3.840911    1.333571   -0.055875
 H   -3.169457   -1.965656   -0.176096
 H   -6.082094    0.310697    0.046757
 H   -7.978085   -0.173998    1.014960
 H   -8.053591   -0.132474   -0.780166
 H   -9.122721   -1.210991    0.139633
 H   -0.903926   -1.073935   -0.235043
 H   -1.768575    4.994811   -0.495309
 H   -1.079948    3.674445   -1.475532
 H   -0.673667    3.774938    1.532737
 H    0.396675    4.687480    0.458631
 H    2.564878    3.391196    0.418090
 H    6.427069   -0.806506   -0.636413
 H    4.146153   -1.968255   -2.379936
 H    2.992188   -4.153127   -2.305972
 H    1.894120   -4.891524   -0.219799
 H    1.985096   -3.469292    1.793804
 H   -4.653269    2.044561   -0.011594
