50 
5dxt_ligand_dft.xyz
 C    4.986895   -2.058818    0.547365
 C    5.159731   -1.037857   -0.585300
 C    6.636384   -0.867348   -0.911395
 C    3.310964    0.441418   -0.227385
 C    0.176811    3.975648   -0.512956
 C   -2.929353    2.089582    0.235933
 C   -2.988738    0.729442    0.093114
 C   -0.901017    1.247539   -0.010795
 C    0.559585    1.079047   -0.125992
 C    2.357696   -0.574157   -0.345413
 C   -6.212973   -0.625844    0.338478
 C   -3.289901   -2.384872   -0.415295
 N    4.961904   -1.523432    1.793250
 O    4.943531   -3.252509    0.309382
 O    4.660237    0.248430   -0.240240
 C    2.895985    1.758864   -0.081276
 C    1.543657    2.080883   -0.033853
 O    1.296368    3.412972    0.135303
 C   -1.098135    3.771787    0.280218
 N   -1.599285    2.415067    0.166392
 N   -1.729280    0.219157   -0.058610
 C    1.016294   -0.237287   -0.292327
 C   -4.211439   -0.061134    0.119838
 N   -5.402361    0.453381    0.406958
 N   -5.615874   -1.762044    0.031736
 N   -4.325901   -1.385958   -0.122224
 C   -2.754509   -2.966747    0.891221
 C   -3.839403   -3.449299   -1.357875
 H    4.626123   -1.431526   -1.456992
 H    6.756493   -0.183198   -1.755165
 H    7.170767   -0.460140   -0.048091
 H    7.068153   -1.837522   -1.169171
 H    0.070381    3.572971   -1.528456
 H    0.386553    5.045602   -0.581041
 H   -3.703176    2.827378    0.379039
 H    2.637728   -1.615398   -0.455144
 H   -7.278027   -0.577652    0.518457
 H   -2.486969   -1.833530   -0.907399
 H    4.876751   -0.527302    1.920750
 H    4.795899   -2.136929    2.575904
 H    3.628562    2.554743   -0.016187
 H   -0.910938    4.019036    1.330396
 H   -1.875295    4.442153   -0.098295
 H    0.267534   -1.018119   -0.358804
 H   -1.976582   -3.707899    0.680945
 H   -3.560758   -3.454890    1.448495
 H   -2.319733   -2.175658    1.509033
 H   -4.641217   -4.018570   -0.881948
 H   -3.032308   -4.136152   -1.631366
 H   -4.236646   -2.996815   -2.270858
