22 
5dy7_ligand_ani.xyz
 F    3.694715    0.309257   -0.831760
 C    2.902030   -0.340807    0.042765
 F    3.429062   -0.131284    1.265541
 F    3.010246   -1.655938   -0.214969
 C    1.483643    0.141310   -0.038111
 C    0.434531   -0.768371   -0.084705
 C   -0.875057   -0.303076   -0.117579
 N   -1.967403   -1.179899   -0.164848
 C   -3.277129   -0.817379    0.036074
 O   -4.190750   -1.615218   -0.025340
 C   -3.465486    0.641984    0.407565
 N   -2.473521    1.487407   -0.236308
 C   -1.139917    1.073978   -0.121810
 C   -0.078077    1.974538   -0.084670
 C    1.230721    1.514300   -0.039649
 H    0.637035   -1.836648   -0.099803
 H   -1.812671   -2.167855   -0.322778
 H   -3.429720    0.706783    1.509728
 H   -4.466150    0.941117    0.088679
 H   -2.588947    2.469705   -0.023517
 H   -0.282180    3.043544   -0.100056
 H    2.057351    2.215361   -0.010025
