22 
5dy7_ligand_dft.xyz
 F    3.778455    0.514948   -0.511041
 C    2.900838   -0.338337    0.043628
 F    3.282325   -0.510686    1.324079
 F    3.052619   -1.527858   -0.566837
 C    1.490983    0.164903   -0.056327
 C    0.435522   -0.745877   -0.079157
 C   -0.871836   -0.289692   -0.116831
 N   -1.958847   -1.172694   -0.199808
 C   -3.264976   -0.829401    0.031362
 O   -4.173212   -1.633076   -0.013477
 C   -3.473110    0.629617    0.411725
 N   -2.472925    1.482369   -0.207280
 C   -1.145991    1.090405   -0.114596
 C   -0.079914    1.988564   -0.084570
 C    1.231701    1.530914   -0.061630
 H    0.635214   -1.813010   -0.082545
 H   -1.790224   -2.152407   -0.384291
 H   -3.466513    0.685276    1.514000
 H   -4.467189    0.915078    0.064892
 H   -2.631123    2.471259   -0.073491
 H   -0.283047    3.055898   -0.091723
 H    2.051101    2.240575   -0.046831
