58 
5dyt_ligand_xtb.xyz
 C    3.485498   -1.175792    1.214978
 C    3.811699    1.308864   -0.381954
 C    5.244135    2.871346    0.754996
 C    3.015927    3.514907    0.141358
 C   -2.831645    0.732704   -1.746286
 C   -4.786521    0.876910   -0.330637
 C   -6.735536    1.021186    1.085836
 C   -1.101333   -2.435666   -1.927375
 N   -0.280442   -1.790824   -0.931869
 C    0.094702   -2.517622    0.257247
 C    1.533138   -3.083069    0.147425
 C    2.162062   -3.282382    1.530316
 C    2.572345   -1.949735    2.154580
 N    2.787724   -0.924283   -0.060511
 C    3.565346   -0.049322   -0.981183
 C    5.033595    1.619443    0.203523
 C    4.233993    3.818068    0.727900
 C    2.803560    2.265978   -0.415213
 C    2.441778   -2.201471   -0.714919
 S   -0.387610   -0.128389   -0.860231
 O    0.393874    0.220324    0.319173
 O    0.123299    0.366346   -2.103221
 C   -2.094557    0.300957   -0.637225
 C   -4.159381    1.018048   -1.588509
 C   -6.155272    1.162065   -0.144502
 C   -5.977463    0.590039    2.186924
 C   -4.648388    0.304873    2.042810
 C   -4.020152    0.439852    0.786779
 C   -2.652558    0.152506    0.599182
 H    4.395175   -1.746120    1.005343
 H    3.762711   -0.216069    1.654298
 H    6.197410    3.107190    1.201979
 H    2.232148    4.255516    0.110275
 H   -2.326470    0.844068   -2.692006
 H   -7.783216    1.241644    1.220550
 H   -2.116232   -2.632566   -1.565414
 H   -0.642416   -3.375808   -2.231700
 H   -1.148362   -1.772194   -2.788062
 H    0.035786   -1.825700    1.097355
 H   -0.606828   -3.335045    0.440553
 H    1.475485   -4.051315   -0.358878
 H    1.459141   -3.798891    2.183390
 H    3.044867   -3.916840    1.431378
 H    3.095716   -2.130138    3.093204
 H    1.696638   -1.339359    2.377877
 H    1.886726   -0.415342    0.158238
 H    4.510186   -0.548698   -1.212010
 H    2.979340    0.059680   -1.897043
 H    5.828684    0.887451    0.216046
 H    4.399550    4.794452    1.155914
 H    1.859205    2.031872   -0.883598
 H    3.372916   -2.736092   -0.923092
 H    1.941113   -1.979242   -1.659086
 H   -4.747351    1.357735   -2.427492
 H   -6.735732    1.494789   -0.991640
 H   -6.454508    0.486671    3.149392
 H   -4.060029   -0.025363    2.885916
 H   -2.048097   -0.165788    1.434738
