30 
5e0a_ligand_dft.xyz
 C   -0.230128   -1.401157    0.079599
 C    0.708032   -0.335624   -0.506378
 C    0.257592    1.043639   -0.004096
 C   -1.240041    1.222696   -0.261679
 C   -2.046098    0.072329    0.322816
 C   -3.529050    0.141716    0.000357
 C    3.144068   -0.001274    0.200350
 C    4.408778   -0.796782    0.458909
 N    2.063563   -0.741672   -0.143757
 O    0.142349   -2.627059   -0.461553
 O    0.869254    2.120510   -0.660694
 O   -1.679581    2.428432    0.310189
 O   -1.567874   -1.145870   -0.249156
 O   -4.215351   -0.976880    0.510705
 O    3.160428    1.223320    0.308823
 H   -0.121968   -1.403480    1.181148
 H    0.595138   -0.358856   -1.597879
 H    0.424074    1.097779    1.084414
 H   -1.389395    1.225470   -1.354526
 H   -1.917325    0.041626    1.416316
 H   -3.955976    1.032255    0.465098
 H   -3.652415    0.231093   -1.090646
 H    4.244564   -1.873508    0.550903
 H    5.110278   -0.613483   -0.360510
 H    4.868523   -0.421419    1.375420
 H    2.207513   -1.736479   -0.250657
 H   -0.400417   -3.313079   -0.053303
 H    1.805552    2.096654   -0.373834
 H   -1.014700    3.085392    0.054709
 H   -3.761113   -1.751144    0.153859
