63 
5e0g_ligand_dft.xyz
 C   -3.330154   -3.386202    0.647581
 O   -4.126574   -3.215526    1.721315
 O   -3.522968   -4.222701   -0.212513
 N   -1.484230    2.758556    1.319282
 C   -2.895579    3.072788    1.267468
 C   -3.464927    2.948955   -0.148939
 N   -3.412148    1.574650   -0.612741
 O   -0.195637   -0.724326    0.739046
 C   -0.165602   -1.667898   -0.053582
 C   -1.434224   -2.396320   -0.482272
 C   -2.140625   -1.659693   -1.655727
 C   -2.826147   -0.407498   -1.223932
 C   -2.373909    0.887811   -1.140517
 N   -4.446048    0.756294   -0.365953
 N   -4.099498   -0.437823   -0.738925
 N   -2.268981   -2.535032    0.684839
 N    1.980266    0.745441   -0.651175
 C    2.349696    2.087646   -1.060580
 C    1.209136    3.048491   -0.718571
 C    0.855647    3.162870    0.778517
 C   -0.563164    3.676367    0.898453
 O   -0.877885    4.814310    0.581364
 C    3.712611    2.469440   -0.478115
 O    3.684139    2.283424    0.925900
 N    0.975825   -2.124273   -0.612077
 C    2.292358   -1.612492   -0.246172
 C    2.629881   -0.357849   -1.082002
 O    3.408161   -0.368884   -2.024700
 C    3.371114   -2.686051   -0.384509
 C    4.554190   -2.515039    0.590133
 C    4.154543   -2.821826    2.037029
 C    5.224342   -1.139651    0.487969
 H   -4.858668   -3.837145    1.603423
 H   -1.205368    1.793686    1.433323
 H   -3.435935    2.401791    1.940165
 H   -3.029974    4.100861    1.611150
 H   -4.513639    3.251127   -0.172992
 H   -2.893851    3.580075   -0.833575
 H   -1.187445   -3.404440   -0.828298
 H   -2.891462   -2.349057   -2.050795
 H   -1.411008   -1.460284   -2.448482
 H   -1.434436    1.351114   -1.395901
 H   -2.314893   -1.740167    1.306836
 H    1.381977    0.627768    0.156611
 H    2.470289    2.079427   -2.149661
 H    1.442037    4.045544   -1.103623
 H    0.327430    2.707655   -1.275797
 H    0.967641    2.208330    1.301216
 H    1.532401    3.864414    1.269673
 H    3.931277    3.516109   -0.740033
 H    4.472077    1.828012   -0.943373
 H    4.583455    2.375878    1.258291
 H    0.931488   -2.897642   -1.259314
 H    2.202130   -1.300535    0.799360
 H    3.738611   -2.668494   -1.416096
 H    2.915427   -3.667314   -0.201383
 H    5.296840   -3.265688    0.289683
 H    5.031473   -2.795646    2.692810
 H    3.439002   -2.087321    2.426060
 H    3.697664   -3.813859    2.125385
 H    6.117953   -1.108640    1.121532
 H    4.554927   -0.336742    0.826110
 H    5.517272   -0.916961   -0.541739
