63 
5e0g_ligand_xtb.xyz
 C   -1.276524   -4.160377    0.735846
 O   -2.035456   -4.662975    1.730902
 O   -0.160215   -4.572883    0.488394
 N   -1.877338    2.522717    1.012855
 C   -3.265856    2.573367    1.393959
 C   -4.215891    2.244907    0.229990
 N   -3.955962    0.911969   -0.229708
 O   -0.482212   -0.308514   -0.262211
 C   -0.227771   -1.482440   -0.479020
 C   -1.251390   -2.497588   -1.031670
 C   -2.303236   -1.827750   -1.921932
 C   -3.092863   -0.841576   -1.140810
 C   -3.158605    0.530683   -1.249737
 N   -4.351263   -0.147251    0.459496
 N   -3.848204   -1.197601   -0.077814
 N   -1.899797   -3.184918    0.065188
 N    2.178888    1.121509   -0.317664
 C    1.991963    2.343811   -1.062739
 C    0.564058    2.874543   -0.849919
 C    0.319939    3.398870    0.566460
 C   -1.150098    3.652685    0.839363
 O   -1.633410    4.761577    0.938016
 C    3.097110    3.340840   -0.684286
 O    3.254389    3.356665    0.720742
 N    0.963239   -2.043876   -0.248467
 C    2.146608   -1.273899    0.097118
 C    2.166395   -0.092957   -0.889941
 O    2.164216   -0.274267   -2.089011
 C    3.369957   -2.174069   -0.083646
 C    4.689873   -1.659280    0.508103
 C    4.618425   -1.496609    2.025609
 C    5.169689   -0.366051   -0.147171
 H   -1.555152   -5.382088    2.164417
 H   -1.456345    1.622212    0.828958
 H   -3.449000    1.863528    2.205874
 H   -3.461823    3.592081    1.737587
 H   -5.249063    2.302747    0.578279
 H   -4.059725    2.942702   -0.594578
 H   -0.699894   -3.242959   -1.617723
 H   -2.962372   -2.602443   -2.319753
 H   -1.800879   -1.322757   -2.747137
 H   -2.713525    1.219221   -1.934755
 H   -2.790960   -2.804441    0.380789
 H    2.152288    1.218929    0.684155
 H    2.107233    2.078763   -2.119273
 H    0.363839    3.667492   -1.572372
 H   -0.108864    2.039506   -1.055132
 H    0.679255    2.674636    1.297984
 H    0.853640    4.336215    0.718095
 H    2.830614    4.335999   -1.062259
 H    4.036427    3.025720   -1.159897
 H    3.920516    4.010674    0.952279
 H    1.040259   -3.053483   -0.298318
 H    2.065706   -0.913443    1.129818
 H    3.499274   -2.334892   -1.156620
 H    3.144470   -3.139048    0.378968
 H    5.431783   -2.437723    0.292407
 H    5.610099   -1.297434    2.425126
 H    3.975730   -0.664400    2.302469
 H    4.237212   -2.401375    2.493462
 H    6.207152   -0.176381    0.120755
 H    4.574739    0.481362    0.180912
 H    5.101208   -0.436237   -1.229830
