63 
5e0g_ligand_ani.xyz
 C   -2.755967   -3.812893    0.729375
 O   -3.564801   -3.822217    1.809739
 O   -2.656125   -4.756544   -0.030425
 N   -1.754603    2.678574    1.204871
 C   -3.181202    2.933005    1.211977
 C   -3.825206    2.705542   -0.161344
 N   -3.686324    1.330848   -0.606142
 O   -0.210892   -0.512355    0.516159
 C   -0.100830   -1.507482   -0.201088
 C   -1.303009   -2.386796   -0.561892
 C   -2.138577   -1.760554   -1.709448
 C   -2.932699   -0.580704   -1.263543
 C   -2.640493    0.762377   -1.251467
 N   -4.579560    0.407202   -0.249461
 N   -4.140214   -0.745090   -0.651801
 N   -2.073109   -2.637152    0.635108
 N    2.004040    0.938039   -0.475030
 C    2.229043    2.293048   -0.943083
 C    0.976441    3.135894   -0.686334
 C    0.568633    3.279560    0.792159
 C   -0.885727    3.685116    0.888161
 O   -1.263566    4.824536    0.662393
 C    3.509387    2.890338   -0.364522
 O    3.433120    2.932122    1.048345
 N    1.086358   -1.910597   -0.718515
 C    2.387826   -1.444071   -0.237579
 C    2.727550   -0.109610   -0.936044
 O    3.567635   -0.003577   -1.819604
 C    3.459921   -2.509294   -0.476315
 C    4.690572   -2.452767    0.447603
 C    4.339907   -2.791423    1.898991
 C    5.450227   -1.128415    0.368641
 H   -4.000419   -4.689963    1.805839
 H   -1.438524    1.714409    1.188450
 H   -3.657837    2.289883    1.956824
 H   -3.327206    3.975148    1.500729
 H   -4.894290    2.935788   -0.131080
 H   -3.340658    3.348466   -0.902426
 H   -0.958846   -3.365965   -0.905115
 H   -2.837124   -2.521964   -2.067755
 H   -1.467968   -1.502486   -2.537563
 H   -1.801046    1.344410   -1.603184
 H   -2.448921   -1.835242    1.124944
 H    1.198641    0.730226    0.108634
 H    2.387396    2.243319   -2.028280
 H    1.113817    4.133650   -1.120082
 H    0.164507    2.663778   -1.260132
 H    0.740883    2.347790    1.342455
 H    1.177262    4.051679    1.269481
 H    3.642322    3.901781   -0.783487
 H    4.348808    2.267050   -0.702368
 H    4.310246    3.148605    1.384121
 H    1.094812   -2.718772   -1.321894
 H    2.267763   -1.239639    0.835085
 H    3.784835   -2.429876   -1.521153
 H    2.993218   -3.495359   -0.348659
 H    5.366879   -3.242010    0.087346
 H    5.244507   -2.824333    2.516963
 H    3.673954   -2.039455    2.339551
 H    3.843028   -3.765432    1.977712
 H    6.394936   -1.194691    0.919840
 H    4.868222   -0.310938    0.811980
 H    5.662939   -0.853571   -0.668345
