29 
5e28_ligand_dft.xyz
 S    3.895390   -0.041323    0.107242
 N    4.311245    0.554271   -1.406265
 O    4.333908   -1.428016    0.157219
 O    4.334279    0.947043    1.081074
 C    2.118770   -0.035500    0.087981
 C    1.434955   -1.169128   -0.338247
 C    0.047173   -1.151151   -0.366836
 C   -0.670447   -0.017042    0.034594
 C    0.046393    1.105115    0.471278
 C    1.433862    1.103756    0.498521
 C   -2.151273   -0.006707    0.006558
 C   -2.860348    1.131265   -0.393309
 C   -4.246294    1.147677   -0.421701
 C   -4.980806    0.015904   -0.043392
 C   -4.278181   -1.127579    0.359193
 C   -2.891971   -1.133499    0.379775
 N   -6.369589    0.010274   -0.117974
 H    4.807597   -0.154188   -1.937302
 H    4.858225    1.403455   -1.306278
 H    1.986281   -2.053798   -0.638342
 H   -0.489428   -2.025043   -0.723800
 H   -0.492460    1.979884    0.822687
 H    1.984130    1.965962    0.859861
 H   -2.317125    2.016504   -0.712967
 H   -4.769550    2.040854   -0.753659
 H   -4.826535   -2.016275    0.661391
 H   -2.375015   -2.026250    0.721184
 H   -6.809391    0.917632   -0.060340
 H   -6.831044   -0.670276    0.468516
