29 
5e28_ligand_ani.xyz
 S    3.887725   -0.117134    0.067849
 N    4.335484    1.308002   -0.687016
 O    4.308388   -1.233558   -0.765093
 O    4.328958    0.006928    1.448270
 C    2.117953   -0.049439    0.007457
 C    1.419747   -1.157157   -0.463519
 C    0.033517   -1.135531   -0.459003
 C   -0.668093   -0.012144   -0.003091
 C    0.060654    1.093738    0.453541
 C    1.447419    1.079920    0.468826
 C   -2.149358    0.002737   -0.001215
 C   -2.865965    1.126204   -0.423094
 C   -4.251412    1.141287   -0.431643
 C   -4.976805    0.024250    0.002298
 C   -4.267700   -1.102886    0.436830
 C   -2.882604   -1.108579    0.424394
 N   -6.366340    0.055612    0.059319
 H    4.712187    1.118879   -1.610425
 H    5.008556    1.793363   -0.101485
 H    1.970331   -2.021652   -0.819482
 H   -0.516890   -1.994671   -0.833531
 H   -0.470761    1.967592    0.820767
 H    2.004209    1.940687    0.828427
 H   -2.324166    2.002343   -0.772689
 H   -4.783583    2.029936   -0.763198
 H   -4.812000   -1.978572    0.782818
 H   -2.352905   -1.992320    0.773302
 H   -6.808053    0.710032   -0.570844
 H   -6.817418   -0.848129    0.038529
