24 
5e2l_ligand_ani.xyz
 N    0.979830    0.812922   -1.303953
 C    1.369539   -0.307584   -0.390260
 C    2.815042   -0.011716   -0.011198
 O    3.388372   -0.955378    0.742060
 O    3.368144    1.009719   -0.354453
 C    0.463300   -0.378130    0.856308
 C   -0.995001   -0.222260    0.496312
 C   -1.631462   -1.163823   -0.316971
 C   -1.727336    0.881451    0.938484
 C   -2.968672   -1.012531   -0.669088
 C   -3.065037    1.040854    0.581831
 C   -3.688688    0.092041   -0.222454
 H    0.854867    0.495324   -2.279594
 H    1.781224    1.476873   -1.245082
 H    0.110341    1.250498   -0.965273
 H    1.332021   -1.251646   -0.929827
 H    4.291498   -0.652050    0.936455
 H    0.750024    0.406067    1.567779
 H    0.641892   -1.334389    1.355862
 H   -1.066435   -2.019050   -0.684836
 H   -1.238585    1.625631    1.565757
 H   -3.448769   -1.757009   -1.299866
 H   -3.616672    1.910937    0.929349
 H   -4.732468    0.213823   -0.501697
