64 
5e2p_ligand_xtb.xyz
 C    0.037821   -0.701074   -1.235570
 O   -0.783967   -0.800457   -2.140105
 C    0.883879    0.509243   -1.074780
 C    0.407015    1.709984   -1.616311
 C    1.125916    2.873918   -1.501284
 C    2.360291    2.872444   -0.841760
 C    2.860776    1.663115   -0.321422
 C    2.117636    0.489412   -0.449299
 C    4.144299    1.698563    0.338037
 C    4.826319    2.863854    0.451231
 C    4.325836    4.111888   -0.075191
 O    4.885647    5.187556   -0.008330
 N    3.089193    4.013479   -0.700669
 O    4.601579    0.528558    0.827443
 N    0.209500   -1.661526   -0.310036
 C   -0.370266   -2.989490   -0.410949
 C   -1.820511   -2.977672    0.126823
 O   -2.152755   -3.558382    1.140089
 C    0.491630   -3.985051    0.372636
 C    1.942767   -3.814543    0.025872
 C    2.788676   -3.088923    0.856417
 C    2.448592   -4.322585   -1.164145
 C    4.109424   -2.869908    0.503894
 C    3.768341   -4.107112   -1.517405
 C    4.600676   -3.375304   -0.686849
 C   -2.441632    2.264739    0.507700
 C   -1.210101    2.046333    1.090327
 C   -0.951130    0.806357    1.651827
 C   -1.903586   -0.195783    1.631928
 C   -3.146736    0.004597    1.041653
 C   -3.405142    1.259815    0.480553
Cl    0.583350    0.509278    2.383518
 N   -4.646597    1.560272   -0.097823
 C   -5.326031    2.738189   -0.087274
 N   -6.435637    2.581037   -0.754844
 N   -6.437368    1.323320   -1.179044
 N   -5.402687    0.706081   -0.802731
 C   -4.118832   -1.133776    1.023141
 C   -4.007682   -1.964772   -0.276030
 N   -2.639101   -2.246215   -0.642532
 H   -0.542568    1.693487   -2.129081
 H    0.750223    3.796637   -1.918230
 H    2.552846   -0.423580   -0.072454
 H    5.786361    2.908867    0.944333
 H    2.726777    4.875995   -1.089587
 H    5.464468    0.658615    1.242303
 H    0.830224   -1.498923    0.467473
 H   -0.403938   -3.250528   -1.475945
 H    0.325352   -3.819269    1.438870
 H    0.149525   -4.993076    0.135892
 H    2.416811   -2.701326    1.796043
 H    1.802571   -4.892720   -1.816152
 H    4.750718   -2.298328    1.157868
 H    4.149020   -4.509286   -2.444615
 H    5.629785   -3.203980   -0.965152
 H   -2.653561    3.221834    0.056150
 H   -0.464301    2.824182    1.108611
 H   -1.690094   -1.148650    2.089986
 H   -5.009676    3.627861    0.411825
 H   -5.147417   -0.782164    1.101714
 H   -3.899876   -1.791147    1.864497
 H   -4.476224   -1.426078   -1.098356
 H   -4.533288   -2.909489   -0.111956
 H   -2.225309   -1.728756   -1.415487
