64 
5e2p_ligand_dft.xyz
 C   -0.335689   -0.371010   -1.316723
 O   -1.183275   -0.201873   -2.201490
 C    0.825845    0.554831   -1.163960
 C    0.742704    1.815114   -1.777606
 C    1.746765    2.746931   -1.633295
 C    2.885076    2.434000   -0.871394
 C    2.995050    1.162024   -0.278285
 C    1.965112    0.230116   -0.441424
 C    4.195482    0.879929    0.487053
 C    5.173457    1.806935    0.627344
 C    5.076361    3.124545    0.019399
 O    5.916713    4.003171    0.100248
 N    3.898174    3.342199   -0.701600
 O    4.239292   -0.350135    1.035542
 N   -0.417668   -1.390460   -0.435201
 C   -1.273503   -2.554701   -0.624480
 C   -2.661826   -2.302043   -0.001708
 O   -3.040183   -2.872519    1.012322
 C   -0.610357   -3.791613   -0.004042
 C    0.844539   -3.900256   -0.390833
 C    1.846963   -3.584885    0.529059
 C    1.216106   -4.234757   -1.695306
 C    3.188883   -3.589921    0.153633
 C    2.554203   -4.243829   -2.073447
 C    3.545098   -3.915772   -1.150676
 C   -1.365548    2.232502    0.824878
 C   -0.414766    1.682435    1.674650
 C   -0.752254    0.538779    2.383939
 C   -2.018330   -0.030207    2.295871
 C   -2.981827    0.513423    1.447326
 C   -2.613197    1.637106    0.698995
Cl    0.466132   -0.243587    3.365644
 N   -3.509778    2.157174   -0.279318
 C   -3.408797    2.104126   -1.621272
 N   -4.485705    2.642247   -2.143606
 N   -5.251285    3.025102   -1.092404
 N   -4.686015    2.741403    0.027754
 C   -4.334455   -0.146735    1.317130
 C   -4.580527   -0.790921   -0.068710
 N   -3.387510   -1.368961   -0.657646
 H   -0.135034    2.047313   -2.370767
 H    1.668453    3.720453   -2.108239
 H    2.105021   -0.754208   -0.005319
 H    6.075821    1.612848    1.197573
 H    3.831836    4.255355   -1.131797
 H    5.061195   -0.448707    1.533438
 H    0.232025   -1.422943    0.335719
 H   -1.390532   -2.684053   -1.706095
 H   -0.723198   -3.732586    1.083096
 H   -1.175452   -4.673523   -0.321491
 H    1.575752   -3.333347    1.552772
 H    0.448361   -4.484441   -2.424025
 H    3.951934   -3.333471    0.881389
 H    2.824255   -4.502949   -3.092877
 H    4.589432   -3.918125   -1.447619
 H   -1.130601    3.114464    0.238651
 H    0.575139    2.116619    1.754780
 H   -2.246375   -0.936764    2.846182
 H   -2.582918    1.635633   -2.140246
 H   -5.128574    0.582264    1.506367
 H   -4.404966   -0.924494    2.079102
 H   -4.965234   -0.055186   -0.778380
 H   -5.345099   -1.565138    0.043706
 H   -2.920768   -0.881007   -1.417383
