41 
5e2r_ligand_dft.xyz
 C    4.633594   -0.804429   -0.589265
 C    5.659052   -1.727854   -0.713042
 C    6.932140   -1.451354   -0.192565
 N    7.942908   -2.393343   -0.258238
 C    7.147962   -0.213402    0.437002
 C    6.123125    0.707426    0.538621
 C    4.842473    0.425792    0.045135
 C    3.800860    1.481531    0.151351
 O    4.110432    2.656136    0.277491
 C    2.346236    1.108065    0.105340
 C    1.448111    2.026199   -0.444897
 C    0.089593    1.751787   -0.476226
 C    1.849715   -0.074415    0.658961
 C    0.485659   -0.339361    0.645825
 C   -0.412510    0.563450    0.069055
 C   -1.867269    0.272614    0.039916
 C   -2.626569    0.556238   -1.102490
 C   -3.986763    0.285342   -1.139450
 C   -4.596542   -0.272975   -0.020176
 O   -6.718363   -0.889079   -1.435097
 O   -6.631022   -1.539171    1.026340
 C   -3.865828   -0.572884    1.123616
 C   -2.504616   -0.296370    1.147734
 S   -6.342608   -0.612266   -0.057532
 N   -7.032541    0.868157    0.323976
 H    3.664077   -1.036749   -1.019070
 H    5.478802   -2.673913   -1.216865
 H    7.848427   -3.103589   -0.969042
 H    8.886094   -2.044153   -0.173743
 H    8.129440    0.016405    0.843813
 H    6.295676    1.671271    1.006671
 H    1.834050    2.961154   -0.837894
 H   -0.596885    2.479357   -0.899905
 H    2.528868   -0.786552    1.117243
 H    0.116557   -1.269560    1.068220
 H   -2.138950    0.967320   -1.981215
 H   -4.568604    0.482843   -2.033404
 H   -4.359094   -1.023253    1.978125
 H   -1.932447   -0.508274    2.045864
 H   -7.720091    1.116874   -0.380395
 H   -7.435688    0.847877    1.255397
