78 
5e3a_ligand_ani.xyz
 N   -1.867646    0.537691   -1.268431
 C   -2.604133    1.048996   -0.072690
 C   -3.666395    0.013379    0.310428
 O   -4.609937   -0.227953   -0.443668
 C   -3.256138    2.413213   -0.354484
 C   -2.248271    3.531613   -0.501350
 C   -1.689948    3.865615   -1.737136
 C   -1.815991    4.246730    0.623050
 C   -0.733753    4.870630   -1.855301
 C   -0.867082    5.253428    0.522603
 C   -0.317389    5.564614   -0.721374
 O    0.628338    6.542337   -0.761814
 N   -3.499745   -0.591861    1.514138
 C   -4.308225   -1.755141    1.851896
 C   -3.726884   -2.980920    1.150758
 O   -3.024382   -3.806976    1.723335
 N   -3.984724   -3.036805   -0.184449
 C   -3.084776   -3.815819   -1.017042
 C   -1.734405   -3.098195   -1.091601
 O   -1.582264   -2.138728   -1.846919
 N   -0.781010   -3.548713   -0.234117
 C    0.487587   -2.864754   -0.048544
 C    0.319780   -1.576731    0.798439
 O   -0.756219   -1.202487    1.251698
 C    1.199575   -2.633296   -1.409559
 C    2.703039   -2.465819   -1.352011
 C    3.310118   -1.262865   -1.727375
 C    3.520004   -3.515275   -0.918061
 C    4.693000   -1.108684   -1.664455
 C    4.902057   -3.366844   -0.859386
 C    5.493308   -2.162894   -1.230970
 N    1.474507   -0.905445    1.041656
 C    1.486662    0.424057    1.605496
 C    1.127818    1.480381    0.548793
 O    0.793909    1.247955   -0.592941
 C    2.792730    0.712183    2.360902
 C    4.107991    0.599328    1.572346
 C    5.285797    0.760961    2.536571
 C    4.216738    1.614002    0.433092
 O    1.203051    2.716070    1.055423
 H   -1.677613   -0.481865   -1.194917
 H   -0.955110    1.024653   -1.336396
 H   -2.425939    0.670056   -2.130740
 H   -1.884337    1.152367    0.742150
 H   -3.941629    2.641638    0.468830
 H   -3.876975    2.312528   -1.250559
 H   -2.001484    3.330644   -2.633154
 H   -2.225758    4.008852    1.602443
 H   -0.309424    5.109533   -2.829696
 H   -0.516349    5.792713    1.398747
 H    0.920013    6.659695   -1.674793
 H   -2.545462   -0.608798    1.857160
 H   -5.333628   -1.571688    1.521667
 H   -4.284608   -1.916667    2.930890
 H   -4.413590   -2.212518   -0.599039
 H   -3.512483   -3.894540   -2.018400
 H   -2.966654   -4.810787   -0.584106
 H   -1.149184   -4.025896    0.582602
 H    1.107796   -3.549664    0.545132
 H    0.738154   -1.780119   -1.913529
 H    0.963361   -3.512871   -2.014763
 H    2.681469   -0.429949   -2.036702
 H    3.064810   -4.459729   -0.622232
 H    5.148982   -0.159138   -1.938173
 H    5.518685   -4.195033   -0.518955
 H    6.572457   -2.047327   -1.182366
 H    2.299729   -1.197313    0.541005
 H    0.664660    0.467197    2.328261
 H    2.722393    1.715425    2.797634
 H    2.829964    0.001354    3.195536
 H    4.173302   -0.410963    1.141587
 H    5.274885    1.757288    2.996720
 H    6.241502    0.644731    2.013559
 H    5.249588    0.017320    3.340845
 H    3.480951    1.421693   -0.356250
 H    5.214641    1.576889   -0.018374
 H    4.056693    2.634359    0.801935
 H    0.929633    3.348762    0.365731
