78 
5e3a_ligand_xtb.xyz
 N   -1.809770    0.924725   -1.111762
 C   -2.477796    1.325136    0.153709
 C   -3.676107    0.386280    0.355823
 O   -4.515758    0.273967   -0.518549
 C   -2.946426    2.781801    0.044428
 C   -1.788902    3.689266   -0.272938
 C   -1.462216    4.002752   -1.587206
 C   -0.997117    4.201044    0.747474
 C   -0.363280    4.786631   -1.883330
 C    0.107200    4.984148    0.465792
 C    0.439143    5.277330   -0.858391
 O    1.542834    6.021210   -1.081200
 N   -3.705268   -0.253318    1.533423
 C   -4.647912   -1.334002    1.785603
 C   -4.081270   -2.553022    1.050546
 O   -3.381239   -3.389685    1.581203
 N   -4.339629   -2.528432   -0.274358
 C   -3.502786   -3.299424   -1.173750
 C   -2.110649   -2.672795   -1.110732
 O   -1.849824   -1.646813   -1.738096
 N   -1.250653   -3.287122   -0.298113
 C    0.111735   -2.831130   -0.086172
 C    0.124353   -1.476585    0.636601
 O   -0.895285   -0.929639    1.026115
 C    0.869653   -2.803108   -1.430631
 C    2.367867   -2.747289   -1.298638
 C    3.085650   -1.700838   -1.869977
 C    3.065410   -3.765654   -0.654364
 C    4.468426   -1.673223   -1.800019
 C    4.445938   -3.730469   -0.572292
 C    5.150976   -2.684545   -1.145925
 N    1.349549   -0.979374    0.847985
 C    1.581493    0.240830    1.583519
 C    1.332831    1.476924    0.724263
 O    0.762711    1.451197   -0.347295
 C    2.939524    0.235199    2.297198
 C    4.166929    0.006706    1.406027
 C    5.412415   -0.035502    2.290584
 C    4.318488    1.091256    0.344789
 O    1.701305    2.584909    1.321529
 H   -1.784975   -0.129508   -1.247229
 H   -0.827582    1.255833   -1.098403
 H   -2.320252    1.312503   -1.909551
 H   -1.756214    1.203499    0.962219
 H   -3.403390    3.071476    0.991183
 H   -3.713730    2.843087   -0.730167
 H   -2.085910    3.655840   -2.398813
 H   -1.248748    3.993314    1.776911
 H   -0.130692    5.026362   -2.910993
 H    0.699813    5.420919    1.255353
 H    1.641429    6.226509   -2.019146
 H   -2.854517   -0.286984    2.076796
 H   -5.627199   -1.052625    1.396103
 H   -4.700052   -1.520398    2.856900
 H   -4.809501   -1.716643   -0.659525
 H   -3.900738   -3.221954   -2.184626
 H   -3.484549   -4.342372   -0.852132
 H   -1.634946   -3.957948    0.356143
 H    0.588965   -3.554267    0.582536
 H    0.516575   -1.960136   -2.025483
 H    0.601141   -3.719170   -1.964254
 H    2.556968   -0.910611   -2.383716
 H    2.527633   -4.601431   -0.230587
 H    5.011691   -0.864151   -2.263110
 H    4.973625   -4.527823   -0.072287
 H    6.228131   -2.664671   -1.091310
 H    2.146735   -1.417395    0.404291
 H    0.795246    0.300933    2.353341
 H    3.046736    1.192394    2.808879
 H    2.910394   -0.549607    3.055253
 H    4.083296   -0.964776    0.905633
 H    5.552081    0.915596    2.798249
 H    6.294665   -0.234996    1.688840
 H    5.328488   -0.817565    3.040831
 H    3.490035    1.076518   -0.360547
 H    5.235221    0.933105   -0.216745
 H    4.369454    2.072850    0.810182
 H    1.455707    3.391450    0.817159
