16 
5e3g_ligand_ani.xyz
 C    0.498907   -0.692219    0.001050
 C    2.762011   -0.523482   -0.000334
 C   -1.846929   -0.310559   -0.000003
 C   -0.227947    1.629991    0.000181
 O   -0.123352    2.839400   -0.000097
 N   -1.507758    1.017323   -0.000731
 S   -3.412986   -0.844018   -0.000545
 N   -0.777469   -1.176452    0.001128
 C    0.801189    0.633526    0.001188
 N    2.185416    0.736401    0.000671
 O    3.936579   -0.817520   -0.001677
 N    1.665923   -1.403763    0.000388
 H   -2.287035    1.666769   -0.001917
 H   -1.007135   -2.161837    0.002013
 H    2.719562    1.591006    0.000913
 H    1.790393   -2.404801   -0.000763
