69 
5e88_ligand_dft.xyz
 C   -0.835671    2.330579    1.017583
 C    0.332931    1.494449    1.536432
 S    0.135705   -2.441822    2.046066
 C    2.160209   -0.711162    1.188351
 N    5.219874    1.490977   -1.092009
 C    1.605877    1.693229    0.711680
 C   -0.731642   -2.056662   -1.819430
 C   -2.117602   -1.385945   -1.804172
 N   -6.422219   -1.590048   -0.671119
 C   -2.229523   -1.881369    0.648783
 N   -4.296346   -1.474879   -0.634170
 C    0.231285   -1.445140   -2.831031
 O   -0.535546    3.707351    1.046585
 O   -0.105322    0.148471    1.517735
 O    1.312156    1.467959   -0.648465
 C    2.681719    0.725260    1.231820
 N    3.937418    0.868973    0.500591
 N    3.995698    1.522055   -0.674018
 C    5.981866    0.810717   -0.190778
 C    7.415007    0.613973   -0.396128
 C    8.116144    1.141954   -1.528729
 C    8.243650   -0.078824    0.444017
 S    9.866938   -0.096161   -0.124787
 C    9.441095    0.836939   -1.511964
 C    5.159283    0.406306    0.838993
 O    3.125903   -1.534580    1.795510
 C    0.844927   -0.759109    1.992145
 C   -0.830388   -2.512163    0.493153
 O   -0.087692   -1.955930   -0.555339
 O    0.364672   -0.046572   -2.695272
 O   -2.970193   -2.585960    1.609166
 C   -2.955461   -2.019074   -0.690681
 O   -2.054681   -0.002297   -1.560468
 N   -5.346294   -2.298428   -0.799620
 C   -6.082229   -0.293268   -0.413705
 C   -4.708718   -0.212327   -0.383862
 C   -7.094911    0.743145   -0.225563
 C   -8.497600    0.457068   -0.151200
 C   -6.838983    2.081216   -0.100422
 S   -8.281816    2.997828    0.109775
 C   -9.252900    1.573197    0.028816
 H   -1.729032    2.083156    1.607481
 H   -1.029240    2.058011   -0.020480
 H    0.561513    1.788190    2.577552
 H    1.963588   -0.998446    0.151196
 H    1.939382    2.727767    0.857364
 H   -0.871837   -3.121906   -2.072415
 H   -2.603742   -1.594942   -2.770882
 H   -2.115485   -0.822689    0.896687
 H   -0.148105   -1.625373   -3.841147
 H    1.202866   -1.948724   -2.735380
 H   -0.619984    4.017737    1.955432
 H    2.121357    1.723285   -1.132291
 H    2.899905    0.974756    2.277903
 H    7.630244    1.718505   -2.305800
 H    7.986914   -0.582302    1.366317
 H   10.194703    1.108522   -2.237941
 H    5.321991   -0.163464    1.738685
 H    2.854792   -2.451886    1.652822
 H    1.100355   -0.550207    3.045509
 H   -0.978769   -3.594053    0.337483
 H    0.715985    0.169910   -1.809103
 H   -2.627106   -2.344606    2.479009
 H   -3.103844   -3.083305   -0.901821
 H   -1.323971    0.344960   -2.105686
 H   -4.013238    0.598399   -0.247549
 H   -8.896531   -0.546227   -0.233305
 H   -5.879451    2.579255   -0.134882
 H  -10.327964    1.642144    0.120519
