75 
5e8a_ligand_dft.xyz
 C    0.897997    2.180073   -1.042171
 C   -0.276553    1.390166   -1.636735
 S   -0.149597   -2.575336   -1.958468
 C   -2.150150   -0.774414   -1.216637
 N   -5.205461    1.537859    0.923824
 C   -1.575358    1.655671   -0.873847
 C    0.685840   -1.979034    1.890865
 C    2.102270   -1.375719    1.862268
 N    6.399751   -1.778083    0.859320
 C    2.215036   -1.990788   -0.566475
 N    4.283719   -1.599404    0.722097
 C   -0.262500   -1.262969    2.847102
 O    0.540430    3.500013   -0.712957
 O    0.124617    0.031488   -1.566601
 O   -1.311029    1.564442    0.514504
 C   -2.650519    0.663240   -1.341589
 N   -3.916181    0.859334   -0.639408
 N   -3.976637    1.535346    0.521077
 C   -5.971273    0.855022    0.028537
 C   -5.142743    0.414094   -0.982727
 C   -7.417969    0.685944    0.215626
 C   -8.062400    1.333261    1.275224
 C   -9.428517    1.185185    1.472762
 F  -11.467604    0.236688    0.783912
 C  -10.147865    0.383531    0.599058
 C   -9.540266   -0.272043   -0.461098
 C   -8.172149   -0.116622   -0.645409
 O   -3.128178   -1.612788   -1.780391
 C   -0.832589   -0.881435   -2.009174
 C    0.797488   -2.572486   -0.391682
 O    0.063376   -1.929136    0.613231
 O   -0.335355    0.129710    2.621653
 O    2.943743   -2.762420   -1.483020
 C    2.923100   -2.089887    0.785674
 O    2.110531   -0.000174    1.566449
 N    5.296213   -2.438229    1.002846
 C    6.118974   -0.498167    0.477032
 C    4.750715   -0.377443    0.383432
 C    7.175309    0.493947    0.242122
 C    6.868473    1.829467   -0.036115
 C    7.872222    2.764414   -0.257898
 C    9.193280    2.348853   -0.195454
 C    9.533485    1.033351    0.081055
 C    8.519530    0.109639    0.298508
 F   10.169972    3.246561   -0.407523
 H    1.702760    2.233465   -1.779992
 H    1.264570    1.613567   -0.177538
 H   -0.446736    1.670482   -2.688905
 H   -1.960107   -1.008478   -0.164642
 H   -1.901206    2.673931   -1.119707
 H    0.772856   -3.031184    2.212976
 H    2.568706   -1.567568    2.841925
 H    2.133184   -0.942428   -0.867896
 H   -1.253436   -1.730015    2.769091
 H    0.096035   -1.393883    3.872225
 H    0.062943    3.448144    0.125965
 H   -2.161263    1.774379    0.954330
 H   -2.851102    0.858452   -2.402409
 H   -5.302472   -0.167766   -1.875142
 H   -7.479938    1.955588    1.945884
 H   -9.938717    1.681279    2.290913
 H  -10.135585   -0.892864   -1.121200
 H   -7.692238   -0.634972   -1.470704
 H   -2.864367   -2.526023   -1.601565
 H   -1.075249   -0.725485   -3.074266
 H    0.913043   -3.646117   -0.167161
 H   -0.681474    0.304597    1.724775
 H    2.616156   -2.555510   -2.367671
 H    3.029374   -3.147942    1.047449
 H    1.381000    0.400174    2.076098
 H    4.088744    0.438558    0.147754
 H    5.832257    2.153374   -0.075605
 H    7.644426    3.802854   -0.471477
 H   10.578728    0.747166    0.123423
 H    8.759233   -0.925594    0.516299
