87 
5e8f_ligand_dft.xyz
 N   -1.119940    6.102101   -1.403534
 C   -0.258682    4.885286   -1.186608
 C   -1.157562    3.736138   -1.685404
 O   -2.370347    3.898726   -1.631429
 C    0.035825    4.717964    0.316803
 C    1.169910    3.728584    0.616917
 C    1.349420    3.493891    2.126837
 C    0.361287    2.511852    2.757067
 N    0.655529    1.105035    2.352891
 N   -0.560658    2.609813   -2.104890
 C   -1.313176    1.369236   -2.134742
 C   -1.721296    1.006404   -0.697306
 O   -1.204057    1.551957    0.272790
 C   -0.413716    0.280480   -2.749377
 O   -1.111411   -0.948566   -2.744279
 N   -2.634050    0.015841   -0.561790
 C   -2.703255   -0.670831    0.722150
 C   -1.329463   -1.273589    1.079933
 O   -0.902053   -1.255959    2.231615
 C   -3.782962   -1.759453    0.739277
 C   -5.211576   -1.213750    0.625914
 C   -6.255880   -2.330031    0.787041
 C   -7.673041   -1.776994    0.688076
 N   -8.703027   -2.873698    0.875818
 N   -0.671894   -1.844579    0.049849
 C    0.649685   -2.398966    0.198803
 C    1.717123   -1.289345    0.254428
 O    1.472241   -0.116344   -0.038151
 C    0.966102   -3.373543   -0.953729
 O    1.022993   -2.587228   -2.152408
 C   -0.044960   -4.503147   -1.072595
 N    2.929428   -1.715837    0.648152
 C    4.162905   -1.003653    0.381587
 C    5.014611   -1.914001   -0.523089
 O    4.620605   -2.988327   -0.916427
 C    4.922757   -0.622906    1.656233
 S    4.038887    0.713450    2.544191
 O    6.181942   -1.367312   -0.792954
 C    7.078620   -2.137994   -1.624409
 H   -2.098758    5.747246   -1.326207
 H   -1.011581    6.500938   -2.341771
 H   -0.951897    6.846291   -0.720731
 H    0.659389    5.009505   -1.766375
 H    0.323683    5.694441    0.727898
 H   -0.891268    4.409203    0.813744
 H    0.981796    2.773180    0.118207
 H    2.106091    4.128182    0.211813
 H    1.256472    4.444764    2.663266
 H    2.370499    3.145706    2.315719
 H   -0.670055    2.705317    2.458532
 H    0.423882    2.550952    3.846272
 H    0.639472    0.977106    1.328460
 H    1.592414    0.801604    2.662084
 H   -0.035739    0.420655    2.700161
 H    0.443683    2.533614   -2.009729
 H   -2.204356    1.504170   -2.754313
 H   -0.165547    0.584697   -3.773497
 H    0.507150    0.200068   -2.157558
 H   -0.443938   -1.654822   -2.857046
 H   -2.874752   -0.500864   -1.400095
 H   -2.913231    0.069328    1.497608
 H   -3.671217   -2.301050    1.685551
 H   -3.586436   -2.485491   -0.061147
 H   -5.349834   -0.713969   -0.340397
 H   -5.368640   -0.452800    1.400476
 H   -6.100490   -3.093956    0.013967
 H   -6.115738   -2.817559    1.760499
 H   -7.876043   -1.333211   -0.289052
 H   -7.879050   -1.033472    1.461264
 H   -8.610928   -3.324783    1.793110
 H   -8.608011   -3.608417    0.165669
 H   -9.661105   -2.510166    0.811059
 H   -0.972359   -1.621872   -0.896714
 H    0.679446   -2.955934    1.141671
 H    1.963407   -3.790321   -0.773618
 H    1.553144   -3.064536   -2.804177
 H   -1.044649   -4.115756   -1.288981
 H    0.243808   -5.182646   -1.879217
 H   -0.088683   -5.083258   -0.145836
 H    3.053881   -2.713481    0.773027
 H    3.914051   -0.101360   -0.186746
 H    5.018393   -1.492278    2.311546
 H    5.917028   -0.262950    1.390369
 H    4.704414    0.629621    3.705460
 H    7.279629   -3.102209   -1.155846
 H    6.631376   -2.287956   -2.608075
 H    7.985933   -1.542784   -1.695742
