87 
5e8f_ligand_ani.xyz
 N    0.541010    5.930917   -1.203373
 C    1.043011    4.515618   -1.003266
 C   -0.095702    3.655094   -1.603264
 O   -1.186417    4.176279   -1.790937
 C    1.259876    4.205176    0.491930
 C    2.256050    3.074994    0.771721
 C    2.466627    2.796193    2.266683
 C    1.247498    2.210943    2.991114
 N    0.917268    0.860475    2.470879
 N    0.139255    2.340892   -1.885583
 C   -0.972442    1.414351   -1.913997
 C   -1.471838    1.152818   -0.471800
 O   -0.912335    1.639925    0.507377
 C   -0.503055    0.155293   -2.666305
 O   -1.414885   -0.926337   -2.540883
 N   -2.566799    0.352811   -0.362453
 C   -2.832445   -0.283795    0.928545
 C   -1.634950   -1.152060    1.366728
 O   -1.167322   -1.103708    2.496844
 C   -4.121031   -1.102770    0.880560
 C   -5.356695   -0.265317    0.554034
 C   -6.640354   -1.092447    0.543563
 C   -7.863881   -0.231783    0.226703
 N   -9.140853   -1.025233    0.202251
 N   -1.143588   -1.978532    0.395114
 C    0.166894   -2.572288    0.525483
 C    1.275504   -1.514322    0.359602
 O    1.093346   -0.416689   -0.155479
 C    0.372502   -3.636474   -0.571844
 O    0.346798   -2.977437   -1.840171
 C   -0.665823   -4.740374   -0.548515
 N    2.510476   -1.883504    0.794844
 C    3.682818   -1.234463    0.249038
 C    3.954109   -1.747390   -1.161018
 O    3.138729   -2.335043   -1.845058
 C    4.875813   -1.362494    1.187386
 S    4.381334   -0.751115    2.835914
 O    5.179253   -1.452987   -1.586025
 C    5.469518   -1.841888   -2.936071
 H   -0.465538    5.777152   -1.455795
 H    1.030235    6.413976   -1.974060
 H    0.614179    6.488172   -0.342077
 H    1.969786    4.379612   -1.564214
 H    1.640928    5.108722    0.987396
 H    0.289437    3.970375    0.945933
 H    1.947502    2.146021    0.276220
 H    3.226257    3.338205    0.328688
 H    2.767295    3.720602    2.776243
 H    3.299800    2.089033    2.387011
 H    0.365686    2.844429    2.855126
 H    1.445062    2.143904    4.063163
 H    0.468442    0.947536    1.544380
 H    1.770234    0.279546    2.393415
 H    0.239087    0.359457    3.063516
 H    0.982292    1.944555   -1.483972
 H   -1.792251    1.875959   -2.478068
 H   -0.381429    0.414052   -3.726626
 H    0.473376   -0.132649   -2.263439
 H   -0.874019   -1.738588   -2.548172
 H   -2.775476   -0.192310   -1.192178
 H   -2.916930    0.506301    1.678060
 H   -4.250796   -1.594740    1.853553
 H   -4.009945   -1.908356    0.139538
 H   -5.224049    0.217804   -0.422831
 H   -5.449316    0.547377    1.289724
 H   -6.544175   -1.895765   -0.200810
 H   -6.765711   -1.578065    1.522255
 H   -7.740253    0.243962   -0.745542
 H   -7.966066    0.556025    0.972270
 H   -9.276182   -1.471194    1.124278
 H   -9.067130   -1.756507   -0.523876
 H   -9.944252   -0.418632   -0.004739
 H   -1.396921   -1.740956   -0.558583
 H    0.242214   -3.033397    1.515085
 H    1.365069   -4.086708   -0.431370
 H    1.255684   -2.660390   -1.996642
 H   -1.676779   -4.341196   -0.664948
 H   -0.470517   -5.450062   -1.356605
 H   -0.614744   -5.279132    0.403452
 H    2.621499   -2.838480    1.110203
 H    3.431330   -0.172817    0.146740
 H    5.192627   -2.407001    1.260045
 H    5.708172   -0.772346    0.806456
 H    5.614999   -0.458857    3.273437
 H    5.379299   -2.924764   -3.053043
 H    4.780308   -1.356003   -3.631620
 H    6.493602   -1.518521   -3.120760
