55 
5e8z_ligand_ani.xyz
 C    3.170047   -0.382878   -0.502331
 C   -3.436621   -0.824257   -0.163503
 C    5.502019   -0.856146    0.329284
 C    3.093783    2.059632    0.825286
 C    4.215386    1.243357    0.916995
 C   -4.815741   -0.702697   -0.303048
 C   -5.099471   -2.968866   -0.275624
 C   -3.736195   -3.206267   -0.128983
 C   -2.880647   -2.112639   -0.047634
 C    6.280197   -0.863556   -0.983071
 C    1.996794    1.660270    0.065451
 C    2.060907    0.443830   -0.617093
 C   -1.029997   -2.132234    1.554396
 C    0.704667    3.841945    0.056752
 C    0.747713    2.447974   -0.002190
 N   -0.389001    1.759338   -0.142100
 C   -1.542083    2.417837   -0.151832
 C   -1.571244    3.837821   -0.120192
 N   -0.425510    4.532196   -0.014170
 N   -2.717633    4.541738   -0.208639
 C   -2.800463    1.595928   -0.176462
 O   -3.925074    2.096601   -0.190738
 N   -2.543323    0.262461   -0.163074
 C    4.271481    0.011363    0.262974
 N   -5.639873   -1.752245   -0.356136
 O    7.340584   -1.788351   -0.838156
 N   -1.479585   -2.211065    0.165059
 C    0.458429   -1.808307    1.552136
 O    1.197483   -2.750848    0.795280
 C    0.709731   -2.878059   -0.527888
 C   -0.762683   -3.264533   -0.533891
 H    3.175570   -1.353567   -0.995386
 H    6.170581   -0.517827    1.129352
 H    5.236429   -1.895689    0.561090
 H    3.074126    3.000052    1.371838
 H    5.063314    1.570804    1.515681
 H   -5.258336    0.286082   -0.372911
 H   -5.794100   -3.804196   -0.331957
 H   -3.352475   -4.221458   -0.076919
 H    6.655257    0.149483   -1.195854
 H    5.607822   -1.149019   -1.808344
 H    1.211425    0.158828   -1.233908
 H   -1.212846   -3.076494    2.095506
 H   -1.593962   -1.341882    2.061441
 H    1.623909    4.420307    0.133949
 H   -3.597176    4.043747   -0.200554
 H   -2.663877    5.540713   -0.105838
 H   -1.558981    0.017359   -0.188135
 H    7.853257   -1.781827   -1.654617
 H    0.868223   -1.848421    2.567081
 H    0.610818   -0.791176    1.163688
 H    1.325370   -3.638443   -1.019767
 H    0.815794   -1.927332   -1.069799
 H   -1.133471   -3.328905   -1.561098
 H   -0.882192   -4.254427   -0.059387
