51 
5ea7_ligand_xtb.xyz
 C   -2.610949   -1.393321    1.831384
 C    1.869307   -0.804134   -1.181115
 C    3.834655   -0.750958   -0.354635
 C    5.344419    1.309655    0.679509
 C    4.079994    1.613947    0.218162
 C    3.330812    0.569260   -0.299836
 C    1.122019    1.588403   -0.893965
 C   -0.846800    2.578041    0.367257
 C   -5.089081   -0.490474   -0.517617
 C   -4.660412    0.247793   -1.746748
 C   -3.827035    0.324849   -0.505441
 N   -2.578048   -0.365510   -0.475576
 C   -2.094606   -1.094396    0.584169
 C   -0.814065   -1.563054    0.226960
 C   -0.085283   -2.313360    1.132358
 N   -0.584953   -2.592039    2.326043
 C   -1.789650   -2.154396    2.655364
 N   -0.559663   -1.099050   -1.044053
 C   -1.631188   -0.345431   -1.483443
 O   -1.697595    0.230794   -2.546518
 C    0.628185   -1.316743   -1.832913
 N    2.886062   -1.570789   -0.908611
 C    5.111293   -1.035986    0.116169
 C    5.849604    0.008373    0.629866
 N    2.072005    0.509340   -0.848695
 C    0.433862    1.757855    0.467808
 C   -1.630286    2.549423    1.677634
 O   -2.935693    3.030653    1.432266
 H   -3.585307   -1.057159    2.145931
 H    5.960477    2.096207    1.089685
 H    3.697424    2.623072    0.257837
 H    0.380442    1.378113   -1.667773
 H    1.648466    2.506186   -1.170793
 H   -1.486636    2.175812   -0.419392
 H   -0.620759    3.612177    0.104741
 H   -4.991052   -1.565727   -0.512115
 H   -5.934713   -0.123736    0.043313
 H   -5.200686    1.134058   -2.038751
 H   -4.269388   -0.317927   -2.576930
 H   -3.816593    1.256369    0.052519
 H    0.904403   -2.687482    0.913643
 H   -2.118406   -2.427861    3.648544
 H    0.773976   -2.386764   -2.010931
 H    0.453619   -0.811317   -2.790277
 H    5.497800   -2.041274    0.073768
 H    6.845391   -0.177469    1.004302
 H    1.125696    2.223338    1.173141
 H    0.194680    0.766390    0.862509
 H   -1.124158    3.166020    2.431899
 H   -1.677169    1.516529    2.058588
 H   -3.387795    3.165116    2.271233
