54 
5eak_ligand_dft.xyz
 C    4.460540    1.062285    0.228884
 C    4.243033   -0.280515    0.076654
 C    2.881879   -0.703153   -0.049690
 N    1.843943    0.095985   -0.029819
 C    2.092772    1.417811    0.106536
 N    3.389001    1.895801    0.227433
 N    3.447212    3.232753    0.355761
 C    1.268269    2.545015    0.157772
 C    2.171927    3.611897    0.311706
 C   -0.185363    2.575122    0.063751
 C   -0.961641    3.713061    0.018880
 S   -2.637022    3.392110   -0.086188
 C   -2.339076    1.687045   -0.083407
 C   -0.996191    1.408181    0.007683
 C   -3.471592    0.778285   -0.164598
 N   -3.212867   -0.541925   -0.355614
 O   -4.641459    1.211964   -0.090526
 C    5.336286   -1.252279    0.040338
 C    6.614970   -1.083739   -0.464788
 N    7.268413   -2.247932   -0.274049
 N    6.505365   -3.176307    0.321965
 C    5.336028   -2.584188    0.514581
 C    8.629605   -2.577450   -0.646750
 C   -4.143630   -1.642437   -0.097895
 C   -5.282797   -1.764931   -1.128936
 N   -6.216045   -0.580955   -1.033092
 C   -4.675450   -1.696905    1.342057
 C   -5.463194   -2.994687    1.564835
 C   -6.585680   -3.177873    0.538207
 C   -6.070495   -3.059478   -0.903443
 H    5.426426    1.533229    0.364067
 H    2.677502   -1.763476   -0.181954
 H    1.945752    4.666429    0.399713
 H   -0.617998    4.738899    0.042714
 H   -0.552568    0.418347    0.045404
 H   -2.240477   -0.800285   -0.438089
 H    7.084362   -0.242190   -0.954364
 H    4.537296   -3.122252    1.007859
 H    8.627609   -3.370023   -1.397779
 H    9.175947   -2.915211    0.235583
 H    9.108383   -1.686678   -1.055603
 H   -3.546529   -2.546832   -0.257506
 H   -4.858436   -1.725257   -2.134892
 H   -6.663721   -0.381513   -1.928688
 H   -5.648482    0.284033   -0.684695
 H   -6.957773   -0.748492   -0.350006
 H   -5.296321   -0.817619    1.554229
 H   -3.827075   -1.643972    2.030569
 H   -5.876495   -3.007275    2.577203
 H   -4.772976   -3.845801    1.498139
 H   -7.383236   -2.443802    0.731123
 H   -7.061777   -4.153963    0.666097
 H   -6.892970   -3.127429   -1.624799
 H   -5.398775   -3.896688   -1.123471
