56 
5ece_ligand_ani.xyz
 C   -6.402310    1.485144    0.815858
 C   -6.984119    0.513492    1.641201
 C   -6.625109   -0.808775    1.484311
 C   -4.095745   -0.679207   -1.281865
 C   -5.349205   -2.598305    0.359586
 C   -3.342849    0.281746   -2.173824
 C   -2.363296    1.189465   -1.442795
 C   -2.395316    2.575122   -1.617908
 C   -1.478210    3.398348   -0.969744
 C   -0.504378    2.841767   -0.148341
 C    0.552553    0.800773    0.923339
 C    2.501087    1.766088   -0.304457
 C    5.395179   -0.514372   -0.395176
 C    7.607803   -1.843564   -1.338264
 C    6.492432   -1.562748   -2.114354
 C    6.543240   -0.088541    1.769109
 C   -5.690470   -1.173079    0.517191
 C   -5.086865   -0.213008   -0.304638
 C   -5.475640    1.133903   -0.142167
 N   -3.811913   -1.927283   -1.433176
 N   -4.435818   -2.831416   -0.642033
 O   -5.810258   -3.514348    1.020454
 C   -0.455806    1.458747    0.026759
 C   -1.399542    0.645126   -0.596589
 O    0.253832   -0.154225    1.625973
 N    1.832446    1.323579    0.917163
 C    3.313168    0.631971   -0.929715
 N    4.246451    0.110063    0.063315
 C    3.567050   -0.378253    1.268567
 C    2.775371    0.771151    1.884787
 C    6.510960   -0.692402    0.461051
 C    7.617263   -1.380337   -0.029045
 N    5.426108   -0.894687   -1.672523
 N    6.560077    0.400750    2.820800
 H   -6.686165    2.528174    0.929966
 H   -7.713315    0.800769    2.393252
 H   -7.054168   -1.597017    2.096522
 H   -4.045939    0.894804   -2.751153
 H   -2.801679   -0.344455   -2.890351
 H   -3.143695    3.021734   -2.270240
 H   -1.515440    4.473668   -1.115679
 H    0.218475    3.476883    0.356925
 H    3.182847    2.583176   -0.036259
 H    1.767753    2.144621   -1.019477
 H    8.449656   -2.389341   -1.750139
 H    6.450621   -1.882681   -3.154187
 H   -5.041289    1.901250   -0.776778
 H   -4.167183   -3.792494   -0.803248
 H   -1.358885   -0.424805   -0.410836
 H    3.875111    0.999403   -1.790333
 H    2.647577   -0.166780   -1.290985
 H    4.284334   -0.774519    1.986640
 H    2.868041   -1.193272    1.017690
 H    2.213915    0.434742    2.758185
 H    3.462924    1.573367    2.177260
 H    8.472980   -1.547205    0.619731
