33 
5ech_ligand_xtb.xyz
 O   -1.661775    2.548104   -0.300115
 O    3.899624   -0.334789    0.672166
 O    3.628584   -2.256684   -0.421377
 C    1.208785    0.449176    0.163944
 C   -0.319496    0.581887    0.192264
 C    1.646809    1.393948   -0.960885
 C    0.695904    2.577766   -0.831619
 C   -0.597620    1.989011   -0.311479
 C   -0.947798    0.301546    1.560882
 C    1.682571   -0.985423   -0.042581
 C   -2.464755    0.103288    1.468285
 C    3.175755   -1.117978    0.120961
 C   -2.807898   -1.116929    0.673685
 C   -3.455634   -1.102899   -0.479375
 C   -3.795756   -2.315673   -1.280450
 H    4.586575   -2.338291   -0.290311
 H    1.620213    0.813281    1.110735
 H   -0.765409   -0.107389   -0.536075
 H    1.507095    0.907331   -1.928593
 H    2.692520    1.679213   -0.865782
 H    1.054070    3.286381   -0.080746
 H    0.537332    3.129258   -1.757255
 H   -0.729831    1.132647    2.234971
 H   -0.491392   -0.598767    1.981087
 H    1.406528   -1.361618   -1.029098
 H    1.223274   -1.644961    0.698900
 H   -2.862945   -0.002667    2.481308
 H   -2.912797    0.985620    1.012312
 H   -2.473546   -2.058427    1.094406
 H   -3.783102   -0.159198   -0.897077
 H   -4.876054   -2.397277   -1.398666
 H   -3.427370   -3.218836   -0.799295
 H   -3.361823   -2.245668   -2.278025
