35 
5eci_ligand_ani.xyz
 O   -0.877664    2.814630   -0.067851
 O    3.975845   -2.524956   -0.583355
 O    4.017313   -0.999303    1.055708
 C    1.598493    0.234489    0.152579
 C    0.187436    0.618249   -0.323901
 C    2.443483    1.474899   -0.168928
 C    1.532867    2.659982    0.161579
 C    0.121248    2.132504   -0.080473
 C   -0.948932   -0.173398    0.321998
 C    2.125514   -1.055234   -0.468651
 C   -2.302014   -0.002223   -0.368557
 C    3.457627   -1.485978    0.101394
 C   -3.421135   -0.775814    0.326969
 C   -4.771131   -0.653194   -0.378449
 C   -5.881505   -1.418960    0.337237
 H    4.817388   -2.741331   -0.148273
 H    1.581381    0.106295    1.245213
 H    0.149127    0.489819   -1.419726
 H    3.387886    1.482892    0.380583
 H    2.680017    1.470853   -1.241298
 H    1.720400    3.560946   -0.430875
 H    1.600571    2.939135    1.220123
 H   -0.685453   -1.241413    0.329942
 H   -1.030636    0.125474    1.377019
 H    1.420813   -1.883725   -0.316343
 H    2.237507   -0.949877   -1.554312
 H   -2.221185   -0.347532   -1.410662
 H   -2.550919    1.064578   -0.414104
 H   -3.519325   -0.419380    1.363430
 H   -3.147714   -1.840005    0.395042
 H   -4.674095   -1.022936   -1.408796
 H   -5.043184    0.408600   -0.456724
 H   -6.838175   -1.324502   -0.186899
 H   -5.639865   -2.486348    0.404761
 H   -6.020210   -1.046439    1.359101
