33 
5edb_ligand_ani.xyz
 C   -0.998808   -2.542286   -0.006376
 C    1.204235   -1.859643    0.000954
 C   -2.932866   -0.933102    0.137381
 C    1.933476    0.473977   -0.052330
 C   -0.589226    2.155382    0.981027
 C   -1.016811    3.479697    0.952322
 C   -1.753674    3.949619   -0.130660
 C   -1.443575   -1.182844    0.026567
 C   -0.511053   -0.147493   -0.007561
 C    0.880320   -0.484885   -0.017156
 N    0.270200   -2.858014   -0.002810
 C   -0.913438    1.279401   -0.061888
 O   -3.771775   -1.566827   -0.450981
 C    2.565248   -2.250304    0.013750
 C    3.235085    0.051393   -0.046759
 O   -3.301795    0.046951    0.982066
 C    3.567009   -1.321277   -0.008050
Cl    4.528197    1.215195   -0.091303
 C   -1.966190   -3.699466   -0.018632
 C   -1.659389    1.759738   -1.142060
 C   -2.069743    3.087739   -1.177069
 H    1.706461    1.534940   -0.086672
 H    0.003721    1.794423    1.821223
 H   -0.766380    4.144149    1.773476
 H   -2.082550    4.985106   -0.158359
 H    2.773071   -3.315570    0.036036
 H   -2.515055    0.517118    1.303281
 H    4.611484   -1.618182   -0.000854
 H   -2.613355   -3.677496    0.862890
 H   -2.623866   -3.654449   -0.889602
 H   -1.389219   -4.625911   -0.024802
 H   -1.921337    1.080269   -1.952037
 H   -2.648773    3.448513   -2.022185
