47 
5edi_ligand_dft.xyz
 C   -5.646182   -0.508721    0.123517
 C   -5.567772    0.863732    0.483521
 C   -4.544419   -1.225926   -0.263183
 C   -3.234758    0.810809    0.064099
 N   -2.164754   -1.025865   -0.621483
 C    0.103642   -0.050789   -0.741957
 C    0.921845    0.283120    0.520374
 C    6.858475    0.201119   -0.373576
 C    7.945080   -0.853784   -0.152988
 C    7.383716   -1.687358    1.006248
 C    5.879363   -1.744346    0.710034
 C    2.327827    2.773521   -0.736971
 C   -4.463366   -2.659877   -0.666732
 C   -4.229996    2.989963    0.830707
 C   -4.380151    1.544345    0.462632
 N   -3.370081   -0.515340   -0.274012
 N   -1.958960    1.167917   -0.060785
 C   -1.363746    0.026450   -0.476057
 C    2.377328    0.433478    0.223204
 N    3.299395   -0.496479    0.418237
 C    4.432379    0.105177   -0.046938
 N    4.270299    1.339170   -0.512895
 N    2.928930    1.526721   -0.331786
 N    5.641263   -0.518813   -0.041808
Cl   -7.214654   -1.271648    0.188926
 H   -6.480078    1.370720    0.780172
 H    0.359700   -1.049538   -1.103731
 H    0.349077    0.662372   -1.537737
 H    0.813850   -0.520703    1.252598
 H    0.521779    1.195780    0.974620
 H    6.821723    0.575682   -1.401949
 H    6.996609    1.071394    0.287115
 H    8.919682   -0.410358    0.067311
 H    8.049172   -1.475907   -1.049228
 H    7.556427   -1.166135    1.954866
 H    7.833974   -2.680798    1.081101
 H    5.265382   -1.773953    1.615682
 H    5.619250   -2.625814    0.108268
 H    1.268647    2.770921   -0.473502
 H    2.826391    3.603442   -0.229891
 H    2.430527    2.904011   -1.817839
 H   -5.444469   -3.131360   -0.624196
 H   -4.063469   -2.741048   -1.682178
 H   -3.772513   -3.195483   -0.008328
 H   -5.191107    3.425085    1.115883
 H   -3.529859    3.103339    1.664681
 H   -3.819805    3.559716   -0.009340
