50 
5eds_ligand_ani.xyz
 C    3.755220    1.760552    1.080038
 S    2.681728    2.743612    0.050420
 O    3.539044    3.467873   -0.882955
 O    1.758932    3.448411    0.935631
 C    1.735096    1.560849   -0.897866
 C    0.508143    1.140709   -0.401826
 C    2.207289    1.137291   -2.135713
 C    1.427888    0.259953   -2.881825
 C    0.198786   -0.179409   -2.398430
 C   -0.267345    0.264529   -1.159177
 N   -1.547111   -0.132252   -0.680320
 C   -2.539319    0.737374   -0.236460
 C   -2.569908    2.128892   -0.150513
 C   -3.740910    2.666148    0.343685
 F   -3.837388    3.999862    0.463777
 C   -4.843664    1.890282    0.731206
 C   -4.792154    0.513109    0.623006
 C   -3.620728   -0.075034    0.126213
 N   -3.299536   -1.407264   -0.077578
 C   -2.082952   -1.406223   -0.551545
 C   -1.315133   -2.693840   -0.762673
 C   -2.184102   -3.745761   -1.434114
 N   -0.874379   -3.216793    0.549705
 C    0.170638   -2.578110    1.183497
 N   -0.053807   -2.117498    2.420802
 C    0.933083   -1.414505    2.958166
 N    2.125316   -1.147275    2.429896
 C    2.390116   -1.694308    1.242623
 N    3.619545   -1.455731    0.689134
 C    1.425273   -2.471664    0.570046
 C    1.779551   -3.189298   -0.621371
 N    2.120324   -3.761610   -1.573705
 H    4.400684    2.467651    1.607381
 H    3.159765    1.187129    1.794810
 H    4.353091    1.102146    0.447006
 H    0.144587    1.522860    0.546154
 H    3.157802    1.510818   -2.507899
 H    1.772309   -0.082008   -3.853593
 H   -0.420973   -0.851593   -2.986143
 H   -1.741331    2.761595   -0.452226
 H   -5.727556    2.391679    1.111810
 H   -5.639297   -0.100040    0.916826
 H   -0.428112   -2.521049   -1.368659
 H   -1.626475   -4.683836   -1.496329
 H   -2.468819   -3.430197   -2.444084
 H   -3.093190   -3.913794   -0.850188
 H   -1.659610   -3.263409    1.193652
 H    0.742530   -1.004027    3.946615
 H    3.904734   -2.091743   -0.043832
 H    4.333240   -1.229248    1.369246
