50 
5eds_ligand_xtb.xyz
 C    3.954021    2.479391    0.330148
 S    2.173821    2.806363    0.354662
 O    1.920010    4.018115   -0.378085
 O    1.705526    2.730906    1.710224
 C    1.388696    1.471050   -0.570255
 C    0.192165    0.991598   -0.079420
 C    1.904082    1.020180   -1.770132
 C    1.210679    0.057104   -2.486861
 C    0.008037   -0.436303   -2.010566
 C   -0.504549    0.028831   -0.803410
 N   -1.740286   -0.447217   -0.326758
 C   -2.884046    0.303799   -0.187059
 C   -3.156355    1.635947   -0.451452
 C   -4.454239    2.031739   -0.203802
 F   -4.789574    3.316731   -0.440223
 C   -5.446929    1.176120    0.275711
 C   -5.164574   -0.147674    0.532295
 C   -3.867119   -0.590213    0.298319
 N   -3.305509   -1.828878    0.465903
 C   -2.069599   -1.722239    0.085821
 C   -1.036483   -2.801272    0.218988
 C   -1.686332   -4.134042    0.571462
 N   -0.120367   -2.395566    1.272232
 C    1.089649   -1.820222    1.141249
 N    1.467938   -1.078930    2.195203
 C    2.619500   -0.461668    2.136053
 N    3.488457   -0.497422    1.139373
 C    3.180621   -1.274639    0.099923
 N    4.065332   -1.312709   -0.919878
 C    1.960544   -1.989017    0.041863
 C    1.731559   -2.810329   -1.066327
 N    1.642103   -3.476827   -2.001358
 H    4.402013    3.170174    1.033632
 H    4.105446    1.453335    0.650926
 H    4.328209    2.663210   -0.667673
 H   -0.176648    1.368324    0.862253
 H    2.829851    1.422927   -2.146993
 H    1.599959   -0.307353   -3.424593
 H   -0.541458   -1.172660   -2.577743
 H   -2.415896    2.327266   -0.820180
 H   -6.434927    1.576340    0.438218
 H   -5.916641   -0.825356    0.900210
 H   -0.470019   -2.898255   -0.710459
 H   -0.921923   -4.895385    0.699124
 H   -2.361294   -4.432615   -0.223981
 H   -2.261236   -4.035160    1.487216
 H   -0.563675   -2.173500    2.155486
 H    2.885649    0.152520    2.984827
 H    3.957978   -2.005800   -1.640951
 H    4.975705   -0.918554   -0.757296
