68 
5ee7_ligand_ani.xyz
 N   -3.322224   -0.770098    0.922820
 N    4.846021   -2.310947   -0.507650
 C   -7.909921    0.358292   -0.862578
 C   -7.330516   -0.783241   -0.319718
 C   -5.995729   -0.817349    0.055920
 C   -3.798459    0.297060    0.287777
 C   -2.786622    1.266834    0.125347
 C    1.580455    1.968000    2.235808
 C    0.514606    1.387772   -0.266698
 C    2.423427    2.069599    1.095734
 C    4.575206    2.515801    0.078302
 C   -1.179190   -1.449383    1.916639
 C    2.455023   -2.506900   -0.176254
 C    2.501019   -2.001474    1.123899
 C    0.088572   -1.806497    1.150452
 C    1.215009   -2.692190   -0.789933
 C    3.688541   -2.879050   -0.947191
 C   -5.213786    0.327207   -0.119428
 C   -5.774231    1.482767   -0.661609
 C   -7.112423    1.484811   -1.025517
Cl   -7.816296    2.924071   -1.699058
Cl   -8.315640   -2.200273   -0.107100
 C   -1.662057    0.727302    0.715243
 C    0.275662    1.573143    2.116597
 C   -0.274163    1.251612    0.847184
 C    1.872642    1.796138   -0.172799
 C    3.800104    2.426252    1.209722
 C    4.016160    2.272033   -1.202995
 C    2.700375    1.920061   -1.324240
 C    0.042591   -2.338854   -0.135523
 N   -2.031662   -0.500572    1.184332
 O    5.911131    2.824797    0.082059
 C    6.532297    2.935409    1.355427
 O    3.639526   -3.638992   -1.905139
 C    6.109802   -2.537952   -1.173262
 C    6.570050   -1.301257   -1.942595
 C    6.668239   -0.080085   -1.054364
 O    6.447597   -0.081577    0.140679
 O    6.998434    1.020606   -1.734423
 C   -1.975297   -2.686350    2.303719
 C    1.327715   -1.651911    1.773458
 H    4.827358   -1.515181    0.116159
 H   -8.955391    0.368885   -1.149242
 H   -5.562572   -1.717088    0.482053
 H   -2.852162    2.233359   -0.353983
 H    1.994598    2.196378    3.214611
 H    0.109555    1.146468   -1.246672
 H   -0.845928   -0.936350    2.827299
 H    3.448521   -1.886322    1.648453
 H    1.191211   -3.119122   -1.788386
 H   -5.178540    2.379661   -0.795295
 H   -0.358196    1.490257    2.996911
 H    4.208278    2.603514    2.198778
 H    4.659831    2.361597   -2.074139
 H    2.270196    1.720643   -2.303632
 H   -0.914818   -2.476584   -0.635749
 H    6.421596    2.001389    1.915407
 H    7.590537    3.126525    1.169958
 H    6.107137    3.772436    1.920336
 H    5.971362   -3.380395   -1.853325
 H    6.860731   -2.815823   -0.426969
 H    7.547224   -1.471552   -2.411120
 H    5.865409   -1.071423   -2.751669
 H    6.894565    1.774037   -1.110816
 H   -2.277239   -3.237854    1.408469
 H   -1.369631   -3.340867    2.935710
 H   -2.879649   -2.391712    2.841329
 H    1.379888   -1.212388    2.769121
