49 
5ef8_ligand_ani.xyz
 O   -5.784823   -1.937438    0.843140
 C   -5.598868   -1.361669   -0.226188
 N   -6.381565   -1.671696   -1.303684
 O   -7.505000   -2.434585   -1.019228
 C   -4.538927   -0.367441   -0.487686
 C   -3.718199    0.015853    0.495007
 C   -2.630084    0.996978    0.412398
 C   -2.290073    1.664671   -0.768071
 C   -1.252728    2.586573   -0.794467
 C   -1.888616    1.286228    1.565474
 C   -0.842552    2.196780    1.534646
 C   -0.507332    2.864867    0.355069
 C    0.664473    3.820956    0.312180
 N    1.777438    3.314546   -0.571531
 C    2.418124    2.055413   -0.064389
 C    1.876857    0.757882   -0.699833
 C    2.565187   -0.436021   -0.143820
 C    3.877967   -0.885808   -0.456015
 C    4.109987   -1.980746    0.437726
 N    3.021972   -2.211026    1.255827
 C    2.129770   -1.295941    0.902219
 C    0.803193   -1.228338    1.595158
 C    5.318746   -2.669322    0.416765
 C    6.289666   -2.274836   -0.484177
 C    6.071229   -1.196840   -1.369773
 C    4.877626   -0.500943   -1.361801
 H   -6.605338   -0.965390   -1.990971
 H   -7.349842   -2.660419   -0.077582
 H   -4.461871    0.023594   -1.500327
 H   -3.871149   -0.440750    1.472715
 H   -2.832509    1.466185   -1.688096
 H   -1.032243    3.096237   -1.731885
 H   -2.139419    0.779154    2.494262
 H   -0.262133    2.388546    2.436121
 H    1.059540    3.957067    1.319326
 H    0.375727    4.797354   -0.068632
 H    2.505063    4.044379   -0.684041
 H    1.343794    3.091218   -1.500170
 H    2.253990    2.010955    1.012856
 H    3.492215    2.115580   -0.242077
 H    2.036608    0.786472   -1.788083
 H    0.791330    0.681278   -0.540452
 H    0.677473   -0.263753    2.100867
 H   -0.026027   -1.330330    0.884924
 H    0.739551   -2.028159    2.335800
 H    5.477726   -3.496246    1.102989
 H    7.240000   -2.801853   -0.513806
 H    6.856018   -0.914399   -2.065383
 H    4.712503    0.326904   -2.046452
