35 
5ega_ligand_xtb.xyz
 C   -3.719383    1.237367    0.386396
 C   -2.865163    0.250078   -0.087003
 C   -3.373563   -0.978927   -0.493201
 C   -4.739504   -1.213940   -0.440233
 O   -5.239334   -2.402313   -0.852022
 C   -5.596966   -0.217652    0.033967
 O   -6.955985   -0.495200    0.051895
 C   -5.082493    1.001336    0.473902
 O   -5.903345    1.975316    0.967722
 C   -1.409768    0.581585   -0.152764
 O   -1.008279    1.706521   -0.369965
 N   -0.601719   -0.497077    0.083553
 N    0.747236   -0.603391    0.128383
 C    1.533024    0.366050   -0.143807
 C    5.746804   -0.133998    0.068813
 O    7.090271   -0.290714    0.137943
 C    5.193943    1.096056   -0.309106
 O    6.043997    2.114817   -0.600869
 C    3.817257    1.236588   -0.373675
 C    2.965487    0.175679   -0.068256
 C    3.517583   -1.049102    0.308135
 C    4.887153   -1.196711    0.373816
 O    5.493878   -2.376588    0.737084
 H   -3.325266    2.190777    0.696643
 H   -2.749233   -1.755724   -0.904331
 H   -6.202002   -2.373642   -0.752848
 H   -7.452007    0.312657   -0.126321
 H   -6.719048    1.582241    1.304615
 H   -1.047012   -1.372533    0.325806
 H    1.190290    1.355137   -0.433658
 H    7.264589   -1.201556    0.414004
 H    5.536262    2.898728   -0.842397
 H    3.396670    2.189049   -0.666192
 H    2.857324   -1.868657    0.545340
 H    4.814732   -3.034360    0.919583
