18 
5eh5_ligand_dft.xyz
 C    2.564115    0.935211    0.023451
 C    1.533932    1.867434   -0.005209
 C    2.214681   -0.414008    0.024860
 C    0.044997    0.199478   -0.016242
 C    3.226603   -1.520011    0.045177
 N    0.250089    1.508914   -0.029650
 N    0.922299   -0.781017    0.007013
 N   -2.341000    0.671216    1.096554
 O   -2.166629    0.144341   -1.418601
 O   -1.853596   -1.656293    0.336969
 S   -1.699565   -0.287354   -0.111326
 H    3.601937    1.248336    0.041390
 H    1.738824    2.935035   -0.010354
 H    3.107536   -2.145529   -0.844794
 H    4.248470   -1.134688    0.076980
 H    3.056643   -2.160885    0.915460
 H   -2.631761    1.577906    0.745219
 H   -3.092487    0.170691    1.560736
