26 
5eh8_ligand_ani.xyz
 C    5.064163    0.245113    0.414767
 O    4.140716   -0.695861   -0.088110
 C    2.827137   -0.350961   -0.073884
 C    2.335018    0.866658    0.393463
 C    0.967465    1.115260    0.348067
 C    0.063912    0.171793   -0.138401
 C   -1.395552    0.470084   -0.170398
 C   -1.845459    1.854707   -0.566662
 C   -2.273281   -0.491134    0.166490
 C   -3.748197   -0.315872    0.193668
 O   -4.446792   -1.415639    0.563130
 O   -4.344499    0.696795   -0.079227
 C    0.579544   -1.051753   -0.593542
 C    1.937344   -1.309446   -0.571861
 H    5.045724    1.176745   -0.166123
 H    4.866575    0.476816    1.469713
 H    6.047390   -0.218487    0.323826
 H    3.000086    1.630600    0.780196
 H    0.586919    2.066122    0.714431
 H   -2.605648    1.801371   -1.352481
 H   -2.321835    2.360712    0.279965
 H   -1.004916    2.454438   -0.923149
 H   -1.887396   -1.459280    0.479532
 H   -3.837942   -2.143361    0.743410
 H   -0.096082   -1.800694   -0.999510
 H    2.339161   -2.254029   -0.926392
