26 
5eh8_ligand_xtb.xyz
 C    5.076567    0.203233    0.364929
 O    4.109424   -0.723448   -0.067958
 C    2.803102   -0.354276   -0.061333
 C    2.321519    0.883877    0.352946
 C    0.966021    1.150326    0.307656
 C    0.049875    0.195226   -0.126468
 C   -1.386695    0.491843   -0.148854
 C   -1.787698    1.877420   -0.530260
 C   -2.274503   -0.466557    0.184024
 C   -3.732477   -0.317521    0.185555
 O   -4.416793   -1.456246    0.462965
 O   -4.344728    0.696246   -0.034826
 C    0.545757   -1.044242   -0.539975
 C    1.894365   -1.313499   -0.515768
 H    5.082357    1.100085   -0.262608
 H    4.919305    0.489993    1.409580
 H    6.034393   -0.306059    0.272684
 H    2.991963    1.648984    0.711548
 H    0.614981    2.113308    0.645740
 H   -2.754731    1.868327   -1.025186
 H   -1.899198    2.487735    0.365949
 H   -1.039991    2.333304   -1.174760
 H   -1.900240   -1.438534    0.483372
 H   -3.831638   -2.207092    0.623070
 H   -0.134485   -1.792557   -0.918017
 H    2.279068   -2.264897   -0.847529
