42 
5ehe_ligand_ani.xyz
 F   -0.939234   -2.420019   -0.719305
 C   -1.168030   -1.175977   -0.277279
 C   -2.475027   -0.774192   -0.050053
 S   -3.865089   -1.849269   -0.236589
 O   -3.423966   -3.225501   -0.153458
 N   -4.697313   -1.536284    1.170809
 O   -4.638162   -1.360341   -1.363169
 C   -2.703626    0.554188    0.274816
 F   -3.944639    1.018874    0.422777
 C   -1.637020    1.424278    0.430181
 F   -1.924104    2.698693    0.716111
 C   -0.052718   -0.336055   -0.089940
 C   -0.320842    1.007827    0.280202
 S    0.937763    2.233092    0.543089
 O    2.257673    1.636595    0.308831
 O    0.674395    2.906556    1.805009
 C    0.642837    3.396426   -0.784610
 C    1.688771    4.499814   -0.751224
 O    1.385903    5.362567   -1.829001
 N    1.221401   -0.771592   -0.258617
 C    1.660631   -2.138685   -0.387151
 C    3.148706   -2.230366   -0.120260
 C    3.694882   -1.668912    1.034968
 C    5.055223   -1.787395    1.305667
 C    5.889888   -2.451633    0.410776
 C    5.354982   -3.003945   -0.748334
 C    3.991037   -2.895383   -1.007701
 H   -4.988015   -2.408039    1.599598
 H   -5.468007   -0.895408    1.017521
 H   -0.366093    3.793561   -0.653639
 H    0.696831    2.837808   -1.722876
 H    2.691011    4.060347   -0.855520
 H    1.640288    5.021785    0.215918
 H    2.038268    6.072042   -1.833233
 H    1.925606   -0.042608   -0.221614
 H    1.447728   -2.525832   -1.391662
 H    1.112786   -2.777565    0.318608
 H    3.049496   -1.139927    1.735208
 H    5.464557   -1.347448    2.211951
 H    6.953639   -2.538067    0.617750
 H    6.000212   -3.522760   -1.453547
 H    3.577177   -3.330787   -1.916111
