47 
5ehg_ligand_ani.xyz
 C   -6.124273   -0.398868    1.730622
 C   -4.906619   -0.157844    1.101872
 C   -4.870502    0.540100   -0.101616
 C   -2.432464    0.338097   -0.607114
 C   -7.280122    0.754114   -0.056209
 C   -7.297563    0.059380    1.149203
 C    1.999322    0.980021   -2.629232
 O    8.240512    1.750288    1.351509
 S    2.389420   -2.390322   -0.455671
 O    1.326810   -3.289444   -0.087649
 O    3.534811   -2.828447   -1.220173
 C    5.232211   -1.225933    0.677585
 C    3.597645    0.464072    1.301565
 C    4.603228    1.417333    1.343738
 C    6.960878    2.138362    1.148927
 C    0.386633   -0.626254   -1.001406
 O    6.699227    3.306814    1.027995
 O    2.902511   -1.797153    0.980847
 C    5.927303    1.056413    1.088901
 C    6.231295   -0.263825    0.744835
 C    0.673397    1.323316   -2.400789
 C    2.536722   -0.167726   -2.058232
 C    1.716707   -0.942887   -1.242195
 C    3.928111   -0.847527    0.973686
 C   -0.141219    0.522915   -1.591220
 N   -3.688350    0.884767   -0.790685
 O   -2.191257   -0.558441    0.182224
 N   -5.977291    1.693980   -1.919331
Cl   -8.820587   -0.238049    1.935516
 C   -6.069450    0.984948   -0.692322
 N   -1.483107    0.915151   -1.429299
 H   -6.156572   -0.942463    2.669390
 H   -3.980503   -0.508619    1.537510
 H   -8.210806    1.102961   -0.498448
 H    2.615422    1.611567   -3.262949
 H    8.275902    0.810683    1.576473
 H    5.444659   -2.251743    0.399017
 H    2.560576    0.714463    1.500196
 H    4.383908    2.455843    1.571814
 H   -0.234893   -1.256884   -0.379309
 H    7.246499   -0.553682    0.475635
 H    0.262933    2.222497   -2.854748
 H    3.566927   -0.462293   -2.235071
 H   -3.819378    1.652861   -1.436343
 H   -5.687088    1.087430   -2.682396
 H   -6.869588    2.106108   -2.168104
 H   -1.765853    1.687801   -2.012112
