47 
5ehg_ligand_xtb.xyz
 C   -5.884533    0.648654    1.732739
 C   -4.713253    0.486345    1.013222
 C   -4.742765    0.369872   -0.367504
 C   -2.339747   -0.132512   -0.736015
 C   -7.143101    0.569916   -0.319505
 C   -7.090263    0.708298    1.057285
 C    2.086447   -0.399112   -2.823846
 O    7.788462    2.586849    0.631978
 S    2.506127   -2.427092    0.610596
 O    1.562654   -3.292305    1.225649
 O    3.789586   -2.939515    0.239916
 C    5.025635   -0.577434    1.397527
 C    3.273534    0.970690    0.800355
 C    4.225423    1.897323    0.429346
 C    6.554180    2.650820    0.104186
 C    0.470108   -1.183990   -0.693834
 O    6.265150    3.516832   -0.674978
 O    2.722983   -1.185409    1.650801
 C    5.583681    1.605784    0.545818
 C    5.974031    0.358285    1.029239
 C    0.753777   -0.036177   -2.788740
 C    2.627763   -1.155611   -1.795349
 C    1.799884   -1.534348   -0.759605
 C    3.674333   -0.269047    1.291951
 C   -0.072231   -0.418616   -1.726934
 N   -3.578789    0.274947   -1.149886
 O   -2.082791   -0.538667    0.369871
 N   -6.002662    0.269220   -2.439938
Cl   -8.561003    0.936865    1.935502
 C   -5.975033    0.380119   -1.045711
 N   -1.405444   -0.031555   -1.760948
 H   -5.855545    0.738340    2.806014
 H   -3.767102    0.445041    1.525089
 H   -8.093830    0.599759   -0.829846
 H    2.704874   -0.088649   -3.651338
 H    7.877774    1.878569    1.283246
 H    5.312490   -1.555217    1.748203
 H    2.220032    1.188833    0.719625
 H    3.939097    2.861866    0.038926
 H   -0.125108   -1.501717    0.145196
 H    7.018447    0.081612    1.088253
 H    0.340910    0.554729   -3.594390
 H    3.660246   -1.462432   -1.786461
 H   -3.709272    0.572572   -2.106165
 H   -5.444612   -0.491917   -2.803870
 H   -6.943508    0.232614   -2.807384
 H   -1.683170    0.446681   -2.606391
