48 
5ehi_ligand_xtb.xyz
 C    5.440492    0.318233   -0.097084
 C    5.730700   -1.004442   -0.380118
 C    4.800531   -2.003896   -0.161209
 C    3.572349   -1.667983    0.383199
 C    3.267607   -0.352535    0.692641
 C    0.862016   -0.627973    1.169805
 C   -1.496731   -0.207298    1.845877
 C   -2.339072    0.565691    2.651467
 C   -3.713751    0.479607    2.535574
 C   -4.283254   -0.332352    1.566836
 C   -3.444358   -1.099251    0.782335
 C   -3.147103    0.477183   -1.564236
 C   -3.373911    1.824131   -1.273166
 C   -2.315105    2.666253   -1.008360
 C   -1.007908    2.177049   -1.009622
 C    0.120998    2.999366   -0.530146
 C   -0.779311    0.849682   -1.379179
 C   -1.832320    0.015551   -1.677762
 C   -2.074407   -1.085773    0.925989
Cl    7.282055   -1.401772   -1.035057
 C    4.200160    0.669957    0.427343
 N   -4.187941   -0.424669   -1.672029
 N    3.915520    1.986277    0.754870
 O    0.669973   -1.602709    0.481970
 N    2.059412    0.003688    1.316964
 S   -4.119182   -1.840500   -0.696798
 O   -3.208484   -2.761363   -1.288856
 O   -5.491077   -2.210480   -0.533344
 N   -0.130433   -0.024356    1.943411
 O    0.078739    4.314992   -0.787658
 O    1.042203    2.538009    0.102486
 H    6.174748    1.085644   -0.290798
 H    5.031079   -3.028854   -0.399874
 H    2.838366   -2.434096    0.566725
 H   -1.905060    1.244278    3.372028
 H   -4.342632    1.074016    3.180438
 H   -5.349137   -0.386490    1.416818
 H   -4.387008    2.195075   -1.219721
 H   -2.521893    3.689945   -0.724340
 H    0.233631    0.480749   -1.419902
 H   -1.665235   -1.010272   -1.961366
 H   -1.461579   -1.733435    0.323885
 H   -5.112827   -0.021336   -1.625868
 H    4.604258    2.642409    0.417062
 H    2.971528    2.292145    0.551859
 H    2.074761    0.918577    1.743485
 H    0.157565    0.731748    2.548251
 H   -0.681055    4.556654   -1.334316
