93 
5ehn_ligand_ani.xyz
 N   -7.396699    0.811241   -0.368014
 C   -6.258901    0.010317   -0.285920
 C   -6.370940   -1.360046    0.001784
 C   -5.253574   -2.158126    0.004329
 C   -3.976080   -1.644868   -0.253687
 C   -5.001485    0.534821   -0.556395
 C   -3.852729   -0.260025   -0.497442
 N   -2.591391    0.309331   -0.682816
 C   -1.451462   -0.347431   -0.063111
 C   -1.328901   -0.070326    1.453434
 C   -2.162375    0.823992    2.128947
 C   -2.015910    1.058374    3.494687
 C   -1.030862    0.395804    4.218633
 C   -0.197880   -0.503324    3.561977
 C   -0.349124   -0.734621    2.199051
 C   -1.524092   -1.851114   -0.356094
 C   -0.373043   -2.595693   -0.584286
 C   -2.769031   -2.479443   -0.312145
 C   -2.806834   -3.885337   -0.364794
 C   -1.658953   -4.618121   -0.519369
 C   -0.410757   -3.986030   -0.650131
 N    0.751801   -4.732704   -0.764695
 C   -2.407081    1.379815   -1.650461
 C   -2.401640    2.812851   -1.101956
 C   -1.130272    3.239656   -0.369125
 C   -1.194688    4.709255    0.046614
 C    0.041407    5.216230    0.813940
 C    1.334406    4.986307    0.097661
 N    2.199267    3.972439    0.359721
 N    3.200442    3.955684   -0.536809
 N    3.034559    4.955598   -1.347261
 C    1.901623    5.605360   -0.994912
 C    2.161747    2.948006    1.391949
 C    2.087789    1.550953    0.800237
 N    3.396976    1.112692    0.315656
 C    3.387170   -0.188845   -0.220868
 C    2.948564   -0.404623   -1.565064
 C    2.568413    0.637021   -2.461201
 C    2.851976   -1.748797   -2.001571
 C    2.384347   -2.009726   -3.312654
 C    2.028666   -0.987079   -4.157402
 C    2.121431    0.348419   -3.728636
 N    3.141128   -2.799511   -1.190188
 C    3.535663   -2.570510    0.049238
 C    3.732290   -3.798477    0.914091
 C    3.705873   -1.269417    0.573805
 C    4.234474   -1.053687    1.983109
 C    4.027769   -2.276019    2.878348
 C    4.550780   -3.526051    2.174294
 H   -7.231927    1.797756   -0.218848
 H   -8.181959    0.481392    0.175324
 H   -7.351118   -1.786591    0.204453
 H   -5.375469   -3.215358    0.229727
 H   -4.920504    1.589394   -0.808016
 H   -0.540520    0.039705   -0.546614
 H   -2.934099    1.354601    1.577551
 H   -2.677295    1.763373    3.992317
 H   -0.915317    0.578507    5.283530
 H    0.578847   -1.031715    4.112299
 H    0.326583   -1.433628    1.707835
 H    0.584428   -2.090755   -0.690801
 H   -3.754617   -4.415215   -0.305899
 H   -1.706274   -5.705056   -0.553445
 H    1.542741   -4.200683   -1.119788
 H    0.643749   -5.633267   -1.210530
 H   -1.462072    1.197666   -2.185902
 H   -3.196961    1.284276   -2.403555
 H   -3.267830    2.963232   -0.442015
 H   -2.551107    3.485060   -1.959052
 H   -0.260961    3.094153   -1.027723
 H   -0.963004    2.598368    0.510637
 H   -2.078638    4.878245    0.675448
 H   -1.328666    5.326268   -0.851713
 H   -0.071692    6.292953    0.985950
 H    0.064407    4.758381    1.810815
 H    1.567171    6.473841   -1.543823
 H    1.293162    3.137407    2.025176
 H    3.062191    3.032518    2.009617
 H    1.329754    1.531688   -0.003679
 H    1.742841    0.844556    1.561467
 H    3.779759    1.785938   -0.341270
 H    2.623761    1.676876   -2.141889
 H    2.305782   -3.049498   -3.612809
 H    1.673840   -1.215320   -5.158177
 H    1.839087    1.153939   -4.401910
 H    2.730982   -4.157938    1.195548
 H    4.185003   -4.580108    0.297818
 H    5.309077   -0.827271    1.924905
 H    3.763969   -0.161494    2.408043
 H    4.528586   -2.127325    3.842072
 H    2.953352   -2.393147    3.089087
 H    5.602244   -3.366816    1.899660
 H    4.519510   -4.398954    2.835595
