89 
5ehq_ligand_ani.xyz
 N    1.716519   -1.281333   -0.570681
 C    0.020606   -3.129056   -0.540408
 C    0.351273   -1.652988   -0.245880
 C    2.719377   -1.322966    0.385746
 C    4.040183   -1.634271    0.042922
 C   -1.734951   -0.859723    2.834517
 C   -0.748244   -0.358946    3.710133
 N   -3.061278   -0.956088    3.222667
 C   -0.613652   -5.806282   -1.046938
 C    0.524390   -5.482497   -0.313775
 C    0.837984   -4.151729   -0.061077
 C    0.000418   -1.239188    1.181029
 C   -1.331950   -1.274424    1.570381
 C    0.989301   -0.850349    2.090146
 C    0.574090   -0.355391    3.340575
 C   -1.440619   -4.793087   -1.521173
 C   -1.127311   -3.460652   -1.264798
 C    2.397322   -1.021172    1.727035
 C    3.444224   -0.952971    2.656526
 C    4.747518   -1.212937    2.302364
 C    5.062713   -1.572224    0.983279
 N    6.369452   -1.909635    0.632689
 C    2.028654   -1.092339   -1.974553
 C    2.841008    0.170068   -2.340802
 C    2.617680    1.391917   -1.449078
 C    3.194355    2.675705   -2.052922
 C    3.410667    3.786830   -1.006873
 C    2.175759    4.080262   -0.220374
 N    1.229883    4.955458   -0.661285
 N    0.216708    4.931913    0.147327
 N    0.482856    4.063031    1.123248
 C    1.703972    3.500642    0.932560
 C   -0.567594    3.607357    2.022380
 C   -1.241629    2.347658    1.482602
 N   -1.921039    2.649055    0.221461
 C   -2.490237    1.602110   -0.497063
 C   -3.616896    0.921815    0.008714
 C   -4.336679    1.352350    1.162721
 C   -4.070766   -0.238072   -0.688594
 C   -5.176186   -0.958245   -0.161067
 C   -5.836420   -0.527266    0.963103
 C   -5.420362    0.643141    1.627841
 N   -3.488819   -0.691819   -1.814323
 C   -2.483650    0.020772   -2.348347
 C   -1.900223   -0.446227   -3.559321
 C   -1.956936    1.207191   -1.749770
 C   -0.896040    1.889818   -2.422930
 C   -0.387208    1.419876   -3.612059
 C   -0.890438    0.239330   -4.185644
 H   -0.313649   -1.077018   -0.913332
 H    4.284510   -1.921296   -0.976658
 H   -1.041231    0.021612    4.686222
 H   -3.718668   -1.086624    2.466420
 H   -3.379478   -0.283309    3.905792
 H   -0.857201   -6.847045   -1.244740
 H    1.171688   -6.269592    0.064453
 H    1.726754   -3.899390    0.516697
 H   -2.095165   -1.584932    0.856025
 H    1.301969    0.052906    4.038294
 H   -2.334599   -5.040917   -2.088016
 H   -1.791890   -2.671475   -1.617388
 H    3.231146   -0.713113    3.696758
 H    5.539423   -1.158742    3.046388
 H    6.590429   -1.788731   -0.346738
 H    7.080015   -1.503800    1.225018
 H    2.529883   -1.983676   -2.386352
 H    1.062317   -1.038169   -2.488655
 H    2.581484    0.412809   -3.382166
 H    3.915016   -0.061011   -2.356121
 H    1.544505    1.533388   -1.254672
 H    3.080715    1.222394   -0.466829
 H    4.160665    2.470341   -2.534147
 H    2.525347    3.042214   -2.846360
 H    4.207327    3.475694   -0.318213
 H    3.746382    4.707884   -1.493281
 H    2.095174    2.740592    1.597413
 H   -0.107737    3.405023    2.995901
 H   -1.286413    4.422760    2.125402
 H   -0.473623    1.563336    1.355337
 H   -1.954540    1.971309    2.218524
 H   -1.343975    3.235737   -0.371300
 H   -4.024123    2.267232    1.653173
 H   -5.469832   -1.855197   -0.691935
 H   -6.682578   -1.094473    1.342037
 H   -5.943594    0.973658    2.521317
 H   -2.310766   -1.358919   -3.973377
 H   -0.466588    2.793676   -1.999538
 H    0.408977    1.961805   -4.120022
 H   -0.479089   -0.144055   -5.115806
