89 
5ehq_ligand_xtb.xyz
 N    1.890170    0.506066   -0.824247
 C    2.793206   -1.735402   -0.585896
 C    1.607417   -0.822675   -0.315520
 C    2.713681    1.318966   -0.082385
 C    3.567604    2.245011   -0.672815
 C    0.070791   -1.708052    3.029669
 C    0.477670   -0.617200    3.798088
 N   -0.638740   -2.754023    3.589438
 C    5.009375   -3.304712   -1.194736
 C    4.947524   -2.623129    0.008314
 C    3.846330   -1.841888    0.312277
 C    1.244108   -0.761124    1.142376
 C    0.443306   -1.745532    1.686517
 C    1.724384    0.290516    1.931765
 C    1.293266    0.356308    3.257786
 C    3.964350   -3.199572   -2.096909
 C    2.865136   -2.416875   -1.794201
 C    2.643467    1.247189    1.328868
 C    3.457729    2.086443    2.080527
 C    4.304057    2.998280    1.486728
 C    4.365805    3.084788    0.095834
 N    5.271798    3.934468   -0.513072
 C    1.500504    0.829240   -2.173071
 C    0.785193    2.187932   -2.248364
 C   -0.184238    2.375618   -1.084951
 C   -0.941373    3.699788   -1.163790
 C   -1.418185    4.158639    0.220216
 C   -2.282676    3.138687    0.867856
 N   -3.610445    3.069769    0.642117
 N   -4.107869    2.101803    1.313974
 N   -3.133687    1.509919    2.003173
 C   -1.956673    2.122829    1.747563
 C   -3.439614    0.374050    2.820206
 C   -3.299987   -0.949082    2.042721
 N   -3.867143   -0.846591    0.714096
 C   -3.119831   -1.155435   -0.397367
 C   -2.366788   -2.352169   -0.440843
 C   -2.525628   -3.413599    0.480575
 C   -1.432922   -2.522651   -1.511036
 C   -0.630364   -3.691630   -1.540404
 C   -0.782327   -4.669002   -0.604861
 C   -1.760857   -4.541579    0.398861
 N   -1.277030   -1.630033   -2.484614
 C   -2.107118   -0.590974   -2.538419
 C   -1.984764    0.289729   -3.641949
 C   -3.084275   -0.306529   -1.529787
 C   -3.910234    0.828804   -1.701223
 C   -3.764088    1.650798   -2.780571
 C   -2.789512    1.381934   -3.758123
 H    0.747168   -1.212846   -0.870384
 H    3.648488    2.299359   -1.747469
 H    0.166553   -0.550532    4.832105
 H   -1.108633   -3.372512    2.948885
 H   -1.121333   -2.572721    4.453328
 H    5.869572   -3.914780   -1.429528
 H    5.761568   -2.698681    0.714685
 H    3.806063   -1.313954    1.252932
 H    0.120450   -2.569969    1.067885
 H    1.594337    1.185668    3.880497
 H    4.007120   -3.727621   -3.038833
 H    2.052964   -2.329008   -2.501467
 H    3.435779    2.024095    3.158378
 H    4.928353    3.640233    2.091043
 H    5.084657    4.170080   -1.474293
 H    5.602336    4.703104    0.047512
 H    2.356535    0.818335   -2.863459
 H    0.804454    0.054251   -2.500631
 H    0.246364    2.243860   -3.195710
 H    1.513587    2.999989   -2.224969
 H   -0.890493    1.543374   -1.062018
 H    0.385660    2.353482   -0.154611
 H   -0.284917    4.472485   -1.569894
 H   -1.799918    3.599942   -1.829537
 H   -0.550358    4.345973    0.856447
 H   -1.990029    5.082465    0.117813
 H   -1.032005    1.807446    2.183430
 H   -2.779072    0.357329    3.689866
 H   -4.475459    0.498536    3.148008
 H   -2.241388   -1.212858    1.956105
 H   -3.812329   -1.722947    2.628180
 H   -4.458016   -0.030160    0.604993
 H   -3.310000   -3.351244    1.218951
 H    0.079298   -3.788907   -2.346328
 H   -0.172392   -5.559468   -0.639661
 H   -1.911498   -5.353053    1.096537
 H   -1.244981    0.044936   -4.388366
 H   -4.682775    1.056769   -0.981928
 H   -4.403238    2.514073   -2.886361
 H   -2.692562    2.045415   -4.605350
