39 
5ehv_ligand_ani.xyz
 O   -7.553991   -2.107420   -0.069841
 C   -6.212352   -2.048372   -0.239034
 O   -5.610843   -3.022705   -0.612601
 C   -5.580127   -0.734183    0.063890
 C   -4.257607   -0.587190   -0.072443
 C   -3.450764    0.616740    0.173191
 C   -2.064356    0.528496   -0.033429
 C   -1.254197    1.636945    0.182714
 O    0.095950    1.653080    0.005346
 C    0.727321    0.447778   -0.379682
 C    2.213087    0.678317   -0.495588
 C    2.734204    1.968681   -0.565330
 C    4.105632    2.160011   -0.697601
 C    4.962989    1.064551   -0.760789
 C    4.453609   -0.233899   -0.689548
 C    5.374085   -1.429245   -0.707670
 C    5.641193   -2.061498    0.662501
 O    5.666997   -1.219887    1.713874
 O    5.861244   -3.233068    0.806479
 C    3.077489   -0.413520   -0.557723
 C   -1.818073    2.847095    0.605996
 C   -3.186647    2.927921    0.809037
 C   -4.006503    1.823976    0.597116
 H   -7.894487   -1.254468    0.231911
 H   -6.215683    0.085148    0.392919
 H   -3.703418   -1.464010   -0.406155
 H   -1.643402   -0.416342   -0.364222
 H    0.316617    0.106804   -1.341433
 H    0.525968   -0.336524    0.363984
 H    2.060397    2.818010   -0.511377
 H    4.509961    3.168502   -0.745546
 H    6.034513    1.218497   -0.875949
 H    6.350239   -1.141786   -1.122676
 H    4.986606   -2.229161   -1.343339
 H    5.429619   -0.324252    1.427177
 H    2.684911   -1.428057   -0.493912
 H   -1.168880    3.702510    0.767607
 H   -3.626102    3.865723    1.137414
 H   -5.075610    1.913781    0.763900
