19 
5ehw_ligand_ani.xyz
 O    4.442276    0.615243   -0.113244
 C    3.975327   -0.651482   -0.036920
 C    2.501536   -0.874942   -0.051794
 C    1.562289    0.062157    0.093839
 C    0.105274   -0.150920    0.069081
 C   -0.776629    0.939400    0.031580
Cl   -0.180949    2.577315    0.023580
 C   -2.155242    0.774513   -0.009453
 C   -2.675378   -0.512260   -0.007098
Cl   -4.396566   -0.735637   -0.060471
 C   -1.838978   -1.620502    0.038420
 C   -0.466655   -1.429196    0.076404
 O    4.745155   -1.572739    0.044354
 H    3.724329    1.244623   -0.259975
 H    2.250221   -1.924264   -0.166056
 H    1.851328    1.098871    0.256182
 H   -2.810753    1.638650   -0.042678
 H   -2.257913   -2.621155    0.042708
 H    0.171832   -2.305902    0.123740
