45 
5ei2_ligand_xtb.xyz
 C    0.022314    3.942496    1.127325
 C    2.464904    1.126493   -0.687350
 C    3.769746    0.791700   -0.363463
 C    4.583295   -3.178189    0.815969
 C    4.623552    2.958675   -0.849286
 O    4.838468    1.639848   -0.410870
 C    1.463630    0.170943   -0.591851
 C    4.065367   -0.511187    0.048550
 C    3.071062   -1.462631    0.146133
 O    3.270415   -2.761667    0.528366
 C    1.738175   -1.117157   -0.167103
 N    0.779465   -2.118917   -0.065453
 C   -0.569329   -2.025807   -0.062258
 N   -1.193499   -3.237117   -0.059025
 C   -2.490747   -3.238319   -0.109532
 C   -3.257919   -2.048939   -0.145875
 C   -4.658005   -1.978292   -0.252108
 C   -5.234224   -0.734723   -0.287553
 N   -4.550947    0.407242   -0.169325
 C   -3.243111    0.385261   -0.035610
 C   -2.511689   -0.845626   -0.064954
 N   -1.169774   -0.854752   -0.042092
 C   -2.563104    1.648728    0.139000
 C   -3.024066    2.932375   -0.229206
 N   -2.137656    3.855011    0.072295
 N   -1.114131    3.216371    0.641026
 C   -1.320698    1.891975    0.705195
 H    0.118180    4.860072    0.549098
 H   -0.106283    4.205139    2.180689
 H    0.920447    3.335130    1.019599
 H    2.206438    2.115693   -1.029011
 H    5.239359   -3.061412   -0.051950
 H    5.001000   -2.628355    1.664768
 H    4.507215   -4.233764    1.072518
 H    4.231248    2.984654   -1.870902
 H    3.940575    3.498152   -0.184478
 H    5.600170    3.439597   -0.826431
 H    0.450568    0.424138   -0.853728
 H    5.092915   -0.733463    0.282424
 H    1.142328   -3.056455    0.045848
 H   -2.975781   -4.207960   -0.123682
 H   -5.244694   -2.882662   -0.311831
 H   -6.303744   -0.611134   -0.397309
 H   -3.947786    3.184397   -0.707505
 H   -0.612337    1.221258    1.143797
