45 
5ei2_ligand_ani.xyz
 C    0.663193    3.800458    0.635474
 C    2.460688    0.948964   -0.850986
 C    3.670286    0.617081   -0.250453
 C    4.220189   -3.315679    1.076710
 C    4.535138    2.802690   -0.521024
 O    4.714804    1.472371   -0.087338
 C    1.443598   -0.003729   -0.941673
 C    3.877478   -0.687026    0.215957
 C    2.868113   -1.625683    0.109946
 O    2.989964   -2.921576    0.505708
 C    1.603926   -1.279954   -0.420882
 N    0.611667   -2.269794   -0.429657
 C   -0.741886   -2.077218   -0.312396
 N   -1.468970   -3.233898   -0.287956
 C   -2.765653   -3.097542   -0.181261
 C   -3.403983   -1.829769   -0.071915
 C   -4.791248   -1.627189    0.025777
 C   -5.250861   -0.336198    0.120116
 N   -4.448458    0.745472    0.146105
 C   -3.137973    0.586319    0.094656
 C   -2.546684   -0.712270   -0.067774
 N   -1.206664   -0.853398   -0.221615
 C   -2.286404    1.769600    0.196409
 C   -2.698758    3.113339   -0.007315
 N   -1.696413    3.962616    0.131569
 N   -0.636188    3.204023    0.439998
 C   -0.940637    1.893438    0.504690
 H    0.969971    4.328727   -0.271373
 H    0.639542    4.505223    1.470049
 H    1.368545    2.992697    0.846467
 H    2.288890    1.940458   -1.256604
 H    5.047668   -3.193502    0.366527
 H    4.437406   -2.746649    1.989499
 H    4.112060   -4.371682    1.326872
 H    4.329637    2.851131   -1.598771
 H    3.713910    3.295872    0.018110
 H    5.469439    3.323431   -0.305826
 H    0.508064    0.265495   -1.416359
 H    4.842346   -0.923436    0.652865
 H    0.924327   -3.221632   -0.292372
 H   -3.366813   -4.007026   -0.175063
 H   -5.475860   -2.471824    0.018023
 H   -6.315728   -0.125855    0.182981
 H   -3.691825    3.469554   -0.254653
 H   -0.195665    1.159725    0.779219
