46 
5ei4_ligand_xtb.xyz
 C    1.515295    0.284187   -0.524152
 C    2.691167   -0.238404   -0.003956
 C    3.982356    0.230794   -0.419882
 C    0.957358   -1.204520    0.898945
 N    3.832209    1.247827   -1.360766
 N    1.493489    1.264045   -1.467368
 C   -2.052152    1.820416   -0.968404
 C   -2.922831    2.184863    0.043041
 C   -2.442599    2.896087    1.130937
Cl   -3.519410    3.336550    2.408900
 C   -1.106825    3.259276    1.203928
 C   -0.249228    2.897852    0.182158
 C   -0.709060    2.166924   -0.906393
 C    0.233675    1.752189   -2.002163
 C    2.687682    1.795908   -1.912997
 O    2.742261    2.683261   -2.729499
 O    5.074821   -0.141780   -0.052996
 N    2.305428   -1.204924    0.895629
 C    3.211399   -2.005868    1.685111
 C    3.441666   -1.389393    3.061761
 N    0.451956   -0.321062    0.043669
 C    0.110274   -2.108505    1.701802
 S   -0.447416   -3.562244    0.699083
 C   -1.731063   -2.855937   -0.238701
 N   -2.507036   -3.556676   -0.990534
 C   -3.405468   -2.655964   -1.556640
 N   -4.397030   -2.857801   -2.309392
 N   -3.030583   -1.360971   -1.159227
 N   -2.034653   -1.523412   -0.179026
 H    4.694664    1.648123   -1.715238
 H   -2.422112    1.263646   -1.816405
 H   -3.968054    1.922955   -0.008281
 H   -0.745893    3.822551    2.049893
 H    0.789775    3.188938    0.232572
 H   -0.223661    0.967751   -2.613259
 H    0.486397    2.601105   -2.646169
 H    4.158818   -2.046523    1.143906
 H    2.803273   -3.015890    1.770598
 H    3.911498   -0.414634    2.959226
 H    2.505427   -1.271626    3.603383
 H    4.101613   -2.029952    3.638990
 H   -0.781543   -1.596178    2.057717
 H    0.654361   -2.541502    2.536993
 H   -4.522696   -3.834410   -2.545717
 H   -3.761864   -0.698908   -0.941750
 H   -1.294383   -0.811354   -0.140371
