47 
5ei6_ligand_xtb.xyz
 C   -5.107942   -1.597220   -0.221195
 C   -4.251964   -2.653775   -0.356330
 C   -2.861323   -2.444711   -0.292929
 C   -2.340925   -1.137970   -0.078908
 C   -3.257248   -0.060868    0.100719
 C   -0.948037   -0.977519   -0.086016
 C   -0.134884   -2.081089   -0.278750
 C   -1.925763   -3.491619   -0.429289
 C    2.095317   -0.962175   -0.336702
 C    1.814670    0.233749   -0.977475
 C   -2.792135    1.294656    0.373739
 C    3.947133    1.137902   -0.357789
 C    2.720532    1.284693   -0.982937
 C    4.661526    3.346158   -0.875635
 O    4.919208    2.095646   -0.287546
 C    4.267667   -0.077773    0.253226
 C    3.362928   -1.118372    0.268310
 O    3.593797   -2.343653    0.833728
 C    4.852515   -2.582506    1.412668
 N    1.231972   -2.047974   -0.312901
 N   -0.634731   -3.331618   -0.418334
 C   -4.606807   -0.308132    0.009603
 C   -1.821697    1.734169    1.298271
 N   -1.708553    3.046706    1.280738
 N   -2.571605    3.482918    0.369649
 C   -2.695035    4.883986    0.092439
 C   -3.254369    2.468451   -0.195383
 H   -6.176525   -1.744720   -0.278173
 H   -4.622152   -3.656098   -0.517716
 H   -0.517455   -0.005781    0.080217
 H   -2.274175   -4.510316   -0.554793
 H    0.882603    0.346244   -1.506867
 H    2.451055    2.198619   -1.486238
 H    4.509073    3.258774   -1.956584
 H    3.789557    3.830663   -0.424258
 H    5.547605    3.950079   -0.685662
 H    5.238415   -0.158241    0.712820
 H    5.657428   -2.479519    0.678068
 H    5.041171   -1.909477    2.254762
 H    4.820476   -3.609804    1.772736
 H    1.670909   -2.948378   -0.177381
 H   -5.301875    0.509781    0.138867
 H   -1.239461    1.151269    1.983638
 H   -3.708426    5.231824    0.302860
 H   -1.992324    5.410097    0.735229
 H   -2.458237    5.093845   -0.952758
 H   -3.986266    2.634751   -0.960110
