47 
5ei6_ligand_ani.xyz
 C   -5.255922   -1.343200   -0.143812
 C   -4.444868   -2.421992   -0.381032
 C   -3.041290   -2.271321   -0.339768
 C   -2.460883   -1.010472   -0.051362
 C   -3.325228    0.106862    0.164716
 C   -1.049842   -0.933223    0.012992
 C   -0.297327   -2.058154   -0.259369
 C   -2.155022   -3.354768   -0.561005
 C    1.993611   -1.028106   -0.265373
 C    1.761603    0.220487   -0.821246
 C   -2.772877    1.449334    0.412996
 C    3.985992    0.954277   -0.241200
 C    2.744750    1.215113   -0.810593
 C    4.765076    3.147207   -0.671842
 O    5.001974    1.853685   -0.160671
 C    4.261523   -0.315354    0.282731
 C    3.285761   -1.294788    0.248634
 O    3.471065   -2.568862    0.687389
 C    4.736217   -2.895519    1.223520
 N    1.079356   -2.083313   -0.229708
 N   -0.848794   -3.273912   -0.519636
 C   -4.690330   -0.079405    0.129777
 C   -2.580960    2.122634    1.639972
 N   -2.112948    3.351316    1.464637
 N   -2.005023    3.487888    0.137433
 C   -1.544726    4.740076   -0.420210
 C   -2.391330    2.379090   -0.529733
 H   -6.336412   -1.449058   -0.166132
 H   -4.863387   -3.402572   -0.598131
 H   -0.578357   -0.005746    0.316587
 H   -2.578349   -4.336589   -0.778703
 H    0.812247    0.433128   -1.305464
 H    2.518393    2.179144   -1.249560
 H    4.545911    3.119827   -1.747392
 H    3.933211    3.637803   -0.149659
 H    5.682917    3.712100   -0.502601
 H    5.247640   -0.495458    0.698231
 H    5.531669   -2.764040    0.479152
 H    4.963544   -2.289657    2.109712
 H    4.679766   -3.946549    1.509212
 H    1.471001   -3.012164   -0.159887
 H   -5.340355    0.770545    0.316103
 H   -2.755733    1.745212    2.640667
 H   -2.256933    5.538647   -0.196957
 H   -0.570713    4.996081    0.002604
 H   -1.452857    4.625275   -1.501782
 H   -2.369226    2.318943   -1.611585
