51 
5ei8_ligand_ani.xyz
 C   -0.634151   -3.401128    0.968717
 N    0.747775   -3.151044    0.636423
 C    1.368287   -1.955496    0.618841
 N    1.565333   -4.159954    0.308816
 C    2.732831   -3.591992    0.064583
 C    2.679672   -2.181979    0.226796
 C    3.792853   -1.258374    0.020138
 N    5.016307   -1.752877   -0.043896
 C    6.066183   -0.917530   -0.162821
 C    5.950269    0.449275   -0.233000
 C    4.659861    1.005385   -0.206600
 C    3.545277    0.149581   -0.116212
 N    2.278680    0.635176   -0.166431
 C    2.143011    1.937831   -0.240232
 N    3.145644    2.865934   -0.274146
 C    4.366456    2.396706   -0.270479
 N    0.883950    2.483348   -0.267940
 C   -0.345370    1.818852   -0.295441
 C   -1.472727    2.530340    0.172969
 O   -1.211012    3.811395    0.562290
 C   -2.296473    4.586410    1.025309
 C   -2.721195    1.937497    0.220126
 C   -2.903408    0.627036   -0.240988
 C   -1.800575   -0.051112   -0.755665
 C   -0.541890    0.535776   -0.796583
 C   -4.220362   -0.016477   -0.204559
 C   -5.483966    0.552120    0.105092
 N   -6.460946   -0.336810    0.031174
 N   -5.862201   -1.478894   -0.321892
 C   -6.653325   -2.676268   -0.483558
 C   -4.528907   -1.338944   -0.475639
 H   -0.729828   -3.790256    1.986636
 H   -1.170155   -2.452801    0.884262
 H   -1.049521   -4.124180    0.263915
 H    0.842955   -1.051473    0.896487
 H    3.588119   -4.191292   -0.224093
 H    7.040957   -1.397996   -0.196478
 H    6.826430    1.087755   -0.316178
 H    5.181806    3.119006   -0.317536
 H    0.847797    3.486253   -0.148419
 H   -3.072140    4.682726    0.255354
 H   -2.737313    4.152393    1.931293
 H   -1.890102    5.571705    1.256125
 H   -3.572152    2.484992    0.616768
 H   -1.919852   -1.055532   -1.150251
 H    0.285089   -0.013205   -1.226545
 H   -5.727956    1.574983    0.367572
 H   -7.116140   -2.951156    0.467577
 H   -7.433456   -2.506069   -1.229154
 H   -6.000245   -3.484463   -0.818086
 H   -3.922106   -2.191772   -0.757081
