39 
5eie_ligand_xtb.xyz
 N   -2.191304   -0.504371    2.464903
 N   -1.954490   -1.542926    1.870896
 N   -0.757845   -1.826281    1.401134
 C   -0.609896   -2.932817    0.494137
 C   -0.978399   -2.545689   -0.956371
 N   -0.024433   -1.641873   -1.569342
 C    0.180924   -0.389645   -0.991617
 C    1.441165    0.019287   -0.563313
 C    2.654136   -0.850239   -0.794911
 C    3.966721   -0.129434   -0.502771
 C    3.880686    0.585068    0.838600
 C    2.846219    1.696540    0.732664
 C    1.533651    1.215150    0.180218
 N    0.497846    1.956720    0.485128
 C   -0.706337    1.657544   -0.035163
 C   -0.915823    0.508735   -0.842810
 C   -1.787146    2.521749    0.232588
 C   -3.009953    2.292808   -0.331702
 C   -3.191499    1.215339   -1.209803
 C   -2.169707    0.340710   -1.460164
 H   -1.398499    0.167433    2.540508
 H   -0.022350   -1.111806    1.435073
 H   -1.289812   -3.717850    0.830963
 H    0.419511   -3.299014    0.546623
 H   -1.965889   -2.085413   -0.927278
 H   -1.026088   -3.446563   -1.571695
 H    0.850224   -2.119447   -1.748123
 H    2.668191   -1.192256   -1.834879
 H    2.589543   -1.738902   -0.152835
 H    4.164361    0.604282   -1.287190
 H    4.784463   -0.853232   -0.505525
 H    4.850118    1.004699    1.112077
 H    3.591199   -0.125615    1.616862
 H    3.219399    2.478109    0.063641
 H    2.658901    2.166479    1.699216
 H   -1.604629    3.368478    0.875254
 H   -3.837343    2.955591   -0.126347
 H   -4.146411    1.081377   -1.696098
 H   -2.301761   -0.455863   -2.176755
