20 
5eif_ligand_xtb.xyz
 O   -2.661005   -1.448140   -0.433048
 C   -2.101325   -0.477674    0.001516
 O   -2.809335    0.506912    0.599969
 C   -0.629113   -0.294576   -0.038572
 C    0.155291   -1.446084    0.025326
 C    1.529176   -1.373409    0.066231
 C    2.165704   -0.133600    0.033620
 C    3.658898   -0.053472    0.097651
 C    1.394427    1.009807   -0.072186
 C    0.002021    0.957448   -0.122555
 N   -0.727613    2.140868   -0.208175
 H   -2.231642    1.190939    0.970786
 H   -0.352968   -2.397643    0.057153
 H    2.119470   -2.274847    0.126616
 H    4.014281   -0.461607    1.042971
 H    4.104217   -0.640559   -0.704076
 H    4.002704    0.973975    0.011716
 H    1.876129    1.977114   -0.124514
 H   -1.564367    2.098041   -0.773456
 H   -0.162285    2.947690   -0.431522
