34 
5eis_ligand_xtb.xyz
 C   -1.327809    0.163711    0.883311
 C   -2.437446   -0.031263    0.069286
 C   -2.823601    0.915195   -0.935119
 C   -2.195269   -1.670346    1.469833
 N   -1.937569    1.991482   -0.934485
 N   -0.535522    1.267569    0.791427
 C   -3.729389   -2.626927   -1.382803
 C   -4.124572   -1.876891   -0.114201
 N   -2.983358   -1.225666    0.477168
 N   -1.192543   -0.864463    1.749422
 O   -3.758797    0.862395   -1.705596
 C   -0.816979    2.226094   -0.155253
 O   -0.147069    3.222363   -0.300428
 C    0.658293    1.390942    1.617414
 C    1.816402    0.690506    0.956076
 C    2.065832   -0.650602    1.217418
 C    3.099738   -1.310221    0.577573
 C    3.883387   -0.620512   -0.333926
Cl    5.178429   -1.439376   -1.135854
 C    3.641110    0.714887   -0.614075
 C    2.605310    1.364735    0.032439
 H   -2.374420   -2.590090    1.990552
 H   -2.127732    2.717543   -1.616821
 H   -3.371501   -1.924093   -2.130603
 H   -2.946501   -3.352624   -1.172744
 H   -4.593748   -3.147689   -1.783981
 H   -4.544580   -2.563248    0.625225
 H   -4.861838   -1.109549   -0.361397
 H    0.430195    0.936468    2.582543
 H    0.863984    2.457624    1.727585
 H    1.439041   -1.179767    1.919341
 H    3.298527   -2.350685    0.781546
 H    4.255920    1.237527   -1.329736
 H    2.399187    2.401604   -0.186361
