19 
5eiw_ligand_dft.xyz
 C    2.111525    0.070921    0.008318
 C    0.630536   -0.156063   -0.043432
 C   -1.605052    0.764641   -0.010558
 C   -0.229376    0.943713   -0.022334
 C   -2.134038   -0.544536    0.002044
 C    0.113156   -1.444098   -0.066859
 F    2.476723    1.167403   -0.684432
 F    2.549469    0.255042    1.270006
 F    2.802116   -0.967537   -0.493777
 C   -1.265394   -1.631445   -0.041929
 N   -2.518223    1.832634    0.038580
 N   -3.525769   -0.681866    0.003694
 H    0.180158    1.949828   -0.032916
 H    0.776758   -2.300621   -0.096968
 H   -1.673760   -2.638796   -0.045716
 H   -2.075715    2.736540   -0.070714
 H   -3.262403    1.728657   -0.644860
 H   -3.978849   -0.019560    0.625187
 H   -3.841148   -1.624401    0.192387
