19 
5eiw_ligand_xtb.xyz
 C    2.092841    0.055742    0.003883
 C    0.615738   -0.175499   -0.018814
 C   -1.600449    0.774168   -0.010694
 C   -0.225257    0.933296   -0.003524
 C   -2.141332   -0.530462    0.005703
 C    0.090231   -1.456453   -0.046353
 F    2.482870    1.004988   -0.871046
 F    2.531202    0.479552    1.210512
 F    2.812608   -1.038127   -0.285812
 C   -1.283383   -1.621439   -0.031134
 N   -2.455717    1.869979    0.040868
 N   -3.518325   -0.694897   -0.014663
 H    0.198924    1.926603    0.003992
 H    0.743047   -2.313837   -0.070537
 H   -1.702419   -2.616852   -0.039423
 H   -1.994319    2.752013   -0.127106
 H   -3.296765    1.767342   -0.508134
 H   -4.033974    0.001374    0.502553
 H   -3.826647   -1.636044    0.177933
