46 
5eko_ligand_ani.xyz
 O    0.149877    2.529297   -0.602126
 C    0.832947    1.575062   -0.269611
 C    2.312319    1.724208   -0.039652
 C    2.781323    2.999938    0.272201
 C    4.135904    3.204147    0.507529
 C    5.035052    2.147479    0.409166
 C    3.210688    0.663007   -0.149543
 C    4.568091    0.877098    0.068846
 N    5.461852   -0.221645   -0.037444
 C    5.240397   -1.501622    0.436737
 C    6.692206   -0.253824   -0.631485
 N    7.251667   -1.433190   -0.559341
 C    6.350005   -2.229125    0.114856
 C    6.640515   -3.667919    0.400477
 N    0.340610    0.313537   -0.046253
 C   -1.003865   -0.109753   -0.109326
 C   -1.981313    0.603746   -0.802808
 C   -3.285339    0.128557   -0.848266
 C   -3.622721   -1.054383   -0.199207
 C   -2.650608   -1.781748    0.477993
 C   -1.348257   -1.308007    0.524097
 O   -4.888987   -1.598887   -0.257419
 C   -5.993896   -0.826596   -0.034676
 C   -5.985891    0.340829    0.723903
 C   -7.199245    0.997483    0.909953
 N   -8.366812    0.588223    0.413169
 C   -8.345639   -0.538608   -0.304233
 C   -7.201916   -1.284366   -0.552773
 H    2.065942    3.815456    0.324780
 H    4.499303    4.195182    0.764757
 H    6.092205    2.300997    0.608502
 H    2.889512   -0.330075   -0.457874
 H    4.336557   -1.749190    0.975246
 H    7.116582    0.613296   -1.121831
 H    5.876974   -4.099959    1.053704
 H    6.668792   -4.252389   -0.525366
 H    7.614205   -3.773098    0.887967
 H    0.975741   -0.342032    0.382948
 H   -1.718507    1.534311   -1.286253
 H   -4.044914    0.695962   -1.379030
 H   -2.925679   -2.714975    0.960270
 H   -0.592569   -1.878472    1.059736
 H   -5.069491    0.733857    1.153306
 H   -7.228410    1.915609    1.494555
 H   -9.304134   -0.867099   -0.703286
 H   -7.235006   -2.202750   -1.131755
