118 
5eld_ligand_ani.xyz
 C   -4.547130    2.927245   -1.739260
 C   -4.837737    1.447605   -1.507075
 C   -3.723593    0.812374   -0.664995
 C   -2.362856    1.121840   -1.275748
 C   -2.188210    2.625241   -1.492443
 C   -0.921424    2.963672   -2.267279
 C   -7.046024    0.379436   -1.344733
 C   -8.306618    0.291724   -0.511614
 O   -3.269531    3.119655   -2.293053
 O   -3.848692   -0.599587   -0.695881
 O   -1.361310    0.630625   -0.396779
 O   -0.838412    2.234146   -3.476657
 O   -6.855411   -0.296551   -2.342016
 N   -6.133483    1.294988   -0.895449
 O   -4.690954    3.587663   -0.499810
 C   -0.343021   -0.090458   -1.013321
 C    0.893428   -0.101372   -0.124202
 C    1.997831   -0.879021   -0.837741
 C    1.524151   -2.318865   -1.101871
 C    0.186913   -2.270976   -1.852475
 C   -0.402391   -3.661268   -2.036925
 O    1.361091    1.211533    0.146208
 O    3.119188   -0.868761    0.014169
 O    1.346465   -3.023490    0.103256
 O   -0.766079   -1.440232   -1.165592
 O   -1.534328   -3.642697   -2.872486
 O    4.663991    0.305377   -1.164736
 C    4.373339   -0.960842   -0.590471
 C    5.412489   -1.339745    0.486700
 N    4.947017   -1.204409    1.850305
 C    6.699170   -0.528848    0.332618
 O    7.783808   -1.213503    0.938467
 C    7.059223   -0.348483   -1.131291
 O    7.287927   -1.628038   -1.712450
 C    5.918146    0.389825   -1.857158
 C    5.757642   -0.019891   -3.320879
 O    5.314072   -1.344670   -3.505340
 C    4.135621   -2.163354    2.398723
 O    3.868769   -3.209369    1.818418
 C    3.623704   -1.827817    3.784065
 C    1.582583    1.505271    1.511424
 C    2.859902    2.326802    1.677969
 C    2.687884    3.659659    0.963650
 C    1.479574    4.386023    1.540387
 C    0.250110    3.473928    1.486961
 C   -0.942005    4.060526    2.213666
 O    4.020913    1.655513    1.221105
 O    3.828118    4.467861    1.183858
 O    1.737405    4.748174    2.877919
 O    0.501453    2.186443    2.069468
 C   -4.227157   -1.236978    0.481696
 C   -4.019670   -2.747430    0.293751
 C   -3.747916   -3.416689    1.645425
 C   -4.453144   -2.663841    2.764496
 C   -3.936289   -1.215272    2.825186
 C   -4.974511   -0.243079    3.358714
 O   -2.960411   -3.036709   -0.592590
 O   -4.251405   -4.745454    1.671487
 O   -5.848284   -2.666895    2.513975
 O   -3.437300   -0.774544    1.553803
 H   -5.260590    3.335883   -2.468475
 H   -4.885705    0.927052   -2.466262
 H   -3.761857    1.194226    0.364559
 H   -2.313763    0.616534   -2.252323
 H   -2.178285    3.135269   -0.516539
 H   -0.893175    4.047144   -2.453495
 H   -0.028860    2.693390   -1.695417
 H   -8.070140    0.142572    0.548847
 H   -8.906401   -0.544608   -0.871141
 H   -8.890834    1.214218   -0.597796
 H   -1.642921    2.440209   -3.973077
 H   -6.340083    1.866065   -0.087189
 H   -4.410760    4.503652   -0.633643
 H   -0.115650    0.331866   -2.008826
 H    0.617668   -0.622528    0.801606
 H    2.229352   -0.376830   -1.791428
 H    2.254500   -2.838465   -1.754244
 H    0.348950   -1.837440   -2.851941
 H   -0.617235   -4.105624   -1.056654
 H    0.349597   -4.291076   -2.531269
 H    2.211045   -3.118468    0.542823
 H   -2.302540   -3.508914   -2.291089
 H    4.369965   -1.727893   -1.380783
 H    5.650622   -2.400537    0.358383
 H    4.791795   -0.248620    2.155659
 H    6.557900    0.462002    0.787401
 H    7.492027   -1.474869    1.823866
 H    7.976513    0.251421   -1.215460
 H    7.840049   -2.112951   -1.079876
 H    6.165552    1.461488   -1.833445
 H    6.711962    0.159286   -3.839271
 H    5.000906    0.628921   -3.770836
 H    5.997728   -1.899901   -3.097105
 H    2.988802   -0.934078    3.750848
 H    4.451302   -1.624247    4.470517
 H    3.037513   -2.668160    4.157242
 H    1.685171    0.566581    2.073520
 H    3.000220    2.529508    2.742922
 H    2.539859    3.484173   -0.113991
 H    1.271572    5.283581    0.931376
 H    0.001236    3.326372    0.424747
 H   -1.231401    5.019488    1.768307
 H   -1.786847    3.368797    2.151168
 H   -0.700698    4.226883    3.266600
 H    3.827656    1.318609    0.325821
 H    4.589251    3.871168    1.114442
 H    2.638539    5.106151    2.877854
 H   -5.288828   -1.041795    0.695198
 H   -4.942469   -3.170895   -0.125438
 H   -2.664911   -3.407841    1.829982
 H   -4.244894   -3.155045    3.728001
 H   -3.052185   -1.204250    3.474618
 H   -5.280465   -0.529635    4.370015
 H   -5.863200   -0.231366    2.722906
 H   -4.549662    0.764111    3.394790
 H   -2.340213   -2.278766   -0.598751
 H   -3.797105   -5.243661    0.979238
 H   -6.071076   -3.585773    2.304871
