112 
5elf_ligand_xtb.xyz
 C   -5.860976    0.478282   -1.916673
 C   -5.681955    0.482685   -0.390149
 C   -4.270824    0.032800    0.031313
 C   -3.249251    0.261038   -1.092964
 C   -3.689089    1.510330   -1.868181
 C   -2.664273    2.033266   -2.877992
 O   -7.087271    1.096878   -2.174643
 O   -5.909859    1.765715    0.126616
 O   -4.220596   -1.335960    0.367414
 O   -1.957485    0.388084   -0.514971
 O   -4.854118    1.170036   -2.616790
 O   -3.130172    3.205348   -3.491629
 C   -0.937527   -0.341303   -1.108366
 C    0.381436    0.166388   -0.492069
 C    1.570332   -0.693271   -0.927923
 C    1.246051   -2.184671   -0.734501
 C   -0.085655   -2.489766   -1.447556
 C   -0.434847   -3.993015   -1.399642
 O    0.615805    1.483743   -0.942094
 O    2.674441   -0.255753   -0.149584
 O    1.179665   -2.450518    0.640156
 O   -1.135199   -1.718145   -0.887276
 O   -0.175968   -4.621757   -0.169593
 O    4.204443   -0.349237   -1.835915
 C    3.893844   -0.803200   -0.532519
 C    5.000389   -0.375972    0.447003
 N    4.787167    0.974509    0.916986
 C    6.378300   -0.503389   -0.263048
 O    7.360656   -0.963156    0.621656
 C    6.320995   -1.514572   -1.418589
 O    6.083363   -2.806526   -0.900642
 C    5.250044   -1.087796   -2.442446
 C    4.704229   -2.262761   -3.283027
 O    3.993884   -3.227864   -2.557343
 C    5.591132    1.556549    1.819518
 O    6.595008    1.021279    2.269063
 C    5.143007    2.936056    2.244280
 C    0.239372    2.521300   -0.075770
 C    1.477140    2.956133    0.758696
 C    1.349050    4.447139    1.131027
 C   -0.132298    4.839370    1.193688
 C   -0.764682    4.657524   -0.198793
 C   -2.282605    4.526016   -0.122867
 O    2.659236    2.752885    0.023686
 O    1.909231    4.723821    2.394192
 O   -0.799034    4.054307    2.154189
 O   -0.177822    3.566483   -0.902571
 C   -4.473493   -1.658715    1.706983
 C   -4.240663   -3.178128    1.813123
 C   -2.757171   -3.406939    1.491481
 C   -1.897885   -2.627337    2.502329
 C   -2.255750   -1.141951    2.382687
 C   -1.506530   -0.272548    3.381054
 O   -5.086478   -3.864919    0.935249
 O   -2.438683   -4.785675    1.500794
 O   -2.107279   -3.139524    3.801523
 O   -3.661152   -0.973965    2.615294
 H   -5.879038   -0.567706   -2.274811
 H   -6.414720   -0.231534    0.017975
 H   -3.982681    0.650682    0.891453
 H   -3.269070   -0.608551   -1.759484
 H   -3.922908    2.312328   -1.155427
 H   -2.471399    1.255332   -3.631023
 H   -1.735478    2.296127   -2.367995
 H   -7.152815    1.260525   -3.122361
 H   -6.687493    2.121018   -0.327965
 H   -4.011109    3.019313   -3.838735
 H   -0.895919   -0.156724   -2.201327
 H    0.302615    0.118777    0.598738
 H    1.778164   -0.502680   -1.989095
 H    2.023951   -2.796287   -1.217963
 H    0.022903   -2.213314   -2.510042
 H    0.204455   -4.489117   -2.137409
 H   -1.479753   -4.112988   -1.699256
 H    0.883316   -3.377275    0.712035
 H   -0.983478   -4.673757    0.372440
 H    3.842699   -1.900709   -0.528639
 H    4.996350   -1.059609    1.307308
 H    3.965108    1.462369    0.574263
 H    6.642677    0.482616   -0.676206
 H    7.338835   -0.354659    1.393868
 H    7.301202   -1.514994   -1.919686
 H    6.650412   -2.877904   -0.118349
 H    5.712504   -0.379487   -3.139969
 H    3.999872   -1.858439   -4.014205
 H    5.551374   -2.717303   -3.815565
 H    4.606420   -3.597921   -1.903837
 H    4.406282    2.829968    3.039218
 H    4.700145    3.460738    1.402706
 H    5.993590    3.489014    2.633217
 H   -0.574822    2.200933    0.589988
 H    1.515088    2.355081    1.680332
 H    1.844614    5.035719    0.346073
 H   -0.200982    5.900358    1.477585
 H   -0.506238    5.530964   -0.808787
 H   -2.699110    5.406838    0.356441
 H   -2.678911    4.436626   -1.129862
 H   -2.553507    3.650495    0.459180
 H    2.417348    2.192582   -0.735497
 H    2.847039    4.502237    2.368980
 H   -0.293730    4.135680    2.973155
 H   -5.503536   -1.399154    1.994072
 H   -4.453099   -3.495200    2.849181
 H   -2.569909   -3.034028    0.480619
 H   -0.836395   -2.770402    2.273552
 H   -2.016475   -0.824893    1.363216
 H   -0.438689   -0.371455    3.207383
 H   -1.801091    0.765259    3.254885
 H   -1.729176   -0.576827    4.400788
 H   -4.615835   -4.656858    0.641593
 H   -2.311249   -5.042369    2.426021
 H   -2.824525   -2.632868    4.203429
