35 
5ely_ligand_xtb.xyz
 C    1.872212   -1.572435   -0.244532
 C    3.083702   -1.067531    0.182762
 C    3.466380    0.225872   -0.167225
 C    4.769089    0.732042    0.311848
 O    5.530330    0.114180    1.014742
 O    5.047041    1.977260   -0.109879
 C    2.620727    1.005413   -0.952720
 C    1.409488    0.493329   -1.372444
 C    1.021355   -0.797070   -1.025189
 C   -0.325035   -1.316129   -1.442558
 C   -1.407054   -0.804555   -0.473970
 C   -1.147381   -1.396079    0.894826
 O   -0.941280   -2.553469    1.127954
 O   -1.192640   -0.467507    1.867568
 C   -2.807825   -1.221983   -0.944831
 C   -3.926839   -0.680733   -0.046339
 C   -3.976084    0.830788   -0.106680
 O   -4.534550    1.474225   -0.978334
 N   -3.364661    1.455330    0.916719
 O   -3.286840    2.852425    0.869135
 H    1.576463   -2.573918    0.030727
 H    3.751986   -1.658532    0.790315
 H    5.910987    2.251373    0.234707
 H    2.918624    2.005348   -1.225839
 H    0.754811    1.099456   -1.982127
 H   -0.565981   -0.972189   -2.449568
 H   -0.331636   -2.406815   -1.428764
 H   -1.343053    0.283953   -0.401932
 H   -0.991775   -0.867265    2.729703
 H   -2.963410   -0.852216   -1.959802
 H   -2.860577   -2.312186   -0.963352
 H   -4.882159   -1.055136   -0.416380
 H   -3.791082   -1.015211    0.982268
 H   -2.696232    1.050109    1.554402
 H   -3.827236    3.073434    0.081422
