59 
5emj_ligand_xtb.xyz
 C    3.368059    2.552328   -0.601305
 C    1.867225    2.833093   -0.602347
 C    1.137071    2.152620    0.530768
 C   -0.212369    2.418157    0.730565
 C   -0.916375    1.783496    1.736634
 C   -0.276170    0.870216    2.558097
 C    1.065606    0.599933    2.369225
 C    1.776346    1.236156    1.359752
 C    3.233631    0.927497    1.153050
 N    3.575921    1.131793   -0.268921
 C    4.877913    0.550700   -0.654704
 C    4.765048   -0.983447   -0.853113
 O    4.585014   -1.630306    0.368315
 C    3.704192   -1.363678   -1.909370
 N    2.386677   -0.736989   -1.705631
 C    1.461618   -1.340502   -0.825353
 C    0.104948   -1.074832   -0.948600
 N    1.970541   -2.073151    0.155023
 C    1.135603   -2.593164    1.049152
 C   -0.223808   -2.385832    1.018328
 C   -0.773411   -1.598572   -0.002671
 C   -2.210022   -1.333996   -0.065486
 C   -2.668719   -0.086636   -0.478206
 C   -4.035334    0.118997   -0.486036
 N   -4.809896    1.205921   -0.803441
 C   -4.346507    2.493413   -1.232090
 C   -6.100341    0.807323   -0.620965
 N   -6.225985   -0.418013   -0.217756
 C   -4.951780   -0.899848   -0.114960
 C   -4.480924   -2.148793    0.275657
 C   -3.119332   -2.342782    0.303218
 H    3.792118    2.768072   -1.583719
 H    3.882020    3.170416    0.138139
 H    1.431872    2.493688   -1.547998
 H    1.702239    3.910437   -0.547715
 H   -0.705710    3.135016    0.090040
 H   -1.963294    1.997714    1.883881
 H   -0.822499    0.371106    3.341918
 H    1.572729   -0.108039    3.006610
 H    3.862805    1.583173    1.764949
 H    3.454373   -0.104491    1.431098
 H    2.884757    0.551030   -0.845635
 H    5.205969    1.006568   -1.590164
 H    5.621003    0.753727    0.119146
 H    5.737979   -1.308998   -1.251897
 H    3.672684   -2.016889    0.396013
 H    4.067341   -1.053094   -2.890273
 H    3.615710   -2.455712   -1.906202
 H    1.942807   -0.501743   -2.585828
 H   -0.263284   -0.489910   -1.777388
 H    1.604118   -3.189254    1.819180
 H   -0.853793   -2.806417    1.783401
 H   -1.978597    0.701178   -0.741733
 H   -3.738008    2.398313   -2.134359
 H   -5.202919    3.128501   -1.449816
 H   -3.746577    2.964669   -0.449164
 H   -6.928068    1.466241   -0.800992
 H   -5.169895   -2.930738    0.547752
 H   -2.731805   -3.310122    0.583869
