30 
5en3_ligand_dft.xyz
Cl    4.427923   -2.821796   -0.199530
 C    3.498811   -1.348888   -0.100333
 C    2.113014   -1.439503   -0.138262
 C    4.178114   -0.141499    0.012228
 C    3.443022    1.040460    0.091904
 O    4.088136    2.199318    0.201447
 C    2.027378    0.995094    0.056158
 C    1.222343    2.209649    0.147145
 O    1.734674    3.334826    0.252358
 C    1.402042   -0.249680   -0.057092
 O    0.044300   -0.350213   -0.102041
 C   -0.731962    0.753567   -0.014463
 C   -0.208032    1.994876    0.119511
 C   -2.166785    0.427702   -0.067566
 C   -2.605204   -0.850697    0.302943
 C   -3.953308   -1.162381    0.275575
 O   -4.369472   -2.395923    0.643359
 C   -4.881348   -0.191506   -0.132329
 O   -6.182074   -0.602219   -0.123940
 C   -4.451991    1.071654   -0.511520
 C   -3.096407    1.382650   -0.482031
 H    1.598428   -2.387235   -0.228761
 H    5.259820   -0.100861    0.039504
 H    3.398603    2.910139    0.246434
 H   -0.852608    2.856617    0.232869
 H   -1.902811   -1.611181    0.622593
 H   -5.333529   -2.423218    0.561992
 H   -6.760513    0.113554   -0.411236
 H   -5.174157    1.813821   -0.842476
 H   -2.770561    2.363601   -0.809574
