30 
5enh_ligand_xtb.xyz
 C    0.847455   -1.355825   -0.116866
 C    2.048682   -1.638797    0.522560
 C    2.900530   -0.601692    0.852876
 C    2.583159    0.708513    0.553725
 C    1.382799    0.999422   -0.090115
 C    0.258671   -3.663481   -0.290041
 O   -2.837702    1.830489    0.075280
 C   -2.843392    0.627969    0.228419
 C   -3.888962   -0.104432    1.051739
 N   -1.939678   -0.200603   -0.336341
 C   -0.808429    0.261085   -1.110164
 C    0.503427   -0.036349   -0.425147
 O    0.993330    2.251662   -0.444509
 C    1.794048    3.345481   -0.070927
 O   -0.068202   -2.308769   -0.481648
 H    2.326803   -2.650575    0.767784
 H    3.832272   -0.821165    1.352262
 H    3.272272    1.492319    0.821739
 H    1.174015   -3.936274   -0.823735
 H    0.370458   -3.906183    0.771801
 H   -0.577122   -4.228816   -0.700634
 H   -4.572774    0.618249    1.486851
 H   -4.447938   -0.789455    0.417891
 H   -3.411050   -0.672235    1.846989
 H   -1.962127   -1.188419   -0.139302
 H   -0.923403    1.338389   -1.233217
 H   -0.826022   -0.228582   -2.091194
 H    1.917813    3.402730    1.015012
 H    2.778450    3.307827   -0.549636
 H    1.258752    4.227987   -0.417563
