23 
5eni_ligand_ani.xyz
 C    3.281454    0.901198    0.878308
 C    2.276266    1.810064    0.578291
 C    1.113880    1.359375   -0.035161
 C   -2.719015   -0.243445   -0.385815
 C   -3.724863   -0.372587    0.746868
 O   -3.081312    0.093378   -1.502111
 O   -3.079935   -0.819839    1.923985
 N   -1.439926   -0.521157   -0.048643
 C   -0.374246   -0.442072   -1.030948
 C    0.913208    0.016892   -0.382087
Cl   -0.124555    2.539625   -0.371359
 C    3.121427   -0.442036    0.570879
 C    1.948988   -0.864524   -0.045318
Cl    1.799843   -2.569089   -0.384991
 H    4.193611    1.242279    1.357842
 H    2.381753    2.863579    0.815629
 H   -4.503133   -1.068722    0.407325
 H   -4.189844    0.614313    0.878547
 H   -3.745969   -0.915849    2.613082
 H   -1.240279   -0.810557    0.898737
 H   -0.696460    0.271718   -1.792711
 H   -0.227110   -1.405768   -1.527757
 H    3.894403   -1.167498    0.802667
