48 
5enk_ligand_ani.xyz
 N   -0.417126    3.789557    1.007235
 C    2.623811   -0.632084    0.140602
 C    1.588631    0.050047    0.786334
 C    0.498796   -0.582119    1.378225
 C   -0.777224   -0.177887    3.503979
 C    2.556979   -2.023142    0.148385
 C    1.506592   -2.712429    0.725379
 C    0.492969   -1.974864    1.315039
 C    3.703069    0.127372   -0.531889
 C   -0.733129    2.552261    1.002363
 C    5.609358    1.584858   -1.718493
 C   -2.276450   -2.554375   -1.724915
 C   -3.286148   -1.458790   -1.588489
 C   -3.137112   -0.195264   -0.936125
 C   -4.355450    0.397634   -1.096744
 O   -5.153558   -0.426875   -1.793073
 N   -4.480985   -1.592452   -2.101294
 C   -4.952506    1.696347   -0.673534
 C   -1.934295    0.251895   -0.175912
 C   -1.985450   -0.104178    1.311461
 C   -0.659933    0.194813    2.026467
 N   -0.421632    1.637000    1.984177
 S   -1.659223    2.047010   -0.427706
 F   -0.539828   -2.676733    1.834929
 F    3.529975   -2.744772   -0.441432
 C    3.438176    1.345499   -1.160725
 N    4.372284    2.075406   -1.764701
 N    5.996377    0.445006   -1.150569
 C    5.039690   -0.279539   -0.572982
 H    0.112281    4.029851    1.848744
 H    1.655365    1.129234    0.850864
 H    0.154718    0.064735    4.026835
 H   -0.969356   -1.244370    3.625434
 H   -1.597404    0.387397    3.960540
 H    1.477955   -3.795770    0.708099
 H    6.384265    2.178063   -2.199024
 H   -2.671203   -3.348637   -2.362300
 H   -2.021624   -2.977623   -0.746971
 H   -1.348530   -2.173863   -2.166395
 H   -4.485999    2.526477   -1.213977
 H   -6.026806    1.698266   -0.863826
 H   -4.765127    1.877355    0.389622
 H   -1.054700   -0.239574   -0.611649
 H   -2.783306    0.468264    1.793261
 H   -2.223371   -1.164734    1.408203
 H    0.154225    2.000354    2.730558
 H    2.420060    1.738287   -1.194478
 H    5.348561   -1.215286   -0.111616
