22 
5epr_ligand_ani.xyz
 O    2.733614    1.530148   -0.048101
 C    1.722223    0.860998    0.041424
 N    0.472531    1.413118   -0.080555
 C   -0.739228    0.704979   -0.036091
 C   -1.969847    1.351848    0.011905
 C   -3.144279    0.608258    0.043088
 C   -3.087777   -0.785004    0.018771
 C   -1.858845   -1.431730   -0.036482
 C   -0.676542   -0.694409   -0.060726
 N    0.577280   -1.297799   -0.179298
 C    1.735744   -0.628142    0.383051
 C    3.014581   -1.289078   -0.109718
 H    0.463286    2.417240   -0.204246
 H   -2.005987    2.439775    0.026167
 H   -4.102615    1.118402    0.083461
 H   -4.001811   -1.371847    0.040492
 H   -1.811710   -2.519953   -0.065525
 H    0.560009   -2.291611    0.010743
 H    1.710156   -0.666632    1.487683
 H    3.036317   -1.292260   -1.203723
 H    3.887454   -0.742584    0.254701
 H    3.071125   -2.325268    0.242708
