103 
5epy_ligand_ani.xyz
 C    0.333549   -0.745700    1.203137
 C    3.239081   -0.875546    0.469349
 C    4.306471    1.345936    1.212980
 C    5.282277    3.578246    2.019277
 C    2.790663    4.306121   -0.379591
 C    1.445358    4.865339   -0.620821
 C    0.813720    4.693610   -1.979018
 C    0.206436   -5.369998    0.477094
 C   -0.587311   -4.995807   -0.777187
 C   -1.965549   -4.485461   -0.444001
 C   -2.144568   -3.150869    0.091401
 O   -1.009500   -2.445007    0.239663
 C   -1.092367   -1.134346    0.819967
 C   -1.468439   -0.089671   -0.228052
 C   -0.151647    0.176401   -0.996083
 N    0.891205   -0.185086   -0.030009
 C    2.169690   -0.341402   -0.498094
 O    2.453982   -0.040894   -1.648588
 C    3.523713    0.099151    1.631284
 C    4.341828    2.402320    2.315412
 C    5.087240    4.246491    0.646573
 C    3.710978    4.817787    0.438929
 C    0.268569    3.930708   -0.809222
 N    0.536917    2.523697   -0.706490
 C   -0.121810    1.623214   -1.479016
 O   -0.743758    1.960709   -2.477726
 C   -1.039374    4.417205   -0.217933
 O   -1.089489    5.274337    0.639184
 N   -2.153372    3.831522   -0.795720
 S   -3.549938    3.502485    0.076269
 O   -4.457648    2.860706   -0.859069
 O   -3.204589    2.865024    1.335301
 C   -4.140413    5.135210    0.386287
 C   -5.625004    5.339713    0.398998
 C   -4.811580    5.845823   -0.748127
 N    4.421185   -1.171992   -0.294969
 C    5.264176   -2.159070    0.110724
 O    5.139810   -2.776591    1.153558
 O    6.243588   -2.331390   -0.799970
 C    7.347749   -3.239785   -0.511324
 C    8.088434   -2.790568    0.745488
 C    8.247860   -3.102657   -1.734860
 C    6.833812   -4.670880   -0.386679
 N   -3.298897   -2.645397    0.402918
 C   -4.384553   -3.460696    0.218811
 C   -5.671634   -2.981500    0.547170
 C   -6.768504   -3.796383    0.367999
 O   -8.046439   -3.438445    0.653025
 C   -8.241039   -2.142580    1.174635
 C   -6.615259   -5.111535   -0.146363
 C   -5.371871   -5.581926   -0.467340
 C   -4.229748   -4.763301   -0.289949
 N   -2.993088   -5.261156   -0.615670
 H    0.316624   -0.000925    2.009651
 H    0.888444   -1.621812    1.540301
 H    2.888775   -1.815910    0.917233
 H    3.862290    1.780170    0.307258
 H    5.327803    1.050044    0.936124
 H    5.166262    4.335686    2.806129
 H    6.322098    3.228544    2.081698
 H    3.012070    3.396964   -0.947436
 H    1.197757    5.770111   -0.068033
 H    1.357335    4.091707   -2.702869
 H    0.216120    5.501694   -2.389278
 H    0.335198   -4.494877    1.120992
 H    1.198390   -5.745711    0.206671
 H   -0.309103   -6.148356    1.049930
 H   -0.039746   -4.234182   -1.342787
 H   -0.719953   -5.869484   -1.420516
 H   -1.780524   -1.162881    1.665873
 H   -1.804082    0.821648    0.285551
 H   -2.276065   -0.434789   -0.878449
 H   -0.079347   -0.444101   -1.896207
 H    4.091562   -0.454336    2.387758
 H    2.572131    0.381231    2.100744
 H    4.655246    1.935368    3.259535
 H    3.321082    2.776157    2.481316
 H    5.825326    5.053119    0.550360
 H    5.318594    3.522559   -0.147882
 H    3.457912    5.691637    1.043802
 H    0.970850    2.197575    0.146567
 H   -2.033599    3.258425   -1.629101
 H   -3.484382    5.666484    1.066485
 H   -6.023928    6.051473    1.113460
 H   -6.229536    4.452731    0.231875
 H   -4.636116    6.912669   -0.836981
 H   -4.880746    5.302805   -1.686589
 H    4.462278   -0.837465   -1.246978
 H    8.385584   -1.740455    0.655940
 H    8.991676   -3.397245    0.870657
 H    7.457843   -2.906717    1.629638
 H    9.128931   -3.744700   -1.635132
 H    8.585047   -2.067319   -1.846965
 H    7.708173   -3.393810   -2.641515
 H    7.684595   -5.356085   -0.306533
 H    6.203670   -4.781686    0.498401
 H    6.251245   -4.941001   -1.273562
 H   -5.745551   -1.971525    0.935657
 H   -7.909600   -1.372727    0.466109
 H   -7.709408   -2.010644    2.125721
 H   -9.314090   -2.041655    1.342952
 H   -7.509287   -5.716166   -0.270705
 H   -5.217722   -6.582253   -0.861759
