43 
5eqe_ligand_ani.xyz
 C    3.543660   -1.212259   -0.176239
 C    5.812904   -0.307652   -0.533700
 N    4.461615   -0.030271   -0.021952
 C    2.381561   -1.161401    0.808212
 N    1.152276   -0.518750    0.242755
 C    1.392906    0.772583   -0.539017
 C    2.561239    1.632324   -0.062826
 C    3.910527    1.221081   -0.638839
 C    0.086026   -0.323170    1.290792
 C   -1.288037   -0.123459    0.694082
 C   -1.776314   -1.020695   -0.257627
 C   -3.051079   -0.869345   -0.786854
 C   -3.873603    0.187201   -0.388815
 C   -3.375234    1.093540    0.548865
 C   -2.102221    0.938575    1.085867
 C   -5.283092    0.325787   -0.935699
 N   -6.287167   -0.423798   -0.084710
 H    4.139343   -2.110962   -0.011804
 H    3.165003   -1.239993   -1.200775
 H    6.468684    0.544293   -0.336502
 H    5.770803   -0.474504   -1.616041
 H    6.224163   -1.201959   -0.058093
 H    4.540724    0.156554    0.994112
 H    2.704084   -0.603625    1.692689
 H    2.116501   -2.170510    1.139255
 H    0.771814   -1.206865   -0.431385
 H    0.457993    1.332101   -0.488000
 H    1.545336    0.494921   -1.585706
 H    2.367682    2.663817   -0.372628
 H    2.611014    1.634655    1.031882
 H    4.650599    2.015562   -0.499983
 H    3.809468    1.048711   -1.717352
 H    0.362105    0.543815    1.901959
 H    0.104270   -1.198025    1.949394
 H   -1.157165   -1.858515   -0.577284
 H   -3.411148   -1.576442   -1.532370
 H   -3.991852    1.935164    0.858787
 H   -1.733249    1.659123    1.813766
 H   -5.580366    1.373398   -0.961531
 H   -5.338260   -0.072314   -1.948138
 H   -6.020853   -1.419864   -0.052132
 H   -7.235871   -0.332713   -0.468371
 H   -6.263350   -0.044750    0.874393
