43 
5eqe_ligand_dft.xyz
 C    3.645393   -1.162537   -0.298553
 C    5.905801   -0.171088   -0.536814
 N    4.528920   -0.000451    0.065251
 C    2.376333   -1.280064    0.545776
 N    1.159202   -0.547813    0.036648
 C    1.432387    0.833603   -0.531040
 C    2.534783    1.603523    0.194172
 C    3.956204    1.347668   -0.301721
 C    0.073249   -0.539201    1.123159
 C   -1.308439   -0.286482    0.572113
 C   -1.995794   -1.312013   -0.087151
 C   -3.284749   -1.101519   -0.563994
 C   -3.915108    0.132663   -0.372527
 C   -3.231675    1.154846    0.290405
 C   -1.937422    0.946904    0.760765
 C   -5.313379    0.365688   -0.897493
 N   -6.371500   -0.019755    0.125891
 H    4.236859   -2.065608   -0.128731
 H    3.450524   -1.101880   -1.373142
 H    6.514572    0.691469   -0.263708
 H    5.806734   -0.234087   -1.621493
 H    6.355389   -1.082344   -0.140768
 H    4.658581   -0.014065    1.083103
 H    2.546635   -0.944575    1.572816
 H    2.097297   -2.335129    0.601838
 H    0.770595   -1.099806   -0.734958
 H    0.481039    1.365793   -0.483489
 H    1.674396    0.704799   -1.589134
 H    2.351002    2.664985   -0.003698
 H    2.459876    1.505639    1.283923
 H    4.638155    2.091156    0.117112
 H    4.013205    1.418501   -1.392122
 H    0.375184    0.220020    1.848825
 H    0.127301   -1.518930    1.605670
 H   -1.543792   -2.293296   -0.215755
 H   -3.792663   -1.907222   -1.087790
 H   -3.696734    2.126145    0.437142
 H   -1.434330    1.750019    1.293148
 H   -5.493100    1.416572   -1.132669
 H   -5.524384   -0.230453   -1.787576
 H   -6.313458   -1.011976    0.382753
 H   -7.318441    0.144388   -0.240504
 H   -6.282295    0.524067    0.992091
