42 
5eqp_ligand_ani.xyz
 N    2.928450    1.523724   -0.446350
 C    2.324781   -0.812358   -1.129840
 C    1.860823    0.636170   -1.025781
 C    3.360148   -0.030361    1.502652
 C    3.062699    1.393978    1.042641
 C    2.163600   -0.970997    1.424057
 N    2.039478   -1.676380    0.086340
 C    2.736579    2.932680   -0.823648
 C    0.736751   -2.451645   -0.057249
 C   -0.499301   -1.596381   -0.266444
 C   -0.944414   -1.286778   -1.577924
 C   -2.041283   -0.495267   -1.792792
 C   -2.774688    0.039107   -0.699070
 C   -2.358261   -0.277476    0.615666
 C   -1.215553   -1.101475    0.800155
 N   -3.853698    0.833695   -0.963650
 C   -4.517777    1.313358    0.058823
 C   -4.190395    1.058902    1.414869
 C   -3.112309    0.264086    1.689276
 H    3.831316    1.208885   -0.845800
 H    3.404825   -0.819356   -1.301404
 H    1.854171   -1.300574   -1.983095
 H    1.627616    1.019352   -2.019967
 H    0.955495    0.713681   -0.420894
 H    4.190942   -0.446208    0.921317
 H    3.693685    0.018415    2.543747
 H    2.122711    1.733071    1.494743
 H    3.850851    2.080137    1.367964
 H    1.245673   -0.413279    1.607113
 H    2.231960   -1.745491    2.195810
 H    2.787286   -2.392679    0.109495
 H    2.672223    3.030768   -1.910559
 H    3.568964    3.535512   -0.451742
 H    1.806617    3.309047   -0.382398
 H    0.623485   -3.054916    0.848330
 H    0.865813   -3.133975   -0.901408
 H   -0.398090   -1.691614   -2.428709
 H   -2.387295   -0.250378   -2.790441
 H   -0.907002   -1.341091    1.815731
 H   -5.374142    1.946336   -0.175456
 H   -4.793292    1.494630    2.206847
 H   -2.821822    0.039206    2.714059
