87 
5er1_ligand_ani.xyz
 C    0.132223    5.906746    1.265459
 C   -0.398093    4.582203   -0.809923
 C    0.212607    4.534417    0.595591
 C    1.666971    4.041119    0.594879
 N    1.160680    1.595752    0.503156
 C    1.921129    2.706970   -0.111826
 C    3.419470    2.318774   -0.095273
 O    3.754397    1.867831    1.224311
 C    3.763606    1.170729   -1.078323
 N    4.359002    0.017827   -0.338722
 C    3.932458   -1.333197   -0.789663
 C    2.601161   -1.619295   -0.068788
 O    2.374147   -1.081529    1.007558
 C    4.973506   -2.434917   -0.506497
 C    6.213630   -2.235856   -1.375292
 C    5.349055   -2.546380    0.972688
 N    1.755761   -2.484906   -0.696439
 C    0.296012   -2.478741   -0.582792
 C   -0.293641   -1.143522   -1.091872
 O    0.420972   -0.228667   -1.497408
 C   -0.293432   -2.973433    0.773278
 C   -0.399152   -1.922635    1.894921
 C    0.459757   -4.224150    1.234724
 C   -1.367652   -2.341881    3.001109
 N   -1.653557   -1.061023   -1.108319
 C   -2.341640    0.149548   -1.511959
 C   -2.340836    1.208107   -0.409235
 O   -1.629430    1.207472    0.571510
 C   -3.747716   -0.173164   -2.050818
 C   -4.659270   -0.843386   -1.046412
 C   -4.736385   -2.237861   -0.983275
 C   -5.435980   -0.091849   -0.159881
 C   -5.555441   -2.869131   -0.049577
 C   -6.250679   -0.720172    0.776239
 C   -6.312168   -2.109766    0.836236
 C   -3.443644    3.164577    0.331008
 O   -3.193060    2.202309   -0.704249
 H   -0.905030    6.252681    1.333857
 H    0.547938    5.883602    2.278892
 H    0.695437    6.649799    0.687524
 H    0.210467    5.198099   -1.484742
 H   -0.497580    3.584559   -1.253999
 H   -1.402448    5.022500   -0.784241
 H   -0.389047    3.835092    1.200243
 H    2.288321    4.804874    0.106156
 H    2.022075    3.975194    1.633526
 H    0.217045    1.852623    0.817485
 H    1.041099    0.847590   -0.199399
 H    1.710938    1.214734    1.289995
 H    1.611344    2.785123   -1.161911
 H    4.026702    3.197300   -0.346452
 H    4.028162    2.621152    1.761542
 H    2.861966    0.827809   -1.590045
 H    4.444589    1.520773   -1.860142
 H    5.388061    0.100198   -0.345097
 H    4.018247    0.115692    0.646244
 H    3.756953   -1.297176   -1.875728
 H    4.497870   -3.377321   -0.807057
 H    5.952413   -2.143272   -2.434940
 H    6.903584   -3.079565   -1.266783
 H    6.760418   -1.329505   -1.088021
 H    5.994047   -3.416709    1.135933
 H    4.466669   -2.649542    1.612701
 H    5.907437   -1.663118    1.309631
 H    2.076421   -2.774275   -1.608528
 H   -0.028094   -3.236191   -1.308673
 H   -1.322448   -3.282996    0.523608
 H    0.598904   -1.747103    2.309258
 H   -0.730482   -0.959400    1.487462
 H    0.544092   -4.954897    0.422976
 H    1.473099   -3.965840    1.562280
 H   -0.051139   -4.714702    2.070062
 H   -1.058386   -3.270996    3.493197
 H   -2.377327   -2.494539    2.599785
 H   -1.433470   -1.568042    3.773151
 H   -2.168864   -1.701542   -0.519921
 H   -1.751720    0.589194   -2.324644
 H   -3.614202   -0.832403   -2.915632
 H   -4.199570    0.752818   -2.416272
 H   -4.147919   -2.838242   -1.676492
 H   -5.399478    0.994602   -0.204939
 H   -5.598078   -3.954534   -0.014713
 H   -6.846971   -0.121322    1.460051
 H   -6.951206   -2.597862    1.567594
 H   -4.059865    2.725300    1.124662
 H   -3.970735    3.991695   -0.145383
 H   -2.504797    3.512084    0.766082
