104 
5etx_ligand_ani.xyz
 C    2.120042    1.536954   -0.188132
 C    0.613284   -1.326853   -1.907372
 C    1.216271   -0.515707   -3.038422
 C    1.311188   -0.799230   -0.652712
 C   -1.400858    6.405815    0.124283
 C   -2.238457    5.888281   -1.041567
 C   -1.467422    4.957155   -1.945985
 C   -2.193061    4.023667   -2.869832
 C   -1.410272    3.467875   -1.707860
 N   -0.146289    2.838431   -1.986176
 C   -0.095539    1.590754   -2.510835
 O   -1.082418    1.050845   -3.003549
 C    1.274509    0.882918   -2.418721
 N    1.596745    0.594093   -1.005930
 O    2.312152    2.690659   -0.580700
 C    2.498351    1.126125    1.245231
 N    3.911181    1.397948    1.418725
 C    4.791382    0.391531    1.085983
 O    4.478548   -0.768996    0.902174
 O    6.035776    0.894198    1.009741
 C    7.164504    0.002917    0.768817
 C    7.276594   -1.021135    1.894099
 C    8.365614    0.942765    0.783292
 C    7.028710   -0.665470   -0.595656
 C    1.617653    1.793738    2.337200
 C    1.766627    3.320831    2.351665
 C    2.049344    1.240295    3.701173
 C    0.146777    1.433990    2.086105
 O    0.785116   -2.741054   -2.064664
 C   -0.048338   -3.499113   -1.322513
 C    0.172781   -4.927630   -1.358846
 C    1.322531   -5.496828   -2.147416
 C    2.663023   -5.299058   -1.433627
 N   -0.606011   -5.725057   -0.688037
 C   -1.643065   -5.168277    0.021430
 C   -2.524007   -6.000155    0.755844
 C   -3.567746   -5.452280    1.453453
 C   -3.778495   -4.050667    1.442768
 C   -2.932196   -3.219748    0.738305
 C   -1.848289   -3.780947    0.032538
 N   -1.004970   -2.945566   -0.640741
 O   -4.842350   -3.605152    2.155786
 C   -5.091214   -2.212790    2.099069
 C   -2.171873    2.870457   -0.532797
 O   -2.195919    3.361354    0.578856
 N   -2.830222    1.705127   -0.871391
 S   -3.734521    0.762132    0.174730
 O   -4.201261   -0.346713   -0.644047
 O   -2.995167    0.501178    1.402950
 C   -5.099955    1.804870    0.577460
 C   -4.947384    2.764289    1.717973
 C   -5.795130    1.550759    1.891715
 H   -0.455950   -1.115350   -1.842493
 H    0.609010   -0.538121   -3.946383
 H    2.226254   -0.874939   -3.263773
 H    2.234898   -1.348330   -0.427738
 H    0.634970   -0.864572    0.211033
 H   -1.975622    7.099104    0.748540
 H   -0.511700    6.938122   -0.234418
 H   -1.073655    5.571270    0.751762
 H   -2.599100    6.733917   -1.642411
 H   -3.126727    5.372806   -0.661645
 H   -0.537095    5.374649   -2.336428
 H   -3.278718    4.002227   -2.794471
 H   -1.781857    3.836535   -3.856377
 H    0.680391    3.177529   -1.495995
 H    2.051450    1.533703   -2.835889
 H    2.394972    0.044946    1.360281
 H    4.223906    2.308643    1.106475
 H    6.433243   -1.714765    1.874678
 H    7.299535   -0.515792    2.865077
 H    8.205395   -1.589650    1.776518
 H    8.442045    1.451969    1.749299
 H    8.270798    1.698608   -0.002851
 H    9.290670    0.382399    0.613875
 H    6.873623    0.089813   -1.373062
 H    7.948588   -1.215171   -0.822489
 H    6.188330   -1.362216   -0.605338
 H    1.419253    3.766727    1.414459
 H    1.168843    3.738268    3.170121
 H    2.807937    3.622821    2.511058
 H    1.919752    0.151878    3.747058
 H    1.437738    1.680343    4.496646
 H    3.099605    1.470908    3.903166
 H   -0.490134    1.887747    2.853041
 H   -0.021480    0.349292    2.113651
 H   -0.201649    1.805851    1.118473
 H    1.359321   -5.020465   -3.132862
 H    1.116907   -6.561225   -2.287046
 H    3.478649   -5.729758   -2.023137
 H    2.869191   -4.233521   -1.290935
 H    2.660240   -5.784315   -0.451407
 H   -2.341916   -7.071064    0.740601
 H   -4.259128   -6.066336    2.024453
 H   -3.065131   -2.143587    0.689899
 H   -4.246646   -1.637975    2.502570
 H   -5.283051   -1.881298    1.070428
 H   -5.975703   -2.032749    2.713074
 H   -2.657230    1.305582   -1.793219
 H   -5.689983    2.093630   -0.286449
 H   -3.978940    2.772162    2.203362
 H   -5.433713    3.728642    1.618253
 H   -6.873425    1.667650    1.901441
 H   -5.408775    0.743361    2.507631
