25 
5ev8_ligand_ani.xyz
 O   -1.429052   -2.230014    0.316865
 N   -0.043758    0.016467    0.056242
 C   -1.963103   -1.391164   -0.370579
 O   -3.065507   -1.595868   -1.096399
 C   -1.467900    0.037507   -0.444900
 C   -2.261558    0.944420    0.500437
 S   -1.131563    2.250034    1.059135
 C    0.368617    1.411915    0.454875
 C    1.002577    2.068483   -0.767400
 S    2.038174    0.769571   -1.488385
 C    0.963159   -0.586978   -0.883955
 C    1.741486   -1.717233   -0.201487
 S    2.016455   -1.267432    1.541660
 H   -0.086055   -0.590478    0.908585
 H   -3.327065   -2.522717   -0.960918
 H   -1.504589    0.414247   -1.469674
 H   -2.622466    0.387020    1.368385
 H   -3.119052    1.382113   -0.009738
 H    1.084887    1.359103    1.270504
 H    1.614744    2.925236   -0.480630
 H    0.237950    2.390798   -1.480821
 H    0.434782   -0.988819   -1.750880
 H    2.688724   -1.873740   -0.717013
 H    1.142081   -2.628668   -0.243057
 H    2.650115   -2.398765    1.887338
