31 
5evd_ligand_ani.xyz
 O    2.170159    2.134476   -1.509792
 C    1.207116    1.749716   -0.663776
 O    0.551655    2.511499    0.007229
 C    1.049112    0.247255   -0.596911
 N   -0.326750   -0.000027   -0.004253
 C    2.101453   -0.435321    0.315645
 C    2.469691    0.408856    1.541074
 C    3.359241   -0.804553   -0.462852
 S    1.259361   -1.969256    0.863265
 C   -0.424019   -1.432102    0.451584
 C   -1.058784   -2.237788   -0.677801
 S   -2.385743   -1.178372   -1.301938
 C   -1.504524    0.368941   -0.876540
 C   -2.401800    1.388719   -0.167539
 S   -2.461354    0.970863    1.604777
 H    2.221514    3.104679   -1.458932
 H    1.102716   -0.186749   -1.598788
 H   -0.359787    0.636270    0.833713
 H    2.979261    1.327124    1.231619
 H    1.579935    0.678655    2.120436
 H    3.138177   -0.158091    2.194962
 H    3.121038   -1.440244   -1.321168
 H    4.044169   -1.357368    0.185725
 H    3.864869    0.098311   -0.819287
 H   -1.037068   -1.485998    1.348666
 H   -1.463361   -3.179791   -0.304698
 H   -0.330082   -2.442464   -1.468559
 H   -1.128943    0.797323   -1.807537
 H   -3.399041    1.367235   -0.606209
 H   -1.960701    2.379585   -0.284633
 H   -3.241079    1.999826    1.969995
