31 
5evd_ligand_dft.xyz
 O    1.963243    2.206779   -1.535889
 C    1.062462    1.792367   -0.658177
 O    0.377635    2.504998    0.035884
 C    1.024865    0.272646   -0.585299
 N   -0.290186   -0.147402   -0.001162
 C    2.134084   -0.306118    0.328682
 C    2.241262    0.428907    1.669698
 C    3.485534   -0.340576   -0.388209
 S    1.554801   -2.042117    0.564825
 C   -0.205987   -1.592819    0.482847
 C   -1.006845   -2.437334   -0.497146
 S   -2.501850   -1.463677   -0.793106
 C   -1.513306    0.059748   -0.893846
 C   -2.341849    1.279350   -0.458597
 S   -2.572482    1.359217    1.355112
 H    1.998137    3.179791   -1.517478
 H    1.108053   -0.164542   -1.583327
 H   -0.488007    0.445768    0.828591
 H    2.610610    1.450008    1.526605
 H    1.289422    0.483219    2.208884
 H    2.949336   -0.096576    2.313980
 H    3.417277   -0.842054   -1.357322
 H    4.215855   -0.875499    0.225182
 H    3.860775    0.674536   -0.542852
 H   -0.679872   -1.605127    1.465913
 H   -1.277147   -3.396841   -0.051637
 H   -0.450714   -2.620721   -1.420729
 H   -1.133199    0.201427   -1.909276
 H   -3.320527    1.207642   -0.938808
 H   -1.872811    2.201920   -0.797660
 H   -1.891723    2.502848    1.529104
