25 
5evk_ligand_ani.xyz
 C    2.259698    0.949377    0.496636
 O    3.055194   -1.596293   -1.112473
 C    1.965178   -1.386894   -0.369665
 O    1.444465   -2.220064    0.334706
 C    1.466620    0.040459   -0.447335
 N    0.043193    0.016132    0.055882
 C   -0.963169   -0.587527   -0.884901
 C   -1.739573   -1.719748   -0.203494
 S   -2.009486   -1.273295    1.541318
 S    1.127546    2.250335    1.061091
 C   -0.371321    1.410139    0.456672
 C   -1.005931    2.067200   -0.765035
 S   -2.040430    0.768188   -1.487201
 H    2.624671    0.391754    1.362694
 H    3.114579    1.389706   -0.015582
 H    3.320637   -2.521450   -0.973333
 H    1.501120    0.415256   -1.472769
 H    0.088966   -0.592984    0.906618
 H   -0.434336   -0.987623   -1.752460
 H   -1.141190   -2.631820   -0.249632
 H   -2.688425   -1.874188   -0.716683
 H   -2.649615   -2.401591    1.884954
 H   -1.087376    1.355356    1.272377
 H   -0.241219    2.390336   -1.478020
 H   -1.618528    2.923487   -0.477783
