25 
5evk_ligand_dft.xyz
 C    2.412404    0.483760    0.538291
 O    2.686794   -2.061071   -1.110406
 C    1.629579   -1.714052   -0.397069
 O    0.923417   -2.454504    0.243153
 C    1.441629   -0.202961   -0.419538
 N    0.065766    0.129290    0.072263
 C   -1.074307   -0.179105   -0.900371
 C   -1.858718   -1.430739   -0.479564
 S   -2.236729   -1.447868    1.311313
 S    1.729346    2.148981    0.796824
 C    0.012874    1.583932    0.527670
 C   -0.733749    2.354666   -0.550365
 S   -2.145337    1.291394   -0.938567
 H    2.492634   -0.061120    1.483587
 H    3.402965    0.561652    0.087406
 H    2.828390   -3.021326   -1.032009
 H    1.552496    0.198174   -1.429689
 H   -0.140538   -0.464791    0.900603
 H   -0.609800   -0.335852   -1.877692
 H   -1.299817   -2.331091   -0.732502
 H   -2.793524   -1.447086   -1.044863
 H   -1.550917   -2.568711    1.584502
 H   -0.558925    1.585027    1.457357
 H   -0.105863    2.540466   -1.426389
 H   -1.093913    3.311117   -0.165560
