31 
5ewa_ligand_dft.xyz
 O   -0.377580    2.504948    0.035838
 C   -1.062425    1.792330   -0.658219
 O   -1.963123    2.206731   -1.536014
 C   -1.024822    0.272612   -0.585340
 N    0.290219   -0.147415   -0.001146
 C    1.513387    0.059647   -0.893800
 C    2.342026    1.279215   -0.458601
 S    2.572303    1.359397    1.355128
 S    2.501788   -1.463889   -0.793093
 C    1.006719   -2.437414   -0.497083
 C    0.205981   -1.592804    0.482924
 S   -1.554829   -2.042040    0.565030
 C   -2.134075   -0.306060    0.328640
 C   -2.241313    0.429116    1.669557
 C   -3.485493   -0.340582   -0.388303
 H   -1.998005    3.179746   -1.517657
 H   -1.107998   -0.164579   -1.583367
 H    0.487970    0.445785    0.828600
 H    1.133363    0.201388   -1.909250
 H    1.873199    2.201794   -0.797929
 H    3.320797    1.207232   -0.938574
 H    1.892591    2.503741    1.528527
 H    0.450525   -2.620781   -1.420628
 H    1.276970   -3.396935   -0.051562
 H    0.679934   -1.605106    1.465953
 H   -1.289495    0.483529    2.208769
 H   -2.610680    1.450185    1.526288
 H   -2.949403   -0.096300    2.313883
 H   -4.215841   -0.875478    0.225080
 H   -3.417182   -0.842109   -1.357385
 H   -3.860752    0.674516   -0.543023
