52 
5ewj_ligand_dft.xyz
 C   -4.254014    2.335445    1.403527
 N    0.430792   -1.774240    0.032633
 O    1.348637   -1.094319    2.425458
 C    4.421497    1.347761   -0.416134
 O    3.828537    3.599869   -1.062195
 C    2.287614    2.324972    0.156382
 C   -3.748205    0.414314   -0.580495
 C   -4.408800    0.065864    0.601207
 C   -4.657835    1.016155    1.587637
 C   -3.438327   -0.625063   -1.634394
 C   -2.076096   -1.330273   -1.454273
 C   -0.899082   -0.349553   -1.492190
 C   -3.608277    2.699934    0.225146
 C   -3.361181    1.746102   -0.757641
 C    0.435814   -1.046273   -1.284421
 C   -0.657545   -2.811484    0.050237
 C   -2.013089   -2.151475   -0.161446
 C    1.776512   -2.308695    0.500562
 C    2.378450   -1.262964    1.464123
 C    2.793226    0.046905    0.825131
 C    4.047333    0.174248    0.226323
 C    3.538698    2.430491   -0.458144
 C    1.927580    1.147121    0.792391
 C    2.681231   -2.759535   -0.630339
 H   -4.456563    3.079552    2.167341
 H    0.177050   -1.099005    0.768807
 H    1.618511   -0.420701    3.063681
 H    5.405181    1.426240   -0.871623
 H    4.725694    3.584285   -1.418922
 H    1.620708    3.180042    0.137681
 H   -4.749152   -0.957510    0.743927
 H   -5.180275    0.728282    2.494810
 H   -4.221456   -1.391908   -1.642582
 H   -3.450541   -0.158162   -2.625983
 H   -1.961009   -2.025456   -2.298549
 H   -1.026528    0.425927   -0.725379
 H   -0.860057    0.170272   -2.455171
 H   -3.311329    3.731733    0.063525
 H   -2.874926    2.043342   -1.684286
 H    0.622124   -1.797322   -2.056147
 H    1.261302   -0.335465   -1.269571
 H   -0.417362   -3.536162   -0.733655
 H   -0.607956   -3.309887    1.020429
 H   -2.774963   -2.937853   -0.166165
 H   -2.235075   -1.506857    0.699389
 H    1.525740   -3.170488    1.124673
 H    3.256361   -1.744839    1.916586
 H    4.754594   -0.650794    0.264514
 H    0.956834    1.095739    1.279493
 H    3.572984   -3.218538   -0.194375
 H    2.197222   -3.519834   -1.250038
 H    3.006928   -1.933330   -1.266084
