71 
5exm_ligand_xtb.xyz
 C   -0.863380   -1.674930    0.893429
 C    1.495992    2.392893   -0.751097
 C    2.503383   -0.092060    0.593030
 C   -3.472050   -2.252565    0.108395
 C    5.316571   -0.651926   -0.529049
 C   -5.714473   -1.507635   -0.484697
 C   -0.163200    4.284109   -1.096025
 C    0.507714    3.580217    1.232678
 C   -1.379645    3.346775   -1.128101
 C   -1.007580    3.365904    1.339461
 C    0.973985    3.733963   -0.234264
 C    1.316200   -0.718734    0.234357
 C    2.190412   -0.600956    2.790401
 C    4.771243    0.713099   -0.207640
 C    6.257459   -3.197449   -1.145115
 C    5.931429   -2.873597    0.160839
 C    6.113087   -2.250004   -2.144344
 C   -1.945899   -1.187107    1.622456
 C   -1.105581   -2.500577   -0.202468
 C    5.463387   -1.607677    0.466904
 C    5.642344   -0.985785   -1.837290
 C   -3.242211   -1.464333    1.231053
 C   -2.399277   -2.799533   -0.587337
 C    0.955245   -1.179700    2.549726
 C    0.494905   -1.227749    1.235854
 C   -1.484904    2.519972    0.161432
 C   -7.962396   -1.056480   -0.991544
 C   -2.898573    1.979875    0.361538
 C    3.260005    0.728138   -0.430006
 N    2.921231   -0.031004    1.849499
 N   -3.223296    1.021948   -0.725324
 N   -4.796841   -2.481236   -0.331250
 N    2.731061    2.084977   -0.309669
 O    0.857660    1.645426   -1.472082
 O   -5.468081   -0.305279   -0.401085
 O   -6.909755   -1.994283   -0.774747
 H    0.197014    4.442679   -2.112307
 H   -0.449151    5.255561   -0.690797
 H    0.779587    4.471536    1.798383
 H    1.023774    2.732029    1.689775
 H   -1.274737    2.679341   -1.982972
 H   -2.281218    3.950413   -1.257960
 H   -1.236031    2.872945    2.285441
 H   -1.528618    4.323677    1.331298
 H    1.807791    4.440842   -0.268805
 H    1.007774   -0.735859   -0.798699
 H    2.599141   -0.552997    3.790726
 H    5.228468    1.463024   -0.855543
 H    4.972805    0.961510    0.834902
 H    6.627571   -4.183267   -1.383149
 H    6.046539   -3.607930    0.944334
 H    6.371046   -2.495127   -3.163910
 H   -1.766154   -0.577147    2.495070
 H   -0.273658   -2.917302   -0.748435
 H    5.212052   -1.354077    1.486377
 H    5.535393   -0.247265   -2.619401
 H   -4.079093   -1.079913    1.793310
 H   -2.580654   -3.446999   -1.431157
 H    0.368463   -1.585934    3.358444
 H   -0.814186    1.657935    0.082748
 H   -7.750629   -0.443969   -1.869304
 H   -8.082671   -0.410502   -0.120891
 H   -8.856996   -1.651289   -1.151212
 H   -3.636700    2.782762    0.351826
 H   -2.972188    1.450374    1.311769
 H    3.013004    0.375077   -1.436568
 H   -3.296435    1.526420   -1.612504
 H   -2.457596    0.344424   -0.804982
 H   -4.142915    0.479840   -0.543359
 H   -5.084579   -3.425572   -0.545551
 H    3.184944    2.678180    0.368179
