44 
5eyc_ligand_xtb.xyz
 C   -3.762817    4.585622    0.872843
 C   -3.703771    3.177963    0.407581
 C   -2.674502    2.231810    0.633837
 N   -4.661535    2.636110   -0.303239
 O   -4.313956    1.359439   -0.564134
 C   -3.117474    1.099210   -0.004472
 C   -2.538921   -0.220057   -0.153588
 C   -3.217435   -1.202760   -0.932543
 C   -2.677509   -2.440636   -1.088990
 F   -3.298850   -3.368988   -1.819075
 C   -1.347586   -0.522951    0.445955
 N   -0.830152   -1.764459    0.280486
 C   -1.441687   -2.761257   -0.479646
 N   -0.695604   -3.844390   -0.468577
 N    0.375466   -3.590692    0.269677
 C    0.315239   -2.368007    0.731550
 C    1.338824   -1.686762    1.572822
 C    2.169474   -2.693167    2.362175
 N    2.174699   -0.835872    0.718976
 C    3.016461   -1.421003   -0.181098
 C    3.840320   -0.709026   -0.975936
 C    3.844020    0.713649   -0.875775
 N    4.687146    1.425518   -1.632929
 C    4.668731    2.732410   -1.530406
 C    3.816399    3.438489   -0.676545
 C    2.940432    2.722405    0.107762
 C    2.943557    1.326831    0.019796
 C    2.029896    0.536330    0.830908
 O    1.173360    1.016301    1.563739
 H   -4.637038    4.731839    1.503639
 H   -3.852959    5.255504    0.020499
 H   -2.866936    4.833337    1.434767
 H   -1.762892    2.375740    1.173885
 H   -4.157124   -0.952481   -1.397214
 H   -0.780623    0.180111    1.036722
 H    0.840648   -0.994586    2.264055
 H    1.547539   -3.143607    3.130463
 H    2.533511   -3.488111    1.718804
 H    3.009293   -2.191990    2.837238
 H    2.964499   -2.497751   -0.223894
 H    4.496175   -1.185827   -1.682363
 H    5.373015    3.257536   -2.163262
 H    3.851657    4.515637   -0.638439
 H    2.255595    3.201565    0.791812
