44 
5eyc_ligand_dft.xyz
 C   -2.904245    4.938802    0.801297
 C   -3.063382    3.505019    0.413291
 C   -2.144865    2.433120    0.592116
 N   -4.161179    3.099636   -0.179186
 O   -3.993821    1.747237   -0.402842
 C   -2.794424    1.362571    0.059213
 C   -2.437971   -0.045378   -0.101609
 C   -3.268009   -0.928271   -0.874336
 C   -2.907578   -2.225048   -1.031887
 F   -3.642275   -3.075400   -1.735988
 C   -1.297978   -0.507392    0.479400
 N   -0.956005   -1.824767    0.288994
 C   -1.705017   -2.722157   -0.448341
 N   -1.122002   -3.905942   -0.470392
 N    0.023426   -3.785908    0.252819
 C    0.124229   -2.559517    0.709195
 C    1.255657   -1.974223    1.493179
 C    2.134892   -3.046956    2.129254
 N    2.036394   -1.057907    0.632368
 C    2.719718   -1.581580   -0.450512
 C    3.482011   -0.825992   -1.263539
 C    3.596646    0.583058   -1.006021
 N    4.378114    1.333466   -1.811378
 C    4.455188    2.628008   -1.548871
 C    3.780600    3.268102   -0.496616
 C    2.977245    2.505276    0.323506
 C    2.877814    1.131119    0.072875
 C    2.022668    0.300181    0.924438
 O    1.322784    0.756060    1.831135
 H   -2.754726    5.033720    1.881262
 H   -3.795572    5.503066    0.519078
 H   -2.035528    5.380102    0.302835
 H   -1.160860    2.463732    1.037288
 H   -4.178261   -0.559042   -1.330672
 H   -0.625530    0.088801    1.087194
 H    0.855975   -1.328531    2.278518
 H    1.543281   -3.622835    2.844856
 H    2.524974   -3.749178    1.389126
 H    2.967820   -2.572487    2.654202
 H    2.576855   -2.644608   -0.606767
 H    4.002308   -1.257136   -2.108720
 H    5.093620    3.208612   -2.211951
 H    3.897626    4.335186   -0.343569
 H    2.426352    2.930326    1.156084
