96 
5eyz_ligand_xtb.xyz
 N   -0.297416   -1.995922    0.143665
 C   -0.113677   -2.384368    1.553970
 C    1.111534   -1.671020    2.127134
 O    1.042927   -0.900328    3.077078
 N    2.240347   -1.958118    1.482365
 C    3.523070   -1.323724    1.752920
 C    3.538073   -0.025298    0.913058
 O    4.174101    0.126318   -0.105214
 C    4.666888   -2.329922    1.543988
 C    5.310206   -2.463005    0.157168
 C    4.378353   -2.797180   -1.009208
 N    3.649877   -4.033668   -0.807179
 C    2.304718   -4.159517   -0.818322
 N    1.794218   -5.283395   -0.225840
 N    1.468420   -3.265422   -1.241654
 N    2.720347    0.915006    1.442349
 C    2.207416    1.982337    0.605687
 C    1.435491    1.350145   -0.568341
 O    1.330548    0.123105   -0.655052
 C    3.334498    2.930104    0.143667
 C    3.303976    4.280716    0.853159
 C    2.159202    5.151280    0.399966
 O    2.120497    6.304384    1.048119
 O    1.362181    4.856535   -0.459720
 N    0.953108    2.232513   -1.429523
 C    0.110240    1.982941   -2.597376
 C   -1.335250    1.766281   -2.095461
 O   -1.905967    2.649310   -1.482842
 C    0.668493    0.912721   -3.565907
 O    0.480918   -0.407616   -3.105451
 C    2.142545    1.184078   -3.870435
 N   -1.895775    0.583212   -2.379746
 C   -3.231514    0.253337   -1.910379
 C   -3.103735   -0.035748   -0.406137
 O   -2.819575   -1.164533   -0.009154
 C   -3.783847   -0.949257   -2.669644
 C   -5.299052   -1.087956   -2.474648
 C   -5.628051   -1.216980   -1.005476
 O   -5.641353   -2.484058   -0.602852
 O   -5.834811   -0.291731   -0.264209
 N   -3.256709    1.035279    0.363366
 C   -3.024161    1.084190    1.797451
 C   -1.601860    0.613578    2.072980
 O   -1.337574    0.358734    3.332703
 C   -4.151351    0.391571    2.607757
 C   -3.910078   -1.092870    2.879103
 C   -4.382669    1.130951    3.923219
 O   -0.772818    0.516970    1.192855
 H    0.300033   -2.639032   -0.535281
 H   -1.312505   -1.942069   -0.080589
 H    0.055872   -1.028527    0.010466
 H   -0.990477   -2.104662    2.140079
 H    0.022646   -3.466105    1.624993
 H    2.188284   -2.522432    0.646394
 H    3.507707   -1.035192    2.810479
 H    4.288790   -3.303892    1.868125
 H    5.470628   -2.055172    2.228792
 H    6.076270   -3.238067    0.235133
 H    5.805267   -1.528109   -0.098604
 H    3.677233   -1.973626   -1.146543
 H    4.982255   -2.875225   -1.919745
 H    4.207995   -4.827856   -0.534488
 H    2.407440   -6.073420   -0.109180
 H    0.852328   -5.521077   -0.493041
 H    1.896682   -2.496944   -1.741754
 H    2.149484    0.648304    2.233386
 H    1.471696    2.536736    1.194953
 H    3.275429    3.091510   -0.932908
 H    4.287657    2.444277    0.343759
 H    4.223551    4.832455    0.645620
 H    3.242918    4.164570    1.936507
 H    1.395768    6.870389    0.734348
 H    1.033408    3.216809   -1.166712
 H    0.091507    2.932074   -3.143332
 H    0.088638    0.982095   -4.494022
 H    0.887643   -0.435111   -2.211730
 H    2.750581    1.047955   -2.978226
 H    2.485769    0.484632   -4.627766
 H    2.275985    2.195911   -4.241066
 H   -1.315215   -0.153682   -2.774942
 H   -3.870764    1.130209   -2.058500
 H   -3.573319   -0.829196   -3.732964
 H   -3.288604   -1.855198   -2.313251
 H   -5.805789   -0.205142   -2.865263
 H   -5.651677   -1.977725   -2.994272
 H   -5.826436   -2.544670    0.348270
 H   -3.347359    1.922080   -0.117493
 H   -3.037068    2.145341    2.070860
 H   -0.420795   -0.016281    3.434065
 H   -5.046538    0.483104    1.984107
 H   -4.818536   -1.534056    3.281631
 H   -3.645966   -1.614167    1.963953
 H   -3.119814   -1.227435    3.613563
 H   -5.185094    0.652496    4.477879
 H   -3.483349    1.109582    4.533592
 H   -4.664406    2.166121    3.746641
