44 
5f01_ligand_ani.xyz
 C   -4.338134   -1.117330    1.634643
 C   -1.318605   -0.429607   -0.076069
 C   -1.295615   -1.475058   -1.144438
 C   -0.331918    0.702817    0.001043
 N    0.973668    0.317075   -0.098568
 C   -4.493370   -1.403673   -1.989644
 C    2.120520    1.108925    0.025966
 C    4.553174    2.494127    0.245955
 C    3.355016    0.381026    0.017803
 C    4.577298    1.080321    0.132365
 C    5.674573   -1.045154    0.012293
 C   -3.819084   -0.704469   -0.814156
 C   -4.531206    0.613099   -0.482691
 C   -4.087977    1.151921    0.858661
 O   -4.380666    0.219199    1.892236
 N   -3.931408   -1.524163    0.377259
 C   -2.358289   -0.410375   -1.159605
 O   -0.695671    1.858063    0.172751
 F   -4.294380    1.555419   -1.440664
 F   -5.884919    0.420569   -0.453790
 N   -4.639558   -1.976164    2.517330
 C    2.123564    2.475361    0.139411
 C    3.355688    3.163366    0.247854
 C    5.770592    0.312494    0.127490
 C    4.404740   -1.657597   -0.100771
 N    3.288215   -0.973242   -0.099463
Cl    7.092865   -2.048042    0.001194
 H   -1.678566   -0.748026    0.896697
 H   -0.507486   -1.421118   -1.892648
 H   -1.583577   -2.482913   -0.859260
 H    1.188759   -0.668789   -0.189513
 H   -4.473662   -0.762669   -2.876182
 H   -5.532829   -1.639981   -1.749388
 H   -3.960337   -2.331651   -2.221284
 H    5.494019    3.032645    0.331641
 H   -3.015383    1.387167    0.839334
 H   -4.654847    2.052692    1.100487
 H   -4.071832   -2.514573    0.242641
 H   -2.258610    0.348713   -1.932069
 H   -4.899496   -1.503381    3.381112
 H    1.184683    3.014269    0.147666
 H    3.336773    4.247369    0.336094
 H    6.737527    0.799977    0.214667
 H    4.338330   -2.740712   -0.192679
