26 
5f8y_ligand_ani.xyz
 O   -0.902717    1.613902   -0.725417
 C   -0.603958    0.980512    0.500596
 C    0.911444    0.901680    0.575890
 O    1.548276    2.160199    0.495987
 C    1.419741    0.020878   -0.573629
 N    2.892145   -0.118511   -0.370131
 C    0.773158   -1.358499   -0.536095
 O    1.409441   -2.015133    0.548693
 O   -0.623802   -1.309796   -0.409716
 C   -1.145277   -0.452636    0.610712
 C   -2.658800   -0.534003    0.552397
 O   -3.142339    0.093271   -0.633056
 H   -1.785346    1.311304   -1.003947
 H   -0.994390    1.574310    1.346244
 H    1.198704    0.460192    1.536435
 H    1.093346    2.643782   -0.212486
 H    1.207814    0.516796   -1.518536
 H    3.401204   -0.286359   -1.255037
 H    3.015870   -0.913527    0.290902
 H    3.193722    0.777300    0.057824
 H    0.962452   -1.916305   -1.461691
 H    0.912628   -2.820249    0.738180
 H   -0.839289   -0.839677    1.595248
 H   -2.952729   -1.590479    0.578975
 H   -3.060586   -0.029334    1.442961
 H   -4.087124    0.254698   -0.535308
