83 
5f9b_ligand_ani.xyz
 C   -0.704523    0.496583    1.903386
 C   -0.875208   -0.318086    0.598023
 C   -1.574921   -1.659285    0.974846
 C   -3.104012   -1.610622    1.067916
 O   -3.528560   -0.941149    2.249336
 C   -3.727692   -0.935251   -0.172566
 C   -3.374531   -1.821610   -1.370749
 O   -3.326044   -1.171036   -2.552133
 O   -3.204544   -3.019601   -1.313651
 C   -5.279862   -0.944693   -0.125242
 C   -5.907236    0.114910    0.785764
 C   -5.393892    1.540762    0.515064
 C   -5.920403    2.070863   -0.830155
 C   -5.911425    2.468130    1.622681
 C   -3.853619    1.543783    0.557047
 C   -3.192639    0.507008   -0.377172
 C   -1.679941    0.554107   -0.330438
 C   -1.045764    1.512867   -1.022771
 C    0.441095    1.718465   -1.097535
 C    1.284938    0.722220   -0.276397
 C    0.528842   -0.626076   -0.106790
 C    0.279614   -1.304502   -1.470487
 C    1.387589   -1.557137    0.773294
 C    2.865166   -1.639706    0.366226
 C    3.513702   -0.246550    0.308648
 C    2.777151    0.640593   -0.746252
 C    2.928424    0.134150   -2.194122
 C    3.374241    2.063171   -0.648396
 C    4.897259    2.099173   -0.749020
 C    5.569042    1.224732    0.303077
 O    6.958158    1.336336    0.091964
 C    5.070028   -0.250088    0.276397
 C    5.677860   -1.015491   -0.905375
 C    5.545416   -0.926554    1.581793
 O    6.956369   -0.765680    1.752104
 H   -0.439335    1.538333    1.699368
 H    0.047771    0.061703    2.567545
 H   -1.654546    0.497224    2.439970
 H   -1.179564   -1.994429    1.942784
 H   -1.323618   -2.447111    0.265442
 H   -3.483462   -2.640581    1.082856
 H   -3.309858   -1.509920    2.997513
 H   -3.139268   -1.857696   -3.214186
 H   -5.612603   -1.945219    0.177709
 H   -5.644870   -0.797012   -1.149801
 H   -6.998642    0.101752    0.662072
 H   -5.694174   -0.139431    1.827256
 H   -5.611823    3.112805   -0.980289
 H   -7.016618    2.042660   -0.848740
 H   -5.559078    1.494581   -1.688655
 H   -7.007504    2.488332    1.636498
 H   -5.567572    2.132948    2.608665
 H   -5.555762    3.494273    1.472781
 H   -3.503980    2.550316    0.284411
 H   -3.531635    1.361063    1.587239
 H   -3.473698    0.803547   -1.393516
 H   -1.633152    2.227925   -1.598580
 H    0.658112    2.749123   -0.782883
 H    0.710532    1.693210   -2.162577
 H    1.383941    1.134204    0.739462
 H    1.189123   -1.761342   -1.862710
 H   -0.447454   -2.116666   -1.395744
 H   -0.097586   -0.599841   -2.216641
 H    0.959189   -2.566301    0.765947
 H    1.358245   -1.216316    1.815746
 H    2.965178   -2.150322   -0.597764
 H    3.374904   -2.278989    1.093412
 H    3.279110    0.242517    1.269716
 H    3.125016   -0.940192   -2.250931
 H    3.746988    0.641431   -2.712690
 H    2.033739    0.329293   -2.790351
 H    2.943874    2.700186   -1.431397
 H    3.081858    2.504854    0.316385
 H    5.239092    1.776844   -1.738792
 H    5.259488    3.125596   -0.619631
 H    5.299419    1.631504    1.298169
 H    7.376823    0.747533    0.740636
 H    5.335039   -2.057066   -0.909869
 H    6.767107   -1.025133   -0.820940
 H    5.432578   -0.574549   -1.875888
 H    5.009290   -0.481428    2.434588
 H    5.323581   -2.001750    1.554740
 H    7.174574   -0.928623    2.676523
