61 
5fah_ligand_dft.xyz
 C   -4.598720    0.542020   -1.515132
 C   -3.938754   -1.278155   -0.013528
 C    1.411796   -0.601547   -1.481741
 C    2.855007   -0.956710   -1.207810
 C    5.534751   -1.673197   -0.703932
 C    4.830867   -2.282212   -1.707177
 C    3.485819   -1.921353   -1.954145
 C    4.926123   -0.671671    0.097101
 C    3.573672   -0.305205   -0.156047
 C    2.987792    0.704549    0.651977
 C    3.696905    1.313425    1.655804
 C    5.037016    0.944426    1.908071
 C    5.634407   -0.024089    1.142990
 C   -4.425659    1.707733   -0.524643
 C   -2.983752    2.057854   -0.252429
 C   -2.345699    1.609758    0.909789
 C   -0.310677    2.746191    0.291462
 C   -0.912868    3.169949   -0.891986
 C   -1.029752    1.948417    1.185219
 C   -2.239984    2.824999   -1.144730
 N   -3.806889   -0.625482   -1.186604
 C   -2.853932   -2.352783    0.220427
 N   -1.533025   -1.731632    0.390726
 C   -3.062288   -3.094137    1.539789
 C   -1.064680   -1.782736    1.771462
 C   -2.304575   -2.228061    2.550822
 O   -4.821834   -1.048890    0.806829
 C   -0.756030   -1.431958   -0.692813
 O   -1.193209   -1.486321   -1.849053
 N    0.538992   -1.092350   -0.427187
 O    0.958658    3.067318    0.670537
 C    1.759972    3.787564   -0.239632
 H   -4.298314    0.853640   -2.519975
 H   -5.658336    0.266433   -1.553902
 H    1.074286   -1.064405   -2.409764
 H    1.291491    0.484942   -1.604630
 H    6.568567   -1.945570   -0.507819
 H    5.298826   -3.047370   -2.319128
 H    2.940952   -2.419924   -2.751483
 H    1.967200    1.024598    0.473896
 H    3.217883    2.085116    2.251501
 H    5.591048    1.430293    2.705671
 H    6.667028   -0.310252    1.326449
 H   -4.955743    2.577029   -0.932622
 H   -4.919543    1.433626    0.410731
 H   -2.902658    0.994636    1.612453
 H   -0.376052    3.782799   -1.607096
 H   -0.545074    1.633919    2.104934
 H   -2.706594    3.182627   -2.060033
 H   -2.960533   -0.821336   -1.719950
 H   -2.826338   -3.020718   -0.646248
 H   -4.121753   -3.188924    1.779052
 H   -2.613605   -4.091233    1.475124
 H   -0.700123   -0.802026    2.099888
 H   -0.246620   -2.510863    1.876702
 H   -2.918590   -1.361254    2.813097
 H   -2.043762   -2.758700    3.469659
 H    0.835515   -0.953362    0.525275
 H    2.738656    3.884041    0.231274
 H    1.873623    3.248475   -1.189241
 H    1.345555    4.784715   -0.433885
