61 
5fah_ligand_xtb.xyz
 C   -4.708500    0.436911   -1.249809
 C   -3.807389   -1.517065   -0.099647
 C    1.401005    0.155922   -1.270235
 C    2.778720   -0.449787   -1.218350
 C    5.290658   -1.684909   -1.126955
 C    4.435363   -1.938455   -2.160489
 C    3.177295   -1.320970   -2.199402
 C    4.922967   -0.799475   -0.092486
 C    3.650319   -0.166288   -0.131807
 C    3.312222    0.718133    0.917468
 C    4.181288    0.954837    1.946368
 C    5.432729    0.323106    1.985589
 C    5.794513   -0.532649    0.984464
 C   -4.594468    1.464965   -0.108945
 C   -3.176286    1.923863    0.069215
 C   -2.397171    1.427399    1.107941
 C   -0.519781    2.743413    0.380853
 C   -1.284998    3.237259   -0.666837
 C   -1.088943    1.831677    1.267529
 C   -2.598456    2.824741   -0.812045
 N   -3.750199   -0.635121   -1.106353
 C   -2.571019   -2.444156   -0.066042
 N   -1.367581   -1.683335    0.261480
 C   -2.674925   -3.470555    1.057275
 C   -0.913103   -1.949376    1.612849
 C   -2.069992   -2.723396    2.242776
 O   -4.724794   -1.609454    0.692831
 C   -0.667267   -1.028283   -0.699003
 O   -1.101221   -0.902040   -1.842554
 N    0.525435   -0.504787   -0.323388
 O    0.785526    3.077931    0.626979
 C    1.383449    4.076166   -0.163593
 H   -4.528843    0.913151   -2.214388
 H   -5.716090    0.010065   -1.238288
 H    0.950205    0.012498   -2.254686
 H    1.439978    1.229405   -1.059348
 H    6.260713   -2.159150   -1.082865
 H    4.716707   -2.617051   -2.952144
 H    2.508593   -1.538897   -3.019435
 H    2.361964    1.228821    0.907409
 H    3.905665    1.636454    2.738008
 H    6.105095    0.521789    2.807297
 H    6.758475   -1.021385    1.000120
 H   -5.245547    2.310653   -0.338288
 H   -4.944971    0.991808    0.808634
 H   -2.829400    0.723384    1.803948
 H   -0.874505    3.942198   -1.372752
 H   -0.484503    1.468352    2.085153
 H   -3.184060    3.222075   -1.628706
 H   -2.881606   -0.592159   -1.637973
 H   -2.458241   -2.895540   -1.058036
 H   -3.712502   -3.744509    1.234257
 H   -2.094330   -4.362277    0.819996
 H   -0.707706   -1.018028    2.148138
 H    0.000487   -2.561306    1.598303
 H   -2.811136   -2.031534    2.641550
 H   -1.737329   -3.385205    3.039663
 H    0.865230   -0.614517    0.615398
 H    2.390641    4.201484    0.231800
 H    1.445845    3.778277   -1.215958
 H    0.842126    5.024201   -0.087123
