55 
5fbe_ligand_xtb.xyz
 C   -2.450836   -0.436591    1.376980
 C   -1.419809   -3.070739   -0.182929
 C    0.925877   -2.290742   -0.173578
 C   -0.908568    2.157765    1.277557
 C    1.778361   -1.390414    0.462729
 C   -2.228629    1.901812    1.965644
 C    3.057879   -1.198104   -0.021627
 C   -4.133067   -1.079514   -0.354638
 C   -3.923831   -3.439266   -0.000217
 C   -4.369583   -2.421093   -1.047404
 C    2.666192   -2.782113   -1.750177
 C    0.437997    2.899698   -0.590219
 C    1.382443   -2.992749   -1.289219
 C    3.523165   -1.884808   -1.128707
 C    0.264634    1.811723    1.935639
 N   -3.015348   -1.338330    0.535231
 C   -2.704793   -2.762224    0.617632
 C    4.864645    0.313791    0.139874
 N   -0.355032   -2.416943    0.343482
 C   -2.010231    3.124049   -0.785284
 N   -2.971730    0.819291    1.345672
 C   -0.816859    2.714165   -0.006801
 O    3.836350   -0.268889    0.708113
 O   -1.404045   -3.796421   -1.152303
 O   -1.536085   -0.756785    2.139000
 O   -3.119781    2.639950   -0.706235
 F    5.935477   -0.479857   -0.047389
 F    4.604525    0.851917   -1.066651
 F    5.277293    1.314812    0.918031
 O   -1.729648    4.118786   -1.633189
 C   -2.801612    4.573813   -2.444568
 C    1.591032    2.541538    0.078547
 C    1.504238    2.000134    1.350628
 H    1.444553   -0.837000    1.325134
 H   -2.041910    1.625924    3.005899
 H   -2.865015    2.788249    1.932660
 H   -3.890639   -0.286949   -1.069053
 H   -5.014377   -0.774442    0.223404
 H   -4.698585   -3.589571    0.751458
 H   -3.655070   -4.394695   -0.444760
 H   -3.730716   -2.508494   -1.925803
 H   -5.406318   -2.549989   -1.349681
 H    3.016616   -3.325934   -2.613551
 H    0.495866    3.323022   -1.580739
 H    0.726007   -3.688750   -1.783930
 H    4.520697   -1.741848   -1.510605
 H    0.196912    1.377090    2.921363
 H   -2.534079   -3.042832    1.663251
 H   -0.559749   -1.835562    1.168366
 H   -3.469982    1.109351    0.514763
 H   -2.403743    5.389164   -3.042710
 H   -3.162236    3.767081   -3.086400
 H   -3.628298    4.922589   -1.822023
 H    2.552216    2.686946   -0.390148
 H    2.400778    1.722742    1.884229
