67 
5fbo_ligand_ani.xyz
 N    2.738584    4.683172    0.643469
 C    4.046133    4.299030    0.777816
 C    4.506304    3.044208    0.552811
 C    1.867428    3.754608    0.299992
 C    2.236802    2.381112    0.140678
 N    3.590285    2.080081    0.178091
 C    3.718001    0.754694   -0.167446
 N    2.545930    0.209459   -0.395759
 C    1.612026    1.170412   -0.175751
 C    5.058904    0.103020   -0.309568
 N    0.567710    4.114462    0.124468
 C    4.900806   -1.421573   -0.412340
 C    7.170982   -0.109687   -1.677834
 C    6.963391   -1.628548   -1.756417
 N    6.191486   -2.084669   -0.590725
 C    5.852747    0.645031   -1.512563
 C    0.182435    0.877338   -0.256338
 C   -0.689305    1.286192    0.755707
 C   -2.048638    1.042018    0.715099
 C   -2.571705    0.348196   -0.376715
 C   -1.724310   -0.068692   -1.403167
 C   -0.362205    0.169943   -1.331934
 F   -0.182714    1.915994    1.826190
 C   -4.031347    0.029850   -0.509332
 O   -4.556227   -0.105936   -1.602164
 N   -4.684760   -0.123700    0.689118
 C   -6.016922   -0.485288    0.910449
 N   -6.305847   -0.726801    2.187537
 C   -7.561406   -1.068520    2.481670
 C   -8.570949   -1.178378    1.538001
 C   -8.244535   -0.916710    0.212870
 C   -6.948969   -0.566136   -0.124070
 C   -9.278643   -0.997765   -0.871719
 F   -8.897025   -1.839592   -1.850823
 F  -10.464143   -1.424120   -0.407233
 F   -9.476728    0.202106   -1.450076
 C    6.294324   -2.075325   -3.053747
 C    6.905587   -2.624025    0.463536
 O    8.124812   -2.637709    0.491918
 C    6.106492   -3.206667    1.599666
 C    6.828542   -3.961539    2.668166
 C    6.450897   -2.777094    2.997547
 H    4.736880    5.084783    1.073007
 H    5.536788    2.730808    0.644960
 H    5.639458    0.317474    0.599884
 H    0.395616    5.107901    0.055911
 H   -0.003828    3.519236   -0.454856
 H    4.244553   -1.661673   -1.257157
 H    4.413345   -1.798254    0.487320
 H    7.701877    0.230880   -2.576157
 H    7.824546    0.093962   -0.820243
 H    7.939923   -2.112585   -1.679975
 H    6.044822    1.713618   -1.379963
 H    5.241414    0.553991   -2.420850
 H   -2.666152    1.441892    1.512508
 H   -2.158031   -0.585965   -2.253394
 H    0.298501   -0.180627   -2.119020
 H   -4.122655   -0.157394    1.527665
 H   -7.769489   -1.263538    3.530382
 H   -9.579969   -1.459694    1.816445
 H   -6.646750   -0.365833   -1.144583
 H    6.919374   -1.818120   -3.916698
 H    6.141724   -3.158749   -3.044386
 H    5.319753   -1.597186   -3.197346
 H    5.085368   -3.501849    1.335350
 H    7.286617   -4.907396    2.908793
 H    6.392205   -1.948267    3.688067
