29 
5fcz_ligand_xtb.xyz
 C    0.451979   -1.536292   -0.259933
 S   -4.353240   -0.414651   -0.634413
 C   -0.459861   -0.367687    0.146361
 C    0.163948    0.941632   -0.379461
 C    1.609670    1.059223    0.129324
 C    2.393164   -0.206115   -0.243451
 C    3.801944   -0.189168    0.358418
 C   -2.964920   -0.287300    0.233044
 C   -2.966456    0.101724    1.675051
 N   -1.791022   -0.546939   -0.374191
 O   -0.531840    2.082021    0.069839
 O    2.250868    2.165738   -0.439411
 O    1.745669   -1.367440    0.249742
 O    4.556276   -1.291294   -0.057884
 H    0.476669   -1.614245   -1.358713
 H    0.080455   -2.474821    0.156776
 H   -0.502190   -0.314355    1.237069
 H    0.181445    0.918762   -1.481568
 H    1.576196    1.152555    1.227086
 H    2.471632   -0.258360   -1.340643
 H    3.711981   -0.166198    1.453413
 H    4.323482    0.705813    0.017999
 H   -2.565165   -0.707627    2.285722
 H   -3.988147    0.298939    1.986706
 H   -2.365066    0.994574    1.844931
 H   -1.863327   -0.801170   -1.351757
 H   -1.425523    2.073664   -0.292931
 H    1.681084    2.933361   -0.300320
 H    4.050874   -2.086207    0.151746
