44 
5fh6_ligand_ani.xyz
 C    3.838011    0.327200   -1.126708
 C    5.138344   -0.463664   -1.076723
 C    5.982926   -0.050740    0.129188
 C    5.167544   -0.169717    1.417567
 C    3.872210    0.623443    1.311208
 N    3.059485    0.134237    0.152085
 C    1.697025    0.731996    0.102758
 C    0.696752   -0.170785   -0.623818
 C    0.690682   -1.629112   -0.108646
 C   -0.771622   -2.092467   -0.203401
 N   -1.511394   -0.814200   -0.187288
 C   -0.697001    0.218874   -0.391435
 N   -1.168190    1.476356   -0.345036
 C   -2.514201    1.809077   -0.133464
 O   -2.857546    2.973564   -0.105334
 C   -3.407410    0.641932    0.035950
 C   -2.885585   -0.660842   -0.004464
 C   -3.745741   -1.758393    0.133289
 C   -5.099657   -1.543300    0.322309
 C   -5.623402   -0.246738    0.374566
 C   -4.775293    0.835382    0.230142
 H    3.217884    0.019501   -1.972388
 H    4.049589    1.398698   -1.238897
 H    5.690714   -0.325441   -2.012566
 H    4.890327   -1.531729   -1.006332
 H    6.301216    0.993852    0.002888
 H    6.894792   -0.655268    0.189163
 H    5.742222    0.173466    2.284656
 H    4.908390   -1.222362    1.597948
 H    3.277137    0.532676    2.225460
 H    4.087506    1.688744    1.156537
 H    2.938538   -0.885457    0.281351
 H    1.344771    0.890425    1.126932
 H    1.760454    1.713962   -0.378820
 H    0.886974   -0.148966   -1.705826
 H    1.369264   -2.276910   -0.666000
 H    0.995331   -1.629477    0.942483
 H   -1.069237   -2.716808    0.645013
 H   -0.978068   -2.646940   -1.127885
 H   -0.534095    2.260370   -0.473753
 H   -3.356081   -2.772659    0.086094
 H   -5.762639   -2.397696    0.432359
 H   -6.688615   -0.094552    0.524652
 H   -5.146795    1.856437    0.261379
