44 
5fh6_ligand_xtb.xyz
 C    3.689119    0.956619   -0.621217
 C    5.110927    0.583175   -1.023698
 C    5.962995    0.327359    0.214847
 C    5.304968   -0.745642    1.075648
 C    3.877212   -0.348981    1.428381
 N    3.075683   -0.140510    0.182885
 C    1.639418    0.081767    0.481638
 C    0.715093   -0.218102   -0.716525
 C    0.531209   -1.724507   -0.999546
 C   -0.878412   -2.074279   -0.493394
 N   -1.524479   -0.786049   -0.308012
 C   -0.698666    0.226278   -0.429156
 N   -1.103611    1.478156   -0.302527
 C   -2.472519    1.860485   -0.025276
 O   -2.722814    3.019457    0.067292
 C   -3.361619    0.712729    0.107437
 C   -2.882633   -0.607219   -0.032424
 C   -3.756795   -1.680179    0.105768
 C   -5.095060   -1.440813    0.370504
 C   -5.576071   -0.142231    0.502832
 C   -4.714629    0.930190    0.374266
 H    3.083686    1.138352   -1.510100
 H    3.698909    1.859445   -0.007118
 H    5.532533    1.400129   -1.608040
 H    5.099158   -0.302636   -1.662655
 H    6.074031    1.248681    0.787387
 H    6.958680    0.004349   -0.081653
 H    5.864076   -0.881127    2.000668
 H    5.308376   -1.703277    0.550248
 H    3.405402   -1.129991    2.027339
 H    3.869504    0.583238    1.996166
 H    3.177977   -1.001252   -0.370939
 H    1.357235   -0.564197    1.317836
 H    1.525204    1.119837    0.805660
 H    1.081349    0.312096   -1.600805
 H    0.598347   -1.917786   -2.069424
 H    1.277897   -2.342005   -0.503519
 H   -0.864096   -2.615994    0.456792
 H   -1.431529   -2.671130   -1.220354
 H   -0.474845    2.264285   -0.439789
 H   -3.408958   -2.695711    0.011271
 H   -5.769247   -2.276656    0.473865
 H   -6.621362    0.026935    0.706644
 H   -5.060179    1.947686    0.475257
