42 
5fhn_ligand_dft.xyz
 C    2.512609    0.467990   -0.231052
 C    2.580458   -0.873319   -0.099336
 O    3.750906   -1.299177    0.408304
 N    4.530375   -0.155556    0.537722
 C    3.771839    0.988245    0.315836
 C    1.565326   -1.884982   -0.349254
 N    1.739752   -3.201472   -0.560807
 N    0.538486   -3.702784   -0.685036
 N   -0.311142   -2.707091   -0.545991
 N    0.279538   -1.547060   -0.334065
 C   -1.771405   -2.866402   -0.649691
 C   -3.701928    0.480936    1.217409
 C   -3.657533    0.412337   -0.179832
 C   -3.024975   -0.690696   -0.763662
 C   -2.474011   -1.708685    0.013356
 C   -2.539552   -1.628691    1.406982
 C   -3.152396   -0.531813    2.004495
 O    4.107371    2.136176    0.520169
 C    1.471989    1.376523   -0.798427
 C    0.549240    1.986282    0.270325
 C   -0.352762    3.093605   -0.274008
 O   -1.556435    3.060590   -0.164871
 O    0.347885    4.054116   -0.846113
 N   -0.376596    0.962378    0.860958
 C   -4.303167    1.474989   -1.029115
 H    5.228415   -0.266301    1.261668
 H   -2.018107   -2.935357   -1.711966
 H   -2.001773   -3.823945   -0.178582
 H   -4.192610    1.326130    1.692703
 H   -2.975977   -0.760026   -1.848322
 H   -2.125014   -2.424935    2.019992
 H   -3.224564   -0.473515    3.086458
 H    1.988401    2.215722   -1.274685
 H    0.872527    0.872815   -1.564097
 H    1.165174    2.410225    1.068698
 H   -0.256435    4.748790   -1.160681
 H   -0.234844    0.829772    1.863031
 H   -1.355495    1.280815    0.722011
 H   -0.277820    0.025767    0.400772
 H   -3.834703    1.540483   -2.014872
 H   -4.236469    2.457034   -0.555038
 H   -5.363801    1.246080   -1.180618
