60 
5fi6_ligand_dft.xyz
 C    3.795119   -4.096289    0.098716
 N    2.438690   -2.724963   -1.296684
 C    3.788396   -2.164176   -1.328873
 C   -0.757378   -0.814828   -1.282990
 C   -4.067643    0.817128   -0.485593
 C   -4.668149   -0.451087    0.067543
 C   -5.670240   -1.134925   -0.624296
 C   -5.720453   -2.842524    1.078572
 C   -4.195672   -0.981137    1.274858
 C   -1.092765    3.193935    0.932872
 C   -0.634496    1.788221    1.332109
 N    0.741692    1.667754    1.437559
 C    1.486376    0.504759    1.478917
 N    1.058853   -0.698851    1.679411
 N    2.065450   -1.627907    1.616060
 C    3.228470   -1.124447    1.353951
 N    4.379362   -1.866559    1.128523
 C    4.471306   -2.725893   -0.068655
 C    2.373383   -3.930449   -0.460432
 C    1.366990   -1.886124   -1.369718
 N    1.421308   -0.616520   -1.657183
 N    0.192127    0.000013   -1.590963
 N   -2.096022   -0.520388   -1.071187
 C   -2.690537    0.717078   -1.149448
 C   -6.197631   -2.320564   -0.120670
 C   -4.716711   -2.171955    1.772915
 O   -2.189126    1.687329   -1.680194
 S   -0.252214   -2.481320   -1.060367
 S    3.210587    0.627616    1.194440
 O   -1.415098    0.891395    1.567480
 C   -0.069135    4.026353    0.197573
 C    0.488828    5.167018    0.778393
 C    1.459557    5.904481    0.103106
 C    1.886708    5.499405   -1.157242
 C    1.339777    4.357151   -1.740065
 C    0.366180    3.622820   -1.072415
 H    4.351323   -4.838459   -0.482814
 H    3.790585   -4.408810    1.144110
 H    3.736558   -1.073596   -1.360114
 H    4.314909   -2.508527   -2.227675
 H   -4.730205    1.284362   -1.220348
 H   -3.925228    1.544674    0.321272
 H   -6.042563   -0.732468   -1.563264
 H   -6.129997   -3.768589    1.470972
 H   -3.404673   -0.459590    1.808399
 H   -1.975086    3.044588    0.305713
 H   -1.420809    3.695743    1.851208
 H    1.249563    2.486161    1.128275
 H    5.211528   -1.302613    1.232545
 H    5.543136   -2.856690   -0.236342
 H    1.660692   -3.771714    0.354872
 H    2.059456   -4.799397   -1.049503
 H   -2.608768   -1.209575   -0.537226
 H   -6.980928   -2.837848   -0.666983
 H   -4.336945   -2.574386    2.707259
 H    0.158903    5.483557    1.765460
 H    1.881256    6.792776    0.564317
 H    2.645833    6.070348   -1.684070
 H    1.672927    4.032324   -2.721172
 H   -0.053539    2.725436   -1.521835
