60 
5fi6_ligand_ani.xyz
 C   -4.432635   -3.659868   -0.518117
 N   -2.528391   -3.055234    0.751945
 C   -3.685403   -2.636878    1.528532
 C    0.807837   -1.383300    0.771474
 C    3.945246    0.506278   -0.089753
 C    4.877245   -0.681472   -0.160214
 C    5.452025   -1.194307    1.005310
 C    6.576335   -2.905982   -0.271746
 C    5.169016   -1.292359   -1.380628
 C    1.053558    3.052790   -1.126224
 C    0.233412    1.773281   -1.271564
 N   -1.137867    1.942805   -1.157108
 C   -2.068508    0.916363   -1.115632
 N   -1.930419   -0.246569   -1.651173
 N   -2.985203   -1.083526   -1.393146
 C   -3.882594   -0.549771   -0.624016
 N   -4.954995   -1.224484   -0.114260
 C   -4.814230   -2.560673    0.484826
 C   -2.902510   -3.821848   -0.434767
 C   -1.356771   -2.395002    0.896828
 N   -1.160928   -1.469206    1.793574
 N    0.082111   -0.881524    1.710922
 N    2.087769   -0.990483    0.427655
 C    2.624418    0.263265    0.640751
 C    6.295259   -2.299805    0.949902
 C    6.012678   -2.399868   -1.439065
 O    2.097331    1.119738    1.320897
 S    0.060840   -2.719679   -0.099746
 S   -3.593024    1.153252   -0.280860
 O    0.764103    0.708194   -1.506938
 C    0.440669    4.150662   -0.287477
 C   -0.069933    5.303857   -0.885481
 C   -0.663125    6.301742   -0.115045
 C   -0.744835    6.154580    1.266245
 C   -0.230952    5.011079    1.871323
 C    0.361561    4.013295    1.101850
 H   -4.922394   -4.596507   -0.226451
 H   -4.770740   -3.409257   -1.524349
 H   -3.479170   -1.675348    2.001482
 H   -3.912533   -3.374543    2.310090
 H    4.416705    1.349400    0.421786
 H    3.706629    0.846324   -1.108247
 H    5.231462   -0.720289    1.960241
 H    7.234501   -3.770297   -0.313663
 H    4.729156   -0.899854   -2.295951
 H    2.008718    2.740817   -0.696488
 H    1.261363    3.424872   -2.136832
 H   -1.469857    2.860561   -0.891544
 H   -5.628658   -0.642537    0.363891
 H   -5.783980   -2.772654    0.937286
 H   -2.416000   -3.406198   -1.319037
 H   -2.601025   -4.871828   -0.326117
 H    2.571482   -1.575085   -0.238525
 H    6.734758   -2.690848    1.864403
 H    6.225761   -2.866672   -2.397676
 H   -0.005338    5.416721   -1.966478
 H   -1.061505    7.191446   -0.596420
 H   -1.207625    6.930407    1.871167
 H   -0.292612    4.895042    2.950365
 H    0.763256    3.116888    1.572376
