36 
5fnr_ligand_ani.xyz
 C    5.707633   -1.715555    0.746948
 N    4.737909   -0.923427    0.024522
 N    5.018931   -0.487919   -1.223677
 N    4.020840    0.181663   -1.680764
 C    3.036447    0.199013   -0.718766
 C    1.761371    0.785433   -0.718028
 C    0.975810    0.645078    0.410363
 C    1.461100   -0.092671    1.519836
 C    2.710613   -0.678125    1.545206
 C    3.492623   -0.514866    0.393004
 C   -0.442844    1.197175    0.511032
 C   -0.678250    2.384573   -0.429755
 C   -1.837739    3.250112    0.002176
 O   -2.360713    3.251902    1.092173
 O   -2.224414    4.088220   -0.980170
 C   -1.479302    0.102452    0.287182
 C   -1.407659   -0.713448   -0.840536
 C   -2.358797   -1.698698   -1.075539
 C   -3.396222   -1.868282   -0.166003
Cl   -4.592138   -3.100996   -0.451594
 C   -3.492014   -1.068573    0.966340
 C   -2.531586   -0.087087    1.182941
 H    5.893388   -2.655711    0.220689
 H    5.310030   -1.929346    1.739531
 H    6.644371   -1.160858    0.844686
 H    1.430564    1.333715   -1.594073
 H    0.815961   -0.199467    2.389663
 H    3.067546   -1.234555    2.407078
 H   -0.578943    1.570840    1.532615
 H   -0.854949    2.049440   -1.457611
 H    0.207787    3.033000   -0.453146
 H   -2.950605    4.618353   -0.611725
 H   -0.589261   -0.584338   -1.548553
 H   -2.300033   -2.330984   -1.955778
 H   -4.308084   -1.215618    1.667452
 H   -2.611259    0.550079    2.061250
