57 
5fnt_ligand_xtb.xyz
 C   -0.032400    3.965552    0.037328
 N   -0.231541    2.953253    1.037965
 C   -1.568779    2.488084    1.337511
 C   -2.103175    1.487133    0.344352
 C   -1.768892    0.148923    0.511016
 C   -2.143623   -0.826158   -0.402078
 C   -2.908758   -0.450991   -1.498652
 C   -3.279349    0.870427   -1.674214
 C   -2.870335    1.833395   -0.763749
Cl   -3.340738    3.479750   -1.032452
 C   -1.703417   -2.261547   -0.201806
 C   -2.517142   -2.905426    0.927577
 C   -3.925398   -3.205015    0.474911
 O   -4.753825   -3.343895    1.516852
 O   -4.291608   -3.325588   -0.662102
 C   -0.208098   -2.276472    0.026641
 C    0.330147   -2.100842    1.316899
 C    1.677700   -1.963293    1.545207
 C    2.507507   -2.027515    0.433947
 N    3.849964   -1.932274    0.238462
 C    4.874945   -1.665214    1.199766
 N    4.120323   -2.102479   -1.058886
 N    3.055067   -2.300069   -1.720143
 C    1.994702   -2.263225   -0.864385
 C    0.621148   -2.374845   -1.070576
 S    1.103997    2.050182    1.421697
 O    0.668492    0.948981    2.236212
 O    2.090781    2.929502    1.981955
 C    1.796943    1.446615   -0.126958
 C    3.174610    1.455356   -0.243975
 C    3.764429    1.019567   -1.418594
 C    2.971262    0.586193   -2.469309
 C    1.592194    0.583599   -2.343224
 C    0.999248    1.012505   -1.166212
 H    1.012922    4.263977    0.089822
 H   -0.659317    4.831388    0.256300
 H   -0.255506    3.611257   -0.975835
 H   -1.507683    2.016309    2.319768
 H   -2.221276    3.363406    1.397394
 H   -1.153775   -0.104985    1.359592
 H   -3.227354   -1.194672   -2.212669
 H   -3.879530    1.160499   -2.522510
 H   -1.925519   -2.817864   -1.118109
 H   -2.575694   -2.267797    1.809286
 H   -2.061929   -3.855094    1.221431
 H   -5.651146   -3.556788    1.214726
 H   -0.331702   -2.065293    2.166601
 H    2.064540   -1.798056    2.537274
 H    4.663331   -0.731796    1.724671
 H    5.818954   -1.583050    0.664904
 H    4.938662   -2.477309    1.927308
 H    0.230515   -2.523621   -2.064462
 H    3.758822    1.818353    0.586996
 H    4.839314    1.011980   -1.514493
 H    3.429823    0.235922   -3.380323
 H    0.974179    0.241038   -3.158446
 H   -0.072279    1.001645   -1.058359
