57 
5fnt_ligand_ani.xyz
 C   -0.888015    3.932576   -0.498348
 N   -1.025342    2.899844    0.518780
 C   -2.331440    2.287991    0.773917
 C   -2.574170    1.066919   -0.084341
 C   -1.935696   -0.114434    0.289630
 C   -1.984812   -1.275712   -0.467385
 C   -2.768076   -1.277378   -1.620374
 C   -3.449405   -0.131568   -2.011572
 C   -3.345817    1.028144   -1.248117
Cl   -4.215758    2.441287   -1.797471
 C   -1.214120   -2.503814   -0.003485
 C   -1.791223   -3.023768    1.318113
 C   -3.106758   -3.738091    1.111466
 O   -3.742965   -3.961381    2.278635
 O   -3.557981   -4.106090    0.052118
 C    0.291462   -2.243572    0.062815
 C    0.926151   -1.715327    1.213309
 C    2.287554   -1.470257    1.275135
 C    3.033209   -1.762610    0.126693
 N    4.347428   -1.645840   -0.214727
 C    5.462595   -1.138307    0.552897
 N    4.532324   -2.051320   -1.487580
 N    3.403341   -2.432766   -1.985389
 C    2.424575   -2.272581   -1.029477
 C    1.043093   -2.511862   -1.071246
 S    0.287130    2.614165    1.498575
 O   -0.061864    1.527879    2.408209
 O    0.746268    3.889216    2.032141
 C    1.535668    2.058804    0.355745
 C    2.815987    2.584453    0.494585
 C    3.804339    2.216909   -0.408710
 C    3.507828    1.335728   -1.444159
 C    2.228076    0.794757   -1.553712
 C    1.234733    1.150160   -0.651049
 H   -0.230963    3.590910   -1.308115
 H   -0.481919    4.851406   -0.062747
 H   -1.873093    4.140744   -0.923103
 H   -2.354371    2.004557    1.829533
 H   -3.104041    3.041190    0.604254
 H   -1.336308   -0.091147    1.199854
 H   -2.860206   -2.188752   -2.208286
 H   -4.060376   -0.123815   -2.909097
 H   -1.372886   -3.290853   -0.748955
 H   -1.947711   -2.211216    2.036000
 H   -1.104899   -3.737625    1.791365
 H   -4.561397   -4.434015    2.052445
 H    0.342800   -1.499502    2.108485
 H    2.751819   -1.062638    2.169492
 H    5.078576   -0.811448    1.520365
 H    5.917399   -0.283209    0.040653
 H    6.214434   -1.918499    0.700176
 H    0.593352   -2.878889   -1.986984
 H    3.011570    3.284241    1.302194
 H    4.809027    2.622072   -0.300844
 H    4.281160    1.048355   -2.154614
 H    2.005836    0.080272   -2.340684
 H    0.249668    0.689988   -0.711977
