57 
5fnt_ligand_dft.xyz
 C   -0.303506    4.063426   -0.450652
 N   -0.446412    2.926581    0.448447
 C   -1.797055    2.548397    0.875648
 C   -2.336052    1.401082    0.046695
 C   -1.834304    0.125399    0.308938
 C   -2.201367   -0.995950   -0.428108
 C   -3.132353   -0.831838   -1.455339
 C   -3.661850    0.422072   -1.735013
 C   -3.258134    1.527252   -0.991396
Cl   -3.947202    3.090395   -1.401631
 C   -1.623025   -2.369372   -0.099090
 C   -2.312393   -2.963743    1.139723
 C   -3.741914   -3.363775    0.857564
 O   -4.462941   -3.456926    1.988379
 O   -4.206011   -3.609346   -0.230862
 C   -0.107235   -2.333228    0.037724
 C    0.511389   -1.904349    1.244434
 C    1.876953   -1.776788    1.382424
 C    2.645582   -2.117331    0.264202
 N    3.976096   -2.095178   -0.010449
 C    5.065177   -1.647956    0.822947
 N    4.193977   -2.494409   -1.283661
 N    3.070773   -2.785622   -1.843099
 C    2.067625   -2.568234   -0.926212
 C    0.675557   -2.675380   -1.050147
 S    0.865101    2.512027    1.369976
 O    0.422566    1.446033    2.264244
 O    1.511576    3.690383    1.930818
 C    1.982636    1.843140    0.147172
 C    3.339478    2.129084    0.268361
 C    4.229806    1.578426   -0.649500
 C    3.760125    0.763071   -1.676593
 C    2.397611    0.495993   -1.791523
 C    1.500309    1.025534   -0.871417
 H    0.703148    4.078484   -0.875568
 H   -0.487259    5.016896    0.058718
 H   -1.015252    3.944084   -1.271527
 H   -1.765292    2.247745    1.924191
 H   -2.434651    3.433124    0.805453
 H   -1.104609    0.041363    1.107948
 H   -3.460360   -1.693103   -2.028826
 H   -4.386761    0.547388   -2.531906
 H   -1.863338   -3.033443   -0.935285
 H   -2.305674   -2.270247    1.985698
 H   -1.784173   -3.868326    1.467423
 H   -5.350436   -3.749784    1.725013
 H   -0.107335   -1.645906    2.097600
 H    2.316302   -1.407830    2.302401
 H    4.939596   -0.588328    1.064643
 H    5.988087   -1.790101    0.260537
 H    5.103816   -2.234970    1.744813
 H    0.232312   -3.005004   -1.985064
 H    3.680447    2.788825    1.059075
 H    5.290377    1.796454   -0.567187
 H    4.454170    0.327595   -2.388202
 H    2.037819   -0.145677   -2.588265
 H    0.438961    0.811256   -0.947958
