63 
5fpk_ligand_dft.xyz
 C    2.126968    2.696925   -0.380823
 O    1.577355    3.177560   -1.368434
 C    2.517349    3.530564    0.813723
 N    2.360638    1.364233   -0.262678
 C    1.986741    0.404518   -1.275624
 C    1.075629   -0.697252   -0.726932
 O    0.826073   -1.694090   -1.407441
 C    3.223702   -0.231129   -1.948106
 C    4.177673   -0.821594   -0.935901
 C    5.256766   -0.069385   -0.463258
 C    3.967342   -2.097661   -0.402124
 C    6.106537   -0.574038    0.517592
 C    4.814619   -2.603391    0.579166
 C    5.885638   -1.843415    1.043299
 N    0.611325   -0.540043    0.530020
 C   -0.078691   -1.620222    1.223448
 C   -1.590841   -1.543026    0.959340
 O   -2.391002   -1.363852    1.874638
 C    0.226373   -1.559158    2.711839
 N   -1.940151   -1.644810   -0.348061
 C   -3.209024   -1.176158   -0.922200
 C   -3.286075    0.356884   -0.830644
 O   -3.280816    1.061065   -1.832516
 C   -4.442608   -1.911723   -0.358330
 O   -4.277382   -3.304239   -0.523997
 C   -5.698123   -1.507429   -1.112112
 N   -3.314023    0.856256    0.432600
 C   -2.973776    2.244798    0.705516
 C   -1.480060    2.453089    0.377111
 O   -0.596623    2.143469    1.182828
 C   -3.257348    2.564813    2.164973
 N   -1.244123    2.974181   -0.836519
 H    1.653481    3.544821    1.487584
 H    3.378416    3.124974    1.353144
 H    2.729616    4.549628    0.488794
 H    2.913676    1.030815    0.514310
 H    1.419620    0.958695   -2.029245
 H    2.871394   -0.992988   -2.647528
 H    3.724509    0.554125   -2.522842
 H    5.434777    0.920936   -0.876145
 H    3.133290   -2.692809   -0.763668
 H    6.943778    0.023244    0.866893
 H    4.640714   -3.597752    0.980120
 H    6.548449   -2.241193    1.805943
 H    0.564954    0.397858    0.925464
 H    0.301135   -2.550341    0.787516
 H   -0.119359   -0.611755    3.135030
 H   -0.287721   -2.365314    3.239594
 H    1.303975   -1.655416    2.870017
 H   -1.166314   -1.772004   -0.997960
 H   -3.155663   -1.405899   -1.988137
 H   -4.557187   -1.667259    0.704536
 H   -3.483587   -3.555787   -0.034888
 H   -5.588443   -1.718440   -2.180630
 H   -5.905768   -0.440810   -0.984247
 H   -6.549912   -2.077122   -0.732371
 H   -3.197922    0.197819    1.198749
 H   -3.581071    2.876072    0.050433
 H   -2.615819    1.959712    2.811830
 H   -4.306028    2.360772    2.398443
 H   -3.049695    3.618253    2.371037
 H   -0.281736    3.081752   -1.155479
 H   -1.984804    2.941317   -1.524160
