63 
5fpk_ligand_ani.xyz
 C    2.287788    2.548128   -0.088572
 O    1.945696    3.011553   -1.175017
 C    2.769851    3.400610    1.059242
 N    2.184651    1.217022    0.173791
 C    1.754016    0.280873   -0.844907
 C    0.968046   -0.887146   -0.251801
 O    0.784282   -1.917617   -0.903832
 C    2.902321   -0.199208   -1.755308
 C    4.067920   -0.790951   -0.995950
 C    5.197695   -0.017552   -0.719808
 C    4.020906   -2.106059   -0.524809
 C    6.259782   -0.539798    0.013473
 C    5.081849   -2.630749    0.206467
 C    6.202323   -1.849460    0.477509
 N    0.456135   -0.719670    0.988303
 C   -0.371058   -1.762485    1.593651
 C   -1.827291   -1.585349    1.121624
 O   -2.711430   -1.229618    1.898530
 C   -0.278999   -1.712219    3.108733
 N   -2.044071   -1.804981   -0.200548
 C   -3.152009   -1.191510   -0.947842
 C   -3.064296    0.344037   -0.955042
 O   -2.955482    0.960360   -2.014699
 C   -4.524252   -1.740662   -0.502824
 O   -4.551819   -3.139402   -0.711921
 C   -5.644937   -1.139961   -1.332189
 N   -3.121869    0.962265    0.243414
 C   -2.820126    2.377964    0.377996
 C   -1.304357    2.591961    0.142396
 O   -0.508419    2.521715    1.073499
 C   -3.215873    2.868629    1.760752
 N   -0.969267    2.838795   -1.142828
 H    1.975437    3.458962    1.809558
 H    3.662936    2.984915    1.536636
 H    2.984188    4.403366    0.688103
 H    2.573339    0.839369    1.026741
 H    1.039226    0.824221   -1.473708
 H    2.483792   -0.931955   -2.452216
 H    3.233635    0.666653   -2.338408
 H    5.242863    1.007553   -1.083658
 H    3.137502   -2.707837   -0.729745
 H    7.132572    0.075994    0.218842
 H    5.034966   -3.655507    0.566496
 H    7.029366   -2.263038    1.049807
 H    0.372821    0.225788    1.349545
 H    0.009219   -2.712597    1.199629
 H   -0.668336   -0.760275    3.484466
 H   -0.875927   -2.512789    3.553669
 H    0.762213   -1.823671    3.425496
 H   -1.214957   -2.037352   -0.741260
 H   -3.014386   -1.481868   -1.992792
 H   -4.674756   -1.512978    0.560942
 H   -3.798143   -3.508313   -0.231431
 H   -5.482980   -1.370044   -2.390617
 H   -5.686592   -0.051566   -1.216304
 H   -6.604682   -1.564039   -1.027031
 H   -3.198739    0.394213    1.082410
 H   -3.378314    2.910443   -0.401364
 H   -2.613708    2.360772    2.520522
 H   -4.277367    2.675773    1.945397
 H   -3.036025    3.943871    1.853144
 H    0.020589    2.965522   -1.347208
 H   -1.587213    2.491905   -1.869799
