52 
5fqr_ligand_ani.xyz
 C    0.190697    4.890170    0.070215
 C   -0.705008    3.754329   -0.422380
 C   -0.119708    3.084864   -1.669778
 C   -0.925981    2.733053    0.706860
 N   -1.825563    1.614886    0.289905
 C   -3.284359    1.949912    0.426894
 C   -4.056994    1.005464   -0.473079
 C   -3.682050   -0.441460   -0.233728
 C   -4.549469   -1.431950   -0.690773
 C   -4.240118   -2.778329   -0.530679
 C   -3.046033   -3.142314    0.089006
 C   -2.184187   -2.154240    0.543365
 C   -2.484218   -0.797750    0.399194
 C   -1.543073    0.255478    0.967723
 C   -0.075098   -0.113744    0.828451
 C    0.533794   -0.133499   -0.426758
 C    1.891414   -0.387147   -0.563153
 C    2.682712   -0.651268    0.561386
 C    2.061848   -0.670168    1.816972
 C    0.704658   -0.404059    1.948641
 C    4.127207   -0.900143    0.482120
 C    4.912078   -0.814370   -0.597473
 C    6.359367   -1.082246   -0.463767
 O    6.934227   -1.397190    0.554549
 O    7.006421   -0.932893   -1.637535
 O   -5.133593   -3.694657   -0.997509
 H   -0.217309    5.365666    0.969764
 H    1.195202    4.519905    0.311939
 H    0.300472    5.663310   -0.698042
 H   -1.686838    4.176448   -0.684119
 H    0.746819    2.465771   -1.405495
 H   -0.853790    2.441319   -2.170186
 H    0.209322    3.832566   -2.398295
 H   -1.352284    3.231391    1.588873
 H    0.038446    2.322426    1.016518
 H   -1.648223    1.459157   -0.719769
 H   -3.458714    2.994912    0.152964
 H   -3.580742    1.824017    1.475729
 H   -5.132523    1.147264   -0.337056
 H   -3.839077    1.265229   -1.519627
 H   -5.482122   -1.164624   -1.182005
 H   -2.791005   -4.193189    0.214955
 H   -1.248166   -2.447675    1.012554
 H   -1.751703    0.395978    2.035546
 H   -0.061414    0.070915   -1.317215
 H    2.332370   -0.378671   -1.555681
 H    2.653110   -0.888055    2.703430
 H    0.246305   -0.415920    2.936845
 H    4.610176   -1.172187    1.421129
 H    4.543749   -0.540830   -1.582238
 H    7.940641   -1.123977   -1.451675
 H   -4.795074   -4.580926   -0.819775
