55 
5fqs_ligand_ani.xyz
 C    0.365401    3.227819   -1.392107
 C   -0.948108    3.748411   -0.802980
 C   -0.814944    5.203610   -0.361513
 C   -1.407402    2.867281    0.375646
 N   -1.939678    1.542486   -0.071110
 C   -3.389982    1.601358   -0.435304
 C   -3.707193    0.381446   -1.280408
 C   -3.280510   -0.902317   -0.606889
 C   -3.880734   -2.095627   -1.007927
 C   -3.516458   -3.308516   -0.433386
 C   -2.538041   -3.338422    0.559155
 C   -1.937268   -2.151180    0.951255
 C   -2.288737   -0.925381    0.381010
 C   -1.595434    0.324785    0.899359
 C   -2.097801    0.643222    2.306223
 C   -0.075994    0.135865    0.831955
 C    0.493007   -0.249252   -0.389451
 C    1.861338   -0.415620   -0.535608
 C    2.721047   -0.218642    0.551358
 C    2.154800    0.161176    1.772944
 C    0.781647    0.331118    1.914013
 C    4.173537   -0.412443    0.463551
 C    4.868333   -0.901527   -0.569515
 C    6.334397   -1.048668   -0.454823
 O    7.007725   -0.747767    0.505672
 O    6.872382   -1.576722   -1.573107
 O   -4.144982   -4.434321   -0.874455
 H    0.312430    2.160210   -1.637451
 H    1.175630    3.351452   -0.662898
 H    0.636941    3.774871   -2.301025
 H   -1.726962    3.686454   -1.578755
 H   -0.501712    5.838487   -1.197822
 H   -0.061170    5.303354    0.430206
 H   -1.762285    5.598517    0.023510
 H   -2.177854    3.393315    0.960761
 H   -0.559372    2.708880    1.050668
 H   -1.428374    1.305250   -0.942956
 H   -4.010224    1.612978    0.469010
 H   -3.607929    2.524486   -0.987949
 H   -4.777267    0.351010   -1.504889
 H   -3.193726    0.475274   -2.248595
 H   -4.646293   -2.094897   -1.780299
 H   -2.246582   -4.282135    1.016272
 H   -1.154242   -2.179402    1.706357
 H   -1.878304   -0.185438    2.984264
 H   -1.636923    1.555615    2.692789
 H   -3.180832    0.793337    2.296821
 H   -0.162788   -0.438786   -1.239364
 H    2.260105   -0.695972   -1.506502
 H    2.799980    0.325880    2.633050
 H    0.394569    0.631956    2.884930
 H    4.740929   -0.140151    1.354124
 H    4.406868   -1.218678   -1.500536
 H    7.827211   -1.638455   -1.405054
 H   -3.794478   -5.195311   -0.395131
