55 
5fqt_ligand_ani.xyz
 C   -5.464567   -1.131403   -1.427799
 C   -4.242801   -1.398748   -0.579842
 C   -3.934473   -2.724109   -0.265823
 C   -2.795769   -3.041452    0.471506
 C   -1.949792   -2.026040    0.893310
 C   -2.234183   -0.688038    0.613596
 C   -3.416815   -0.381581   -0.078457
 C   -3.829859    1.059426   -0.317792
 C   -3.039046    2.041441    0.521589
 N   -1.582952    1.715202    0.359501
 C   -1.275673    0.395427    1.096500
 C    0.189269    0.024518    0.922603
 C    0.750453   -0.058898   -0.352528
 C    2.099028   -0.333827   -0.528252
 C    2.931296   -0.550382    0.576720
 C    2.362631   -0.485716    1.855158
 C    1.012740   -0.204056    2.025501
 C    4.364493   -0.842121    0.452881
 C    5.082551   -0.944206   -0.670815
 C    6.526925   -1.244186   -0.583689
 O    7.096408   -1.319806   -1.803859
 O    7.160068   -1.409374    0.435304
 C   -0.683014    2.858899    0.699998
 C   -0.488774    3.819919   -0.484920
 C    0.368079    5.010592   -0.056855
 C    0.121246    3.094567   -1.688270
 O   -4.793878   -3.684072   -0.719854
 H   -5.482361   -1.793535   -2.298457
 H   -5.509239   -0.100425   -1.788083
 H   -6.381451   -1.335653   -0.862743
 H   -2.567233   -4.081204    0.701618
 H   -1.049149   -2.284744    1.444748
 H   -4.897051    1.195246   -0.119306
 H   -3.679156    1.298038   -1.381273
 H   -3.305651    1.951568    1.582118
 H   -3.230175    3.073904    0.214442
 H   -1.437202    1.506863   -0.645331
 H   -1.447778    0.586133    2.162792
 H    0.122245    0.103748   -1.228658
 H    2.502083   -0.374064   -1.536099
 H    2.988563   -0.655775    2.728169
 H    0.595448   -0.154339    3.030607
 H    4.897008   -0.990930    1.392681
 H    4.658561   -0.817704   -1.662967
 H    8.034209   -1.518968   -1.646916
 H    0.289294    2.470108    1.013257
 H   -1.097424    3.399793    1.562366
 H   -1.482596    4.194342   -0.773369
 H    0.465953    5.735606   -0.872253
 H   -0.066459    5.531047    0.804665
 H    1.379378    4.687237    0.220974
 H   -0.590752    2.398156   -2.146989
 H    0.428181    3.805322   -2.461953
 H    1.005237    2.519218   -1.385953
 H   -4.486284   -4.549543   -0.423240
