55 
5fqv_ligand_ani.xyz
 C   -2.728854   -4.303354    0.419399
 C   -3.006734   -2.847659    0.142925
 C   -2.155660   -1.849871    0.599029
 C   -2.386908   -0.491460    0.363891
 C   -3.529388   -0.119493   -0.353365
 C   -4.389189   -1.108502   -0.828304
 C   -4.137073   -2.452955   -0.586920
 O   -5.031835   -3.357509   -1.083240
 C   -3.849272    1.328902   -0.648262
 C   -3.125671    2.264749    0.301486
 N   -1.665071    1.912353    0.257131
 C   -1.425304    0.544979    0.933080
 C    0.036271    0.142883    0.798453
 C    0.791067   -0.208770    1.917871
 C    2.134193   -0.541917    1.791449
 C    2.765369   -0.535644    0.540998
 C    2.002627   -0.192544   -0.581940
 C    0.660552    0.134811   -0.450009
 C    4.188066   -0.888989    0.463320
 C    4.967913   -0.905565   -0.623233
 C    6.387394   -1.295550   -0.491025
 O    6.945073   -1.618140    0.534254
 O    7.029410   -1.255166   -1.676424
 C   -0.779948    3.012521    0.750133
 C   -0.498370    4.069899   -0.331465
 C    0.125277    3.434404   -1.578243
 C    0.393756    5.171393    0.239734
 H   -1.805943   -4.416287    0.996488
 H   -3.532634   -4.773456    1.001205
 H   -2.604783   -4.883466   -0.504550
 H   -1.270043   -2.148415    1.156490
 H   -5.278592   -0.842994   -1.395421
 H   -4.746899   -4.247392   -0.843266
 H   -4.928347    1.498973   -0.601782
 H   -3.539252    1.568352   -1.676169
 H   -3.269145    3.311644    0.017923
 H   -3.491142    2.141567    1.328438
 H   -1.424493    1.768043   -0.740775
 H   -1.635013    0.683652    2.001161
 H    0.325367   -0.219376    2.902846
 H    2.704867   -0.810387    2.677551
 H    2.455541   -0.177512   -1.569180
 H    0.089108    0.398018   -1.340602
 H    4.655964   -1.167028    1.408218
 H    4.614345   -0.640875   -1.615747
 H    7.944589   -1.523926   -1.491909
 H    0.166093    2.582862    1.090648
 H   -1.243310    3.485463    1.627845
 H   -1.461096    4.519264   -0.616573
 H    0.506172    4.200660   -2.260728
 H    0.961652    2.779948   -1.302016
 H   -0.603713    2.832631   -2.134879
 H   -0.046170    5.622400    1.136868
 H    1.380330    4.775131    0.511957
 H    0.550186    5.968954   -0.494679
