45 
5fs5_ligand_xtb.xyz
 O    2.918429    3.368253    0.032148
 C    2.624662    2.410790   -0.966060
 C    2.283700    1.074528   -0.301475
 C   -4.455691   -0.233486    0.510946
 O    1.865426    0.220498   -1.351169
 C    3.486400    0.474213    0.436908
 O    3.906447    1.254308    1.531536
 C    3.098283   -0.907235    0.978943
 O    4.211753   -1.540887    1.565525
 C    2.598472   -1.795077   -0.163948
 O    3.639361   -2.114734   -1.045423
 C    1.491451   -1.068123   -0.939830
 O    0.355257   -1.058594   -0.131799
 C   -0.827879   -0.657979   -0.810693
 C   -1.978598   -0.638551    0.187046
 C   -3.297853   -0.266432   -0.484039
 C   -8.250811    0.537339    0.145754
 C   -6.937399    0.174490    0.827821
 C   -5.776708    0.129730   -0.163269
 H    3.097366    4.215173   -0.389420
 H    3.482985    2.262235   -1.633481
 H    1.764375    2.721647   -1.570470
 H    1.468729    1.224699    0.423473
 H   -4.549988   -1.211630    0.987252
 H   -4.237842    0.495060    1.295040
 H    4.312565    0.349547   -0.283902
 H    3.757521    2.184473    1.308374
 H    2.291853   -0.781951    1.715971
 H    4.629257   -0.886319    2.139237
 H    2.161201   -2.710356    0.263759
 H    4.401820   -2.332037   -0.489313
 H    1.307752   -1.601614   -1.885942
 H   -0.683427    0.335362   -1.255171
 H   -1.034122   -1.368749   -1.624604
 H   -1.746204    0.076229    0.977934
 H   -2.055760   -1.625587    0.644879
 H   -3.199917    0.713514   -0.956713
 H   -3.518930   -0.990733   -1.271264
 H   -8.178117    1.514428   -0.327015
 H   -9.063363    0.565378    0.868063
 H   -8.497926   -0.194542   -0.620206
 H   -7.036702   -0.800088    1.311041
 H   -6.718218    0.908646    1.606544
 H   -5.678993    1.104695   -0.646596
 H   -5.997458   -0.603468   -0.942636
