35 
5fv7_ligand_dft.xyz
 C    4.517122    1.593503   -0.032816
 C    3.627660    2.028029    0.949459
 C    2.581636    1.207762    1.352870
 C    2.422752   -0.052371    0.783365
 C    3.332559   -0.500083   -0.182672
 C    4.370576    0.330898   -0.594356
 O    3.213327   -1.734706   -0.760368
 C    2.391965   -2.619139   -0.014616
 C    1.084198   -1.934338    0.355645
 O    1.356044   -0.809638    1.182151
 C    0.293790   -1.523942   -0.890522
 N   -0.944927   -0.835910   -0.553112
 C   -1.045410    0.542048   -0.531641
 C   -0.032971    1.491378   -0.870669
 C   -0.491629    2.768466   -0.746982
 S   -2.129208    2.874418   -0.231028
 C   -2.229035    1.151567   -0.170444
 C   -3.388635    0.400001    0.212363
 O   -4.490434    0.807027    0.559932
 N   -3.160966   -0.972581    0.160622
 C   -2.002037   -1.659398   -0.167597
 O   -1.913028   -2.868028   -0.132228
 O   -4.223625   -1.761372    0.534647
 H    5.331388    2.233804   -0.356244
 H    3.744299    3.008859    1.398989
 H    1.859095    1.527829    2.096269
 H    5.056492   -0.039145   -1.349479
 H    2.910967   -2.932013    0.900130
 H    2.220577   -3.492849   -0.646258
 H    0.467795   -2.603250    0.960100
 H    0.889817   -0.877120   -1.535365
 H    0.034902   -2.421626   -1.455550
 H    0.982082    1.253668   -1.158046
 H    0.072425    3.672595   -0.932039
 H   -4.894769   -1.074553    0.739973
