44 
5fwr_ligand_ani.xyz
 C    4.034991    0.568519    0.190205
 C    2.658634    1.114207   -0.194871
 C    2.735267    2.448023   -0.917869
 C    3.895567   -0.836702    0.755129
 C   -5.158537    0.652283    1.117659
 C   -6.520794    0.921356    1.050058
 C   -7.260313    0.513347   -0.056698
 C   -6.625100   -0.157830   -1.098080
 C   -5.259694   -0.411377   -1.034821
 C   -4.507548   -0.014590    0.075219
 C   -3.052257   -0.297530    0.143989
 C   -2.468208   -0.790226    1.316691
 C   -1.117448   -1.078159    1.380654
 C   -2.222278   -0.086249   -0.958155
 C   -0.858839   -0.346820   -0.909917
 C   -0.306149   -0.858248    0.263627
 O    1.016373   -1.178082    0.419703
 C    1.880424   -1.094412   -0.691039
 O    2.038232    0.228973   -1.128817
 O    3.351268    3.395221   -0.048789
 O    4.672335    1.332434    1.190484
 O    5.177632   -1.390414    0.983701
 C    3.196555   -1.728834   -0.258491
 O    4.005827   -1.871973   -1.402782
 H    4.652213    0.509072   -0.723016
 H    2.046780    1.221825    0.713523
 H    1.724453    2.768028   -1.199558
 H    3.328130    2.305754   -1.832097
 H    3.313988   -0.796257    1.688288
 H   -4.583817    0.980050    1.981394
 H   -7.007221    1.444731    1.869101
 H   -8.326485    0.717406   -0.107485
 H   -7.192738   -0.479213   -1.967455
 H   -4.768739   -0.943034   -1.847432
 H   -3.094665   -0.972377    2.187455
 H   -0.673443   -1.471782    2.289602
 H   -2.650016    0.310779   -1.876799
 H   -0.247385   -0.153081   -1.783580
 H    1.449524   -1.652398   -1.529484
 H    3.599425    4.174128   -0.558604
 H    4.507968    2.267204    0.979526
 H    5.694701   -0.699365    1.424800
 H    2.975599   -2.703187    0.203232
 H    4.892758   -2.058087   -1.059156
