38 
5g5f_ligand_xtb.xyz
 N   -1.706445    0.996282   -0.276407
 C   -2.650914    0.088762   -0.956314
 C   -4.007663    0.088691   -0.235600
 O   -4.850086   -0.738329   -0.405243
 O   -4.121440    1.139190    0.574936
 C   -2.092467   -1.334947   -1.079255
 C   -1.861733   -2.052820    0.261809
 C   -0.683891   -1.436932    0.981375
 O   -0.801994   -0.429975    1.678630
 N    0.511944   -2.000225    0.767962
 C    1.699502   -1.214556    1.026899
 C    1.632877    0.033873    0.116275
 O    0.813290    0.116061   -0.783561
 C    2.950175   -2.038540    0.755283
 S    2.992168   -2.495800   -1.032199
 N    2.524694    0.991409    0.386438
 C    2.595602    2.206697   -0.394751
 C    1.452582    3.175037   -0.093895
 O    1.875794    4.422966   -0.098798
 O    0.309657    2.843472    0.091097
 H   -0.756287    0.955949   -0.706678
 H   -2.028654    1.965585   -0.244576
 H   -1.539853    0.653139    0.715826
 H   -2.839646    0.464648   -1.969965
 H   -4.983807    1.151385    1.021701
 H   -2.818441   -1.913024   -1.651642
 H   -1.157656   -1.295752   -1.640609
 H   -2.752334   -1.970826    0.885671
 H   -1.675371   -3.107807    0.066665
 H    0.605686   -2.740682    0.085892
 H    1.675831   -0.886342    2.073278
 H    2.929540   -2.954033    1.345270
 H    3.850207   -1.470636    0.987696
 H    3.969950   -3.387652   -0.919339
 H    3.111982    0.923276    1.202367
 H    3.547547    2.707865   -0.228075
 H    2.506407    1.940768   -1.455698
 H    1.162667    5.066000    0.053999
