66 
5g5z_ligand_dft.xyz
 C    1.497110   -0.371993    0.948411
 C   -0.673305    0.276053   -0.935720
 C   -1.750929   -2.581216   -1.039601
 C    2.740567   -0.288049    1.828776
 C    0.290409    1.301853   -0.336625
 C   -2.306279   -1.370879   -0.288068
 C    3.976798   -0.375129    0.952840
 C   -0.348790    2.193083    0.757222
 C   -3.049807   -1.758041    1.017165
 C    3.946786   -1.661045    0.137262
 C   -0.970787    3.312437   -0.090880
 C   -4.516946   -1.675866    0.608311
 C    2.627036   -1.753833   -0.646734
 C    0.043594    3.459061   -1.226024
 C   -4.510048   -0.601394   -0.497083
 C    2.415664   -3.119530   -1.286525
 C    1.155240    4.473037   -0.990370
 C   -4.811319    0.830586   -0.054407
 O    1.513169    0.737602    0.104373
 O   -1.254878   -0.511748    0.096669
 O   -0.752906   -3.237017   -0.303746
 O    2.683138    0.919074    2.553240
 O    0.656280    2.159542   -1.379575
 O   -3.234342   -0.717159   -1.116088
 O    5.096264   -0.315539    1.812023
 O    0.597511    2.760884    1.615965
 O   -2.814936   -0.825326    2.057623
 O    5.071618   -1.621160   -0.707740
 O   -2.202465    2.942123   -0.659034
 O   -4.864884   -2.947966    0.103367
 O    1.511795   -1.587451    0.231603
 O    2.125779    4.386292   -2.009231
 O   -3.910446    1.387184    0.875721
 O    3.520466   -3.366496   -2.143291
 H    0.591535   -0.409299    1.556673
 H   -1.456021    0.826574   -1.457918
 H   -0.115372   -0.348925   -1.643085
 H   -2.569512   -3.287543   -1.198035
 H   -1.399684   -2.245662   -2.027874
 H    2.728185   -1.146656    2.515331
 H    3.979624    0.474561    0.255868
 H   -1.121755    1.647696    1.316269
 H   -2.779911   -2.767342    1.338519
 H    4.000249   -2.515056    0.834346
 H   -1.051044    4.228129    0.511303
 H   -5.143160   -1.395666    1.466279
 H    2.618840   -0.972695   -1.416504
 H   -0.471679    3.679540   -2.164891
 H   -5.260769   -0.855601   -1.257159
 H    2.346871   -3.874281   -0.490521
 H    1.467400   -3.126577   -1.838399
 H    1.590612    4.310878    0.004401
 H    0.739478    5.485041   -1.025034
 H   -5.840142    0.849926    0.339773
 H   -4.780765    1.474832   -0.937792
 H   -0.070453   -2.581530   -0.074563
 H    3.584341    1.116246    2.844914
 H    5.879477   -0.403903    1.252550
 H    1.340354    2.147005    1.758388
 H   -1.913932   -0.495240    1.907604
 H    4.979272   -2.356733   -1.333912
 H   -2.759254    2.516291    0.021743
 H   -5.766141   -2.907867   -0.237221
 H    2.384620    3.454869   -2.037399
 H   -3.632349    0.699863    1.511832
 H    3.441797   -4.258395   -2.498217
