108 
5g61_ligand_ani.xyz
 C   -4.044942    1.530091   -2.749887
 C   -2.863900    1.879961   -1.863264
 C   -2.458494    3.359872   -1.923195
 C   -1.284878    3.611864   -0.967159
 C   -1.660955    3.130796    0.442405
 C   -2.069539    1.662106    0.361581
 O   -3.169496    1.500627   -0.514176
 O   -2.417126    1.243806    1.658166
 C   -2.412611   -0.146818    1.961679
 C   -3.263938   -0.265358    3.240889
 C   -4.684949   -0.276569    2.669712
 C   -4.488009   -1.130736    1.404663
 O   -3.123431   -0.893144    0.992354
 C   -5.464769   -0.818483    0.277353
 O   -5.538851   -1.869283   -0.657269
 O   -5.161115    1.020470    2.404442
 O   -2.963044   -1.507589    3.838917
 C   -0.968900   -0.651387    2.113729
 O   -0.900234   -2.029946    1.815639
 C   -0.082568   -2.469619    0.749822
 C   -0.490837   -3.934378    0.479592
 C   -1.483783   -3.807590   -0.675542
 C   -0.892971   -2.654639   -1.470479
 O   -0.378925   -1.755160   -0.450122
 C   -1.872448   -1.943619   -2.390268
 O   -2.969942   -1.383439   -1.695012
 O   -1.575234   -4.943884   -1.497274
 O   -0.981089   -4.595089    1.608737
 C    1.396156   -2.351120    1.136009
 O    2.206491   -2.757482    0.043375
 C    3.086005   -1.801714   -0.512364
 C    3.538826   -2.332053   -1.896414
 C    3.666655   -1.074988   -2.757797
 C    2.601385   -0.149020   -2.159323
 O    2.390401   -0.601550   -0.802822
 C    1.284218   -0.176166   -2.920016
 O    0.248740    0.417415   -2.167228
 O    4.923930   -0.430791   -2.643711
 O    2.531014   -3.129206   -2.470690
 C    4.262000   -1.572021    0.448510
 O    4.990944   -0.409427    0.102743
 C    4.925581    0.667229    0.999154
 C    5.374501    1.948081    0.263710
 C    4.572229    3.042625    0.966580
 C    3.269138    2.318457    1.336395
 O    3.586183    0.916873    1.389010
 C    2.161514    2.529726    0.310257
 O    1.169825    1.540684    0.452433
 O    5.303020    3.453358    2.107950
 O    4.976256    1.927538   -1.081815
 C    5.768364    0.389692    2.249745
 O    5.075058   -0.447562    3.149514
 O   -2.680108    3.912605    1.008937
 O   -0.917035    4.966099   -0.960443
 O   -3.513782    4.215233   -1.500568
 O   -5.174540    2.326433   -2.392140
 H   -4.262450    0.463197   -2.626797
 H   -3.757508    1.722039   -3.793916
 H   -2.002126    1.283751   -2.203582
 H   -2.163622    3.626264   -2.951549
 H   -0.412605    3.045110   -1.319164
 H   -0.779673    3.227499    1.086872
 H   -1.215036    1.084097   -0.017812
 H   -3.088845    0.584199    3.915657
 H   -5.394994   -0.750975    3.356454
 H   -4.561389   -2.199664    1.661630
 H   -5.186395    0.136265   -0.186752
 H   -6.467319   -0.705280    0.706992
 H   -4.729426   -1.830225   -1.198569
 H   -4.432276    1.521867    2.003460
 H   -3.273761   -1.484993    4.752115
 H   -0.635040   -0.508774    3.150076
 H   -0.302408   -0.057584    1.475548
 H    0.379377   -4.493292    0.105613
 H   -2.466224   -3.509636   -0.274246
 H   -0.032464   -3.024694   -2.050685
 H   -1.341991   -1.160417   -2.946877
 H   -2.271060   -2.665258   -3.111991
 H   -2.681850   -1.020361   -0.835504
 H   -1.991796   -5.642581   -0.976465
 H   -1.383569   -3.901256    2.155282
 H    1.592984   -3.013768    1.987854
 H    1.610275   -1.320409    1.448837
 H    4.488826   -2.887824   -1.826334
 H    3.459927   -1.314184   -3.808249
 H    2.985642    0.875276   -2.093879
 H    1.393159    0.384898   -3.855528
 H    1.041032   -1.217647   -3.174546
 H    0.063733   -0.202075   -1.434742
 H    5.622441   -1.097659   -2.594850
 H    2.169033   -3.661627   -1.745685
 H    3.889771   -1.522167    1.477349
 H    4.943033   -2.431464    0.395258
 H    6.456597    2.117851    0.370969
 H    4.405057    3.883666    0.281061
 H    2.919846    2.605079    2.336670
 H    1.693702    3.513720    0.454080
 H    2.596126    2.512829   -0.700505
 H    1.557658    0.703632    0.127900
 H    4.741854    4.034795    2.636899
 H    5.158905    1.038911   -1.442872
 H    6.045505    1.340834    2.723146
 H    6.680360   -0.133510    1.947988
 H    4.195190   -0.053200    3.247495
 H   -3.346168    4.015716    0.304483
 H   -1.726093    5.443990   -0.718984
 H   -4.353260    3.816692   -1.805741
 H   -5.842457    2.242303   -3.081911
