33 
5g6u_ligand_dft.xyz
 C   -1.094991   -1.418730    0.021749
 C   -1.701524   -0.016647    0.128950
 C   -0.683233    1.026510   -0.318546
 C    0.629032    0.863056    0.435819
 C    1.137054   -0.572961    0.284658
 C    2.310018   -0.949751    1.192032
 N   -2.903987    0.134464   -0.688087
 O   -1.126065    2.340088   -0.067100
 O    1.565966    1.782977   -0.104511
 O    0.121241   -1.479348    0.713803
 O    3.425490   -0.059266    1.122367
 S   -4.379285   -0.123421    0.005423
 O   -5.312821   -0.311025   -1.074836
 O   -4.318630   -1.051441    1.118466
 O   -4.562285    1.345931    0.662547
 S    4.387719   -0.107933   -0.184043
 O    5.748582   -0.204289    0.255695
 O    3.831066   -1.069399   -1.111141
 O    4.158730    1.371598   -0.697076
 O   -0.960805   -1.684501   -1.347719
 H   -1.737697   -2.155040    0.515441
 H   -1.960639    0.172037    1.173822
 H   -0.475014    0.882529   -1.389524
 H    0.460371    1.081477    1.500456
 H    1.394179   -0.754876   -0.764413
 H    1.988402   -0.891727    2.233731
 H    2.616546   -1.974028    0.969088
 H   -2.850033   -0.344110   -1.584542
 H   -1.990058    2.444219   -0.490189
 H    1.112601    2.635697   -0.175073
 H   -5.037991    1.230627    1.501595
 H    3.197211    1.591920   -0.590180
 H   -0.666798   -2.597784   -1.457605
