33 
5g6u_ligand_ani.xyz
 C   -1.100872   -1.334393    0.029534
 C   -1.694547    0.070311    0.161671
 C   -0.661607    1.098116   -0.280636
 C    0.630899    0.935576    0.501476
 C    1.122883   -0.506887    0.364454
 C    2.287296   -0.880693    1.276290
 N   -2.898484    0.265581   -0.655070
 O   -1.125172    2.414443   -0.063440
 O    1.598271    1.828436   -0.030815
 O    0.095976   -1.420017    0.763733
 O    3.456645   -0.046781    1.110033
 S   -4.356896   -0.191199   -0.028994
 O   -5.286284   -0.334009   -1.122163
 O   -4.222114   -1.242366    0.956920
 O   -4.653409    1.193862    0.754927
 S    4.343596   -0.172335   -0.218726
 O    5.703010   -0.439165    0.154119
 O    3.652919   -1.032264   -1.156220
 O    4.289636    1.334343   -0.706197
 O   -0.884038   -1.586365   -1.339974
 H   -1.780899   -2.077469    0.455282
 H   -1.960058    0.249394    1.205029
 H   -0.436730    0.939015   -1.347739
 H    0.453323    1.154683    1.564765
 H    1.396096   -0.678814   -0.684214
 H    2.003839   -0.736290    2.319340
 H    2.557943   -1.928071    1.119631
 H   -2.794533   -0.107783   -1.597550
 H   -2.029562    2.441309   -0.412337
 H    1.172330    2.701495   -0.051205
 H   -5.530523    1.147216    1.170199
 H    3.346139    1.622500   -0.671760
 H   -0.403007   -2.422849   -1.404551
