42 
5ggl_ligand_xtb.xyz
 C   -0.940901    0.333704   -0.784757
 C   -2.304697    0.944837   -0.409079
 C   -2.943430    0.078079    0.675737
 C   -3.048607   -1.371353    0.181115
 C   -1.656041   -1.863280   -0.239745
 C   -1.705542   -3.242447   -0.902372
 N   -2.174174    2.295128    0.083080
 O   -0.109085    0.465243    0.344227
 O   -3.592826   -2.127577    1.232905
 O   -1.075085   -0.995265   -1.200474
 O   -2.181736   -4.186427    0.033767
 O   -0.814300    3.093444   -1.534750
 O    5.864928   -0.851410   -0.836987
 N    5.376287   -0.380084    0.169838
 O    6.006081   -0.085416    1.165406
 C    3.959097   -0.160841    0.186315
 C    3.354591    0.355418    1.330322
 C    1.995058    0.556057    1.342857
 C    3.200686   -0.472907   -0.935762
 C    1.835618   -0.274794   -0.923373
 C    1.223131    0.245857    0.216733
 C   -1.475919    3.276881   -0.535131
 C   -1.589931    4.615256    0.161368
 O   -4.206367    0.601689    0.998849
 H   -0.517884    0.873439   -1.641337
 H   -2.935888    0.921701   -1.309653
 H   -2.294358    0.088636    1.566742
 H   -3.717880   -1.397501   -0.696541
 H   -1.024003   -1.919663    0.659653
 H   -2.365121   -3.189836   -1.778316
 H   -0.694212   -3.494056   -1.241850
 H   -2.792277    2.523383    0.846214
 H   -3.361640   -3.056563    1.085561
 H   -2.140447   -5.065592   -0.356751
 H    3.965441    0.590003    2.188434
 H    1.497756    0.955306    2.211871
 H    3.694276   -0.873920   -1.807789
 H    1.247918   -0.536669   -1.787483
 H   -0.977653    5.343602   -0.361618
 H   -2.625262    4.948169    0.158662
 H   -1.251404    4.530721    1.190983
 H   -4.673690   -0.083518    1.493875
