76 
5ggp_ligand_xtb.xyz
 N   -0.829575   -2.045690    0.375332
 C   -2.015728   -1.794531   -0.465565
 C   -3.098867   -1.300344    0.509294
 O   -3.186694   -1.878452    1.581921
 C   -2.458338   -3.126261   -1.108538
 O   -1.272280   -3.709918   -1.605565
 C   -3.498898   -2.895314   -2.197416
 N   -3.879195   -0.277896    0.153803
 C   -3.647569    0.664259   -0.927216
 C   -2.335229    1.451963   -0.763214
 O   -1.786813    1.976950   -1.706092
 C   -4.842790    1.625726   -0.838069
 C   -5.182005    1.623849    0.650414
 C   -4.953977    0.168807    1.039838
 N   -1.877523    1.560358    0.503442
 C   -0.545957    2.083594    0.735219
 C    0.408183    1.379136   -0.233365
 O    0.236327    0.170000   -0.450555
 C   -0.128639    1.760095    2.182734
 O   -0.343633    0.368993    2.358239
 C   -0.915236    2.590248    3.191946
 N    1.408830    2.048872   -0.772822
 C    2.253690    1.446286   -1.807461
 C    3.379873    0.564223   -1.209666
 O    4.552153    0.778301   -1.407332
 C    2.832376    2.645834   -2.548674
 C    2.951445    3.689771   -1.442407
 C    1.675069    3.473500   -0.632787
 N    2.903042   -0.454063   -0.470390
 C    3.737690   -1.478268    0.106722
 C    3.015601   -2.806359    0.014198
 O    1.812305   -2.919961   -0.062824
 C    4.077985   -1.204172    1.599267
 C    2.814940   -1.167419    2.457458
 C    4.850028    0.104924    1.724610
 O    3.840989   -3.832913    0.080079
 H   -1.162403   -2.373995    1.294079
 H   -0.197923   -2.731542   -0.073630
 H   -0.303811   -1.136362    0.440914
 H   -1.741188   -1.077704   -1.239579
 H   -2.884298   -3.768149   -0.319426
 H   -1.493222   -4.428198   -2.206517
 H   -3.081390   -2.279817   -2.991339
 H   -3.811087   -3.845271   -2.625452
 H   -4.376759   -2.406959   -1.784268
 H   -3.613678    0.174221   -1.903689
 H   -4.592377    2.612611   -1.220400
 H   -5.677500    1.230802   -1.416755
 H   -6.203051    1.942289    0.841741
 H   -4.505214    2.283159    1.194358
 H   -5.843974   -0.437551    0.848107
 H   -4.663459    0.022738    2.081478
 H   -2.240439    0.959465    1.228137
 H   -0.543439    3.163255    0.568624
 H    0.945326    1.982564    2.289169
 H   -0.212808    0.151993    3.288248
 H   -0.606194    2.339087    4.204572
 H   -0.731359    3.648360    3.032454
 H   -1.982130    2.402612    3.099047
 H    1.631228    0.804433   -2.439679
 H    3.797325    2.400587   -2.985946
 H    2.148816    2.979496   -3.328268
 H    3.830160    3.476630   -0.834113
 H    3.025536    4.704184   -1.824582
 H    0.844871    4.043389   -1.063305
 H    1.795241    3.746202    0.417780
 H    1.901591   -0.618561   -0.448620
 H    4.677352   -1.527203   -0.453630
 H    4.717951   -2.026182    1.933279
 H    3.076600   -0.911578    3.481097
 H    2.312541   -2.131986    2.466623
 H    2.122187   -0.420221    2.077502
 H    4.217624    0.949462    1.461101
 H    5.712140    0.110506    1.064371
 H    5.194181    0.237184    2.747108
 H    3.377244   -4.686307    0.046948
