89 
5gic_ligand_ani.xyz
 O    5.897975    3.473214    0.744002
 C    5.091191    2.708838    0.236760
 C    4.523883    2.881941   -1.170815
 O    4.134354    4.221281   -1.371712
 C    5.573077    2.468145   -2.203670
 C    3.313356    1.945830   -1.135926
 C    3.692903    0.855831   -0.123733
 N    4.560719    1.597962    0.799595
 C    5.126044    1.064413    2.023053
 C    6.449787    0.303613    1.825534
 C    6.326302   -0.876048    0.885488
 C    6.948860   -0.874025   -0.365037
 C    6.768435   -1.926700   -1.259608
 C    5.959807   -3.005106   -0.913011
 C    5.343055   -3.027447    0.335090
 C    5.531732   -1.975470    1.226428
 C    2.519758    0.188000    0.589541
 C    1.447059   -0.423306   -0.340510
 C    2.065158   -1.482508   -1.261050
 C    0.285281   -0.973337    0.511070
 C   -0.896902   -1.678675   -0.206145
 C   -1.354380   -0.888082   -1.438108
 C   -1.980188   -1.633600    0.913736
 C   -1.896231   -0.201175    1.446728
 C   -0.390895    0.133945    1.369085
 C   -0.656774   -3.156880   -0.546867
 C   -1.951415   -3.893079   -0.925006
 C   -3.045140   -3.728234    0.140918
 C   -3.263110   -2.271835    0.481402
 C   -4.476727   -1.695883    0.298780
 C   -4.983232   -0.490477    0.909975
 C   -6.135788    0.138167    0.519079
 C   -6.732726    1.180142    1.353762
 C   -6.614395    1.215988    2.686075
 C   -7.482404    2.296314    0.631118
 O   -6.571620    3.169609   -0.030975
 C   -8.386648    1.723418   -0.444646
 C   -7.564777    0.912393   -1.442171
 O   -8.387835    0.335009   -2.446478
 C   -6.860982   -0.247148   -0.743615
 H    4.826594    4.759583   -0.958935
 H    6.483041    3.060526   -2.064452
 H    5.185181    2.652020   -3.209483
 H    5.828898    1.405997   -2.109923
 H    2.459058    2.529150   -0.772800
 H    3.062744    1.544337   -2.123527
 H    4.294625    0.083658   -0.626807
 H    5.290891    1.914274    2.690224
 H    4.382973    0.414381    2.494361
 H    7.203052    1.007459    1.453114
 H    6.790442   -0.033925    2.813376
 H    7.584892   -0.033751   -0.640428
 H    7.259300   -1.904008   -2.229417
 H    5.811345   -3.825042   -1.610520
 H    4.700888   -3.861028    0.612036
 H    5.048912   -2.008772    2.201755
 H    2.919861   -0.617161    1.222863
 H    2.073502    0.933973    1.260742
 H    1.036469    0.384095   -0.968214
 H    1.371217   -1.811510   -2.038640
 H    2.948479   -1.100558   -1.782255
 H    2.377463   -2.366087   -0.688053
 H    0.713581   -1.724007    1.196348
 H   -0.632345   -0.973009   -2.256514
 H   -2.317999   -1.248386   -1.807794
 H   -1.473667    0.177968   -1.215279
 H   -1.572800   -2.286214    1.702827
 H   -2.463371    0.486960    0.810931
 H   -2.289623   -0.114321    2.466086
 H   -0.239507    1.122738    0.917792
 H    0.065690    0.170949    2.365138
 H    0.066465   -3.261397   -1.361869
 H   -0.212080   -3.647771    0.332455
 H   -2.323447   -3.511348   -1.885415
 H   -1.739624   -4.957679   -1.081103
 H   -2.729153   -4.257818    1.052088
 H   -3.980031   -4.200791   -0.184568
 H   -5.182628   -2.243080   -0.330472
 H   -4.407982   -0.078941    1.732310
 H   -6.060574    0.456370    3.233622
 H   -7.082937    2.002211    3.271505
 H   -8.071684    2.856174    1.372394
 H   -5.849580    3.367754    0.579758
 H   -9.153450    1.081098    0.006855
 H   -8.896393    2.548757   -0.957681
 H   -6.809881    1.576673   -1.888282
 H   -8.763183    1.055585   -2.968154
 H   -6.169860   -0.713791   -1.455029
 H   -7.629636   -0.998716   -0.511047
