95 
5gid_ligand_ani.xyz
 O   -5.237435   -2.297729    1.020713
 C   -4.367156   -1.660529    0.441460
 C   -3.829374   -2.038427   -0.939422
 O   -3.536287   -3.416705   -0.990713
 C   -4.863134   -1.667756   -2.006012
 C   -2.551108   -1.198248   -1.019284
 C   -2.828999    0.024599   -0.130435
 N   -3.744366   -0.538518    0.869739
 C   -4.207958    0.218980    2.019403
 C   -5.014214    1.474451    1.665257
 C   -6.269291    1.216877    0.823253
 C   -7.318715    0.314658    1.490049
 C   -8.430168   -0.059379    0.537751
 C   -8.386894   -1.279335   -0.140328
 C   -9.382365   -1.620228   -1.053689
 C  -10.431639   -0.740353   -1.301520
 C  -10.480531    0.480388   -0.634775
 C   -9.483880    0.817439    0.275966
 C   -1.598375    0.652926    0.522704
 C   -0.482970    1.104496   -0.444814
 C   -0.967849    2.253392   -1.339114
 C    0.775117    1.477178    0.363680
 C    2.021089    2.002132   -0.395681
 C    2.331341    1.132664   -1.620021
 C    3.113810    1.828199    0.702196
 C    2.852994    0.427804    1.263740
 C    1.316552    0.281537    1.196980
 C    1.981908    3.491402   -0.766874
 C    3.357886    4.025492   -1.194863
 C    4.446564    3.731625   -0.152648
 C    4.462617    2.271001    0.233939
 C    5.585535    1.526641    0.077707
 C    5.962660    0.339101    0.803521
 C    7.054014   -0.426949    0.482577
 C    7.762910   -0.256969   -0.837030
 C    8.402339   -1.543915   -1.373608
 O    9.314892   -1.257965   -2.424850
 C    9.192980   -2.245161   -0.283295
 C    8.282824   -2.625141    0.869085
 O    7.318899   -3.531910    0.342672
 C    7.602269   -1.382706    1.440914
 C    7.505863   -1.234189    2.767538
 H   -4.261789   -3.857246   -0.524521
 H   -4.527320   -2.029898   -2.981411
 H   -5.012183   -0.583107   -2.061686
 H   -5.825499   -2.136901   -1.771740
 H   -2.285904   -0.931529   -2.047462
 H   -1.736730   -1.798843   -0.597965
 H   -3.362912    0.788913   -0.725326
 H   -3.336550    0.499970    2.621947
 H   -4.799702   -0.470776    2.627212
 H   -5.292303    1.970325    2.606213
 H   -4.360290    2.179699    1.132191
 H   -6.736306    2.179155    0.577067
 H   -5.982562    0.772309   -0.139577
 H   -7.731145    0.822897    2.371938
 H   -6.853356   -0.612348    1.841456
 H   -7.564961   -1.966063    0.056764
 H   -9.342052   -2.576082   -1.571238
 H  -11.209429   -1.005342   -2.013329
 H  -11.297101    1.172852   -0.824536
 H   -9.523530    1.776836    0.790230
 H   -1.918472    1.529688    1.105544
 H   -1.212051   -0.078339    1.245229
 H   -0.216917    0.250381   -1.088478
 H   -0.302467    2.423549   -2.190071
 H   -1.038125    3.187805   -0.767106
 H   -1.960941    2.053161   -1.754897
 H    0.487203    2.279810    1.063292
 H    1.611311    1.311033   -2.425432
 H    3.329408    1.341553   -2.014212
 H    2.297932    0.064130   -1.380672
 H    2.816719    2.544656    1.485449
 H    3.231942    0.315047    2.285821
 H    3.335026   -0.335566    0.643780
 H    0.868343    0.279925    2.197529
 H    1.037978   -0.670879    0.727286
 H    1.635470    4.060822    0.109385
 H    1.262156    3.679765   -1.569728
 H    3.295816    5.105491   -1.374806
 H    3.644778    3.572237   -2.153287
 H    4.239350    4.328353    0.748451
 H    5.430111    4.052745   -0.517168
 H    6.335873    1.919050   -0.612747
 H    5.353245    0.066794    1.658537
 H    7.060748    0.135976   -1.583859
 H    8.566945    0.487266   -0.727808
 H    7.608764   -2.223384   -1.717576
 H    8.804546   -0.964365   -3.189813
 H    9.992929   -1.581814    0.070429
 H    9.662472   -3.142710   -0.699327
 H    8.858074   -3.108096    1.673116
 H    6.605264   -3.619396    0.988023
 H    7.009076   -0.375759    3.214245
 H    7.939186   -1.961819    3.448049
