81 
5gmi_ligand_ani.xyz
 N   -1.934272    2.930049    0.683148
 C   -0.628953    3.647214    0.698510
 C    0.240119    3.182216   -0.469149
 O   -0.265413    2.963670   -1.568931
 C   -0.022637    3.432619    2.080916
 O   -1.097718    3.662951    2.982049
 N    1.579697    3.044975   -0.270330
 C    2.269900    2.004716   -1.003295
 C    1.982870    0.648942   -0.324232
 O    1.758595    0.576701    0.884993
 C    3.767368    2.288075   -1.025575
 O    4.197548    2.439991    0.321113
 N    2.000507   -0.427912   -1.140522
 C    1.884018   -1.820021   -0.699700
 C    0.435278   -2.147182   -0.298192
 O   -0.272378   -2.858450   -1.011360
 C    2.923354   -2.180752    0.387894
 C    4.338959   -1.875745   -0.047875
 C    5.037343   -2.746423   -0.884857
 C    4.955496   -0.687492    0.353670
 C    6.328465   -2.443792   -1.307950
 C    6.245875   -0.382210   -0.067342
 C    6.936740   -1.261658   -0.898065
 N    0.005003   -1.620183    0.871157
 C   -1.355079   -1.850269    1.336598
 C   -2.288031   -0.868425    0.602348
 O   -2.600831    0.224076    1.074926
 C   -1.467179   -1.744793    2.861515
 C   -2.901178   -2.036183    3.308364
 C   -0.486363   -2.693506    3.552015
 N   -2.722761   -1.310282   -0.604020
 C   -3.586098   -0.506840   -1.465378
 C   -2.944778    0.872641   -1.675185
 O   -3.485994    1.934029   -1.426346
 C   -5.040312   -0.394474   -0.975691
 C   -5.596562   -1.739132   -0.483861
 C   -5.919573    0.214157   -2.070388
 C   -5.607949   -2.854664   -1.527945
 O   -1.723262    0.767991   -2.173647
 H   -2.488584    3.299294    1.471810
 H   -1.834773    1.904516    0.826843
 H   -2.437038    3.064091   -0.207448
 H   -0.817751    4.712594    0.549183
 H    0.799976    4.136185    2.273659
 H    0.353023    2.401391    2.159523
 H   -0.838394    3.358629    3.859618
 H    1.944054    3.154948    0.667206
 H    1.882890    2.000604   -2.026186
 H    4.296001    1.459010   -1.520065
 H    3.942850    3.208584   -1.599794
 H    5.162254    2.441552    0.326977
 H    2.165603   -0.268124   -2.122543
 H    2.066152   -2.428998   -1.585859
 H    2.702035   -1.617555    1.296790
 H    2.814970   -3.247044    0.620233
 H    4.567104   -3.675019   -1.205193
 H    4.408370    0.007696    0.985709
 H    6.861125   -3.134912   -1.956620
 H    6.717412    0.543858    0.256674
 H    7.945898   -1.026157   -1.225758
 H    0.533843   -0.840670    1.257814
 H   -1.625721   -2.865539    1.020573
 H   -1.219386   -0.710660    3.140897
 H   -3.198170   -3.051455    3.014772
 H   -3.609213   -1.329550    2.866225
 H   -2.984636   -1.965506    4.398123
 H   -0.676324   -3.732411    3.251909
 H    0.553708   -2.454317    3.308921
 H   -0.602301   -2.637844    4.639927
 H   -2.143871   -2.022070   -1.040774
 H   -3.567487   -0.995803   -2.447427
 H   -5.028460    0.288827   -0.122354
 H   -5.028862   -2.067339    0.394984
 H   -6.622609   -1.565764   -0.134912
 H   -5.897928   -0.394582   -2.983002
 H   -5.583598    1.220544   -2.325864
 H   -6.960899    0.273560   -1.733912
 H   -6.027694   -3.773229   -1.104888
 H   -4.596800   -3.089134   -1.878572
 H   -6.213843   -2.587754   -2.401031
 H   -1.301084    1.659243   -2.147477
