45 
5gmu_ligand_xtb.xyz
 C    2.210152   -0.249235   -0.711073
 C    2.663737   -1.415706   -0.125098
 O    1.898398   -2.541732    0.006543
 C    3.975901   -1.483372    0.367366
 O    4.432029   -2.633896    0.930633
 C    4.793940   -0.371293    0.273624
 C    4.318349    0.798847   -0.293800
 C    3.028470    0.872649   -0.793667
 C    2.490155    2.161408   -1.354436
 C    1.837280    3.003991   -0.238815
 C    0.770886    2.174405    0.424958
 O    0.834737    1.697835    1.526651
 O   -0.277187    1.986514   -0.396231
 C   -1.205393    0.971986   -0.005994
 C   -1.905690    0.455530   -1.256517
 C   -2.883817   -0.662458   -0.894382
 C   -2.126840   -1.891274   -0.369079
 O   -0.928230   -2.011628   -0.344936
 O   -2.956079   -2.873237   -0.036989
 O   -3.549221   -1.043360   -2.081870
 C   -3.885909   -0.172313    0.162170
 C   -3.162876    0.351413    1.399419
 O   -2.450939   -0.725064    1.966467
 C   -2.224341    1.506039    1.009716
 O   -3.002364    2.553882    0.489979
 H    1.204500   -0.223990   -1.106551
 H    0.978197   -2.346144   -0.227373
 H    3.703626   -3.270633    0.905885
 H    5.798405   -0.436197    0.659497
 H    4.964290    1.662322   -0.348095
 H    1.741634    1.955107   -2.121301
 H    3.296889    2.744086   -1.801563
 H    1.392275    3.901852   -0.668583
 H    2.579683    3.275522    0.511021
 H   -0.640278    0.168960    0.481323
 H   -1.173653    0.078385   -1.970570
 H   -2.466918    1.261091   -1.730316
 H   -2.463489   -3.638428    0.300920
 H   -4.201522   -1.720878   -1.865908
 H   -4.479361    0.634039   -0.267993
 H   -4.540418   -0.994807    0.453914
 H   -3.906374    0.738461    2.112468
 H   -1.876616   -0.396851    2.668905
 H   -1.676377    1.848256    1.904603
 H   -2.407668    3.181643    0.061396
