60 
5gsw_ligand_xtb.xyz
 C    0.683231   -1.100704   -1.452729
 C    1.926843   -1.903009   -1.875894
 C    0.051229   -1.664357   -0.165396
 C    2.319982    5.534871    0.335844
 C    3.060540   -1.741314   -0.900762
 C    3.210970   -2.609498    0.173705
 C    3.959468   -0.688326   -1.050106
 C    4.222514   -2.423801    1.097028
 C    5.088458   -1.357001    0.933929
 C    4.978608   -0.487476   -0.136172
 C    0.060603    1.192603   -1.067477
 C    0.452623    2.525906   -0.585616
 C   -4.031422    2.209219    0.274840
 C    1.719972    3.153984   -0.540528
 C   -2.917979   -3.810225    0.293877
 C    1.456267    4.378608    0.017771
 C   -3.128672    2.088985    1.493004
 C   -1.888039   -2.811686    0.766823
 C   -2.696709   -1.755563    1.601644
 C   -2.775584   -0.355154    0.985283
 C   -3.774003   -0.221543   -0.182128
 C   -3.171436    0.670776    2.055498
 F    6.068149   -1.162104    1.831735
 N    1.028957    0.282390   -1.185853
 N   -0.468899    3.323530   -0.085482
 N   -3.643900    1.173980   -0.699117
 N   -1.148796   -2.259971   -0.345517
 O    0.145682    4.455909    0.288264
 O   -3.602155   -3.650770   -0.682902
 O    0.580713   -1.551379    0.917241
 O   -1.112094    0.921104   -1.344933
 O   -3.538235   -1.002737   -1.301453
 H   -0.057169   -1.107488   -2.259549
 H    2.235394   -1.553428   -2.862952
 H    1.642555   -2.952815   -1.957033
 H    2.065422    5.932017    1.315938
 H    3.364297    5.239582    0.317677
 H    2.164498    6.328027   -0.395048
 H    2.533947   -3.441203    0.290359
 H    3.887658   -0.037124   -1.911292
 H    4.348403   -3.091070    1.934054
 H    5.685567    0.319352   -0.247545
 H   -3.917116    3.190157   -0.187012
 H   -5.079548    2.063470    0.549619
 H    2.662838    2.780590   -0.877847
 H   -3.060660   -4.676996    0.956044
 H   -2.109819    2.349867    1.200667
 H   -3.452898    2.799258    2.251983
 H   -1.162277   -3.290085    1.429950
 H   -2.201448   -1.656329    2.566528
 H   -3.704294   -2.136562    1.787937
 H   -1.785838   -0.091827    0.608094
 H   -4.804262   -0.357250    0.192534
 H   -4.172725    0.444683    2.428847
 H   -2.480818    0.599250    2.894742
 H    1.959769    0.450419   -0.825054
 H   -4.179531    1.234234   -1.569657
 H   -2.612479    1.273066   -0.970312
 H   -1.634782   -2.174066   -1.227471
 H   -3.755654   -1.947087   -1.152405
