64 
5gty_ligand_xtb.xyz
 C    2.370522   -1.835652    0.798670
 C    0.974100   -2.019804    0.952349
 C    0.572551   -3.359610    1.139996
 N    1.484876   -4.327658    1.059286
 N    3.281378   -2.810480    0.730793
 C    2.753442   -4.009299    0.846000
 C   -6.949640   -1.708538   -3.300232
 C   -5.315931    1.649368   -2.738241
 C   -5.844417    0.554365   -3.396939
 C   -5.328511    1.670083   -1.352543
 C   -1.968020   -0.942287    0.453561
 C   -3.276003   -0.501729    0.553863
 C   -1.222659    0.927589    1.756871
 C    5.358957    1.963729    1.447123
 C    7.142097   -0.183443   -3.582666
 C    5.915936    0.065594   -2.712914
 C    4.068065    1.189284    1.695890
 C    5.332265    2.600045    0.058422
 C   -5.915785    0.525606    0.820074
 C    3.881583    0.876564   -0.785598
 C    6.160636    1.226183   -1.759773
 C   -6.365486   -0.497048   -2.644984
 C   -2.525134    1.362447    1.857266
 C   -5.864838    0.575765   -0.688312
 C   -0.928991   -0.245607    1.062072
 C   -3.581445    0.653254    1.266144
 C    0.452746   -0.692619    0.960511
 C    3.850573    0.163478    0.581298
 N   -0.699464   -3.735652    1.387025
 N   -6.362035   -0.479093   -1.319760
 N    1.440028    0.174887    0.844828
 N    5.125550    1.579740   -0.951159
 N    2.590387   -0.507226    0.749758
 O    7.213528    1.832294   -1.734572
 O   -4.823400    1.166262    1.442046
Cl   -2.890012    2.810396    2.722337
 H    3.439887   -4.843079    0.781991
 H   -7.300294   -2.400921   -2.540870
 H   -7.783573   -1.425074   -3.939901
 H   -6.202230   -2.201386   -3.919870
 H   -4.901897    2.478363   -3.293299
 H   -5.854867    0.505233   -4.475041
 H   -4.931399    2.504373   -0.796124
 H   -1.753668   -1.818360   -0.140402
 H   -4.056152   -1.057877    0.059345
 H   -0.423715    1.489443    2.211604
 H    6.212756    1.286514    1.509985
 H    5.481852    2.739017    2.203580
 H    6.963134   -1.013044   -4.262492
 H    8.001882   -0.414060   -2.959704
 H    7.377734    0.705817   -4.160850
 H    5.686577   -0.831339   -2.132664
 H    5.056239    0.299182   -3.345536
 H    4.106708    0.681163    2.661164
 H    3.214689    1.870602    1.702414
 H    6.279996    3.092789   -0.162294
 H    4.518560    3.330247   -0.006787
 H   -6.012137   -0.516928    1.147533
 H   -6.792798    1.079355    1.172022
 H    3.725212    0.152846   -1.583412
 H    3.056318    1.599405   -0.807924
 H    4.621246   -0.613981    0.613463
 H   -0.845361   -4.701328    1.627822
 H   -1.380232   -3.050098    1.663898
