90 
5gu4_ligand_dft.xyz
 N    2.050423   -1.339353   -2.107897
 C    1.542668   -2.672970   -2.536506
 C    0.011082   -2.714441   -2.525103
 O   -0.613137   -2.819497   -3.569281
 N   -0.564651   -2.643225   -1.299837
 C   -2.009505   -2.470177   -1.167347
 C   -2.252557   -0.978437   -1.402997
 O   -2.165887   -0.146876   -0.501765
 C   -2.492047   -2.955377    0.198151
 C   -3.973986   -2.729387    0.389311
 C   -4.901703   -3.449151   -0.367187
 C   -4.438972   -1.786094    1.305645
 C   -6.266257   -3.226857   -0.213752
 C   -5.803372   -1.563493    1.464307
 C   -6.720336   -2.281717    0.702631
 N   -2.421667   -0.619308   -2.697329
 C   -2.210122    0.768368   -3.042846
 C   -0.790562    1.174511   -2.646391
 O    0.167133    0.459803   -2.940494
 N   -0.646402    2.317955   -1.953448
 C    0.651838    2.730074   -1.454315
 C    1.155883    1.838634   -0.315712
 O    2.362529    1.710672   -0.117878
 C    0.617168    4.183983   -0.966032
 C    0.190194    5.216610   -2.021435
 C    0.246987    6.617899   -1.407038
 C    1.043267    5.138951   -3.289249
 N    0.230318    1.291657    0.501544
 C    0.635637    0.616443    1.718505
 C    1.622600   -0.492801    1.369207
 O    1.350342   -1.351229    0.513169
 C   -0.594455    0.055738    2.451112
 C   -1.505529    1.155594    2.948979
 C   -2.665570    1.497492    2.250542
 C   -1.178702    1.865723    4.106886
 C   -3.482961    2.530195    2.704674
 C   -1.992415    2.898725    4.558868
 C   -3.148277    3.233949    3.856905
 N    2.791022   -0.505963    2.019636
 C    3.894680   -1.308591    1.545437
 C    4.765843   -1.690107    2.730247
 O    5.561133   -2.717378    2.426634
 C    4.730598   -0.506752    0.499806
 C    5.352699   -1.398680   -0.543238
 O    6.646967   -1.608301   -0.358430
 O    4.734814   -1.893182   -1.472296
 O    4.762890   -1.100549    3.780442
 H    3.084138   -1.334302   -2.128924
 H    1.796907   -1.171644   -1.113878
 H    1.624702   -0.569531   -2.649839
 H    1.973250   -3.414712   -1.859972
 H    1.875117   -2.862808   -3.555605
 H   -0.006539   -2.356619   -0.498576
 H   -2.482537   -3.053949   -1.960673
 H   -2.247771   -4.020817    0.274330
 H   -1.932917   -2.439703    0.985710
 H   -4.556934   -4.199678   -1.075630
 H   -3.728918   -1.222115    1.904473
 H   -6.975325   -3.798032   -0.805001
 H   -6.148153   -0.830134    2.186972
 H   -7.785142   -2.111683    0.827410
 H   -2.211316   -1.321977   -3.398460
 H   -2.960399    1.391539   -2.549258
 H   -2.322072    0.882632   -4.123234
 H   -1.467903    2.833332   -1.671212
 H    1.381016    2.622528   -2.260131
 H    1.625387    4.424197   -0.608831
 H   -0.048375    4.248823   -0.093781
 H   -0.854448    5.019431   -2.303040
 H   -0.362762    6.684269   -0.499425
 H   -0.117994    7.368294   -2.114916
 H    1.277499    6.881648   -1.141163
 H    0.761795    5.931098   -3.989682
 H    0.921458    4.183965   -3.812013
 H    2.106658    5.265789   -3.052345
 H   -0.735295    1.200886    0.201904
 H    1.139631    1.345176    2.365442
 H   -0.242485   -0.554638    3.290314
 H   -1.129246   -0.600103    1.758465
 H   -2.933965    0.947640    1.352740
 H   -0.284713    1.600630    4.668094
 H   -4.388790    2.778599    2.159330
 H   -1.730245    3.435990    5.465087
 H   -3.788708    4.034640    4.213436
 H    3.012564    0.227939    2.680239
 H    3.477618   -2.205264    1.083475
 H    6.142823   -2.883253    3.187756
 H    5.498183    0.088440    1.000175
 H    4.048124    0.182309   -0.006722
 H    6.965608   -2.196026   -1.064915
