51 
5gx6_ligand_ani.xyz
 C    1.302448    1.222394   -0.255199
 C    2.347373    1.654314    0.762444
 C    3.686520    1.857893    0.071772
 C    3.986275    0.608173   -0.690129
 C    3.001708   -0.224955   -1.030893
 C    3.291529   -1.545336   -1.655923
 O    1.994324    2.884080    1.352404
 O    4.712846    2.124743    0.998188
 O    1.674061   -0.004314   -0.854344
 O    4.327072   -1.824644   -2.203243
 O    2.281770   -2.442107   -1.512663
 C   -3.538930    0.585110   -0.241719
 C   -2.258555    1.170011    0.365426
 C   -0.999537    0.587952   -0.299525
 C   -1.080830   -0.944947   -0.295923
 C   -2.411239   -1.404559   -0.879518
 C   -2.612111   -2.914585   -0.827297
 C   -1.918186    3.420026   -0.667934
 C   -2.074148    4.904976   -0.406077
 O   -4.630183    1.023844    0.502596
 N   -2.283061    2.615720    0.371558
 O    0.102413    1.078429    0.440219
 O   -1.062949   -1.416437    1.065145
 O   -3.501016   -0.828824   -0.170587
 O   -3.819502   -3.274868   -1.452797
 O   -1.520968    2.988714   -1.740068
 O    1.371880   -1.162743    1.529339
 O    0.508220   -3.307984    0.672538
 O   -0.105246   -2.615329    2.940113
 S    0.265415   -2.072767    1.668309
 H    1.177370    1.977192   -1.052186
 H    2.448702    0.848722    1.506309
 H    3.587939    2.706465   -0.629930
 H    5.007938    0.369629   -0.954340
 H    1.115086    2.760640    1.735055
 H    4.416021    2.881006    1.522933
 H    2.578036   -3.223569   -2.013080
 H   -3.633213    0.888159   -1.303043
 H   -2.245758    0.847752    1.411087
 H   -0.936291    0.932558   -1.335745
 H   -0.260152   -1.372334   -0.878883
 H   -2.470120   -1.086299   -1.935520
 H   -2.570151   -3.250873    0.218464
 H   -1.805722   -3.414770   -1.376184
 H   -1.390429    5.446221   -1.061905
 H   -1.868239    5.171658    0.635573
 H   -3.096232    5.217503   -0.648012
 H   -5.292233    0.326054    0.426595
 H   -2.711707    3.048579    1.174973
 H   -4.518659   -2.788696   -0.994972
 H    1.206926   -3.070639    0.027218
