80 
5h09_ligand_dft.xyz
 O    7.501834   -1.884685   -1.168007
 C   -1.764694    1.696033   -0.739861
 C   -2.118421    2.998389   -1.166117
 N   -1.169625    3.935327   -1.311944
 C    0.091209    3.607514   -1.022673
 N    0.563745    2.447312   -0.580239
 N   -0.225496    0.243420    0.006870
 C   -1.459675   -0.388772    0.011344
 C   -2.435039    0.455577   -0.440565
 N   -3.387064    3.361730   -1.451327
 C   -3.865595    0.127275   -0.585369
 C    1.034976   -0.340055    0.423988
 C    2.045482   -0.348276   -0.732755
 C    3.402486   -0.906826   -0.295066
 C    3.920410   -0.112403    0.900353
 C    2.950783   -0.175520    2.076560
 C    1.592665    0.391391    1.654129
 C   -4.581166   -0.441700    0.471216
 C   -5.925696   -0.772522    0.343327
 C   -6.581954   -0.517994   -0.860310
 C   -5.886198    0.048111   -1.929817
 C   -4.540945    0.356657   -1.792560
 O   -7.891069   -0.823320   -1.090904
 N    5.267151   -0.639013    1.344494
 C    6.652054   -1.893522   -0.173657
 C    6.402331   -0.487605    0.374567
 C    7.645948    0.098782    1.050958
 C    7.465123    1.507399    1.643721
 C    7.021743    2.530766    0.595003
 C    8.773797    1.940982    2.311033
 C   -8.729487   -1.064013   -0.018448
 C   -9.303720   -2.323202    0.096901
 C  -10.205555   -2.565775    1.129998
 C  -10.518037   -1.560261    2.040356
 C   -9.932259   -0.302264    1.912506
 C   -9.037487   -0.045610    0.879372
 O    6.106593   -2.865092    0.310629
 C    7.841461   -3.175570   -1.759866
 C    8.883081   -2.923345   -2.823517
 C   -0.405622    1.523461   -0.451652
 H    0.822800    4.400680   -1.160672
 H   -1.542599   -1.423078    0.316309
 H   -4.164254    2.762075   -1.223907
 H   -3.558743    4.335823   -1.646806
 H    0.814290   -1.378350    0.702696
 H    2.162093    0.677604   -1.096814
 H    1.650799   -0.947366   -1.558076
 H    4.101282   -0.858432   -1.137768
 H    3.311352   -1.964226   -0.011613
 H    4.093450    0.932430    0.618869
 H    2.841583   -1.220812    2.399486
 H    3.339095    0.394623    2.929856
 H    1.692034    1.454052    1.409356
 H    0.882797    0.309317    2.481917
 H   -4.079838   -0.616979    1.418896
 H   -6.461615   -1.214124    1.176039
 H   -6.411552    0.223466   -2.862550
 H   -4.000760    0.775241   -2.637660
 H    5.194618   -1.661566    1.507087
 H    5.513360   -0.196953    2.233730
 H    6.068495    0.162339   -0.436751
 H    7.989538   -0.596480    1.828961
 H    8.432020    0.126699    0.288848
 H    6.697818    1.474825    2.436053
 H    6.962407    3.528403    1.038716
 H    7.741714    2.575521   -0.230313
 H    6.035337    2.312784    0.168978
 H    9.094740    1.224567    3.074124
 H    8.656793    2.916454    2.791094
 H    9.574325    2.026728    1.567629
 H   -9.045871   -3.090694   -0.625066
 H  -10.663427   -3.545666    1.222702
 H  -11.221955   -1.753180    2.843577
 H  -10.180146    0.487086    2.615449
 H   -8.580170    0.931554    0.760232
 H    8.205080   -3.825243   -0.960504
 H    6.921961   -3.604198   -2.165713
 H    9.147926   -3.873313   -3.295852
 H    8.502159   -2.250389   -3.596072
 H    9.789220   -2.490511   -2.391773
