74 
5h0b_ligand_dft.xyz
 C    0.105892    1.016377   -0.018042
 C   -1.283089    1.193130   -0.020396
 C   -1.708085    2.523377   -0.252233
 N   -0.802445    3.481711   -0.499169
 C    0.489177    3.147989   -0.491577
 N    1.035142    1.960738   -0.251501
 N    0.369690   -0.294600    0.286555
 C   -0.840932   -0.942319    0.479832
 C   -1.884463   -0.077899    0.298630
 N   -3.005939    2.895817   -0.247496
 C   -3.313941   -0.418703    0.419543
 C    1.687194   -0.883252    0.429427
 C    2.477408   -0.785236   -0.884541
 C    3.898025   -1.337649   -0.733566
 C    4.606867   -0.611599    0.405162
 C    3.866246   -0.788462    1.726397
 C    2.446370   -0.230687    1.595346
 C   -3.786113   -1.123336    1.533815
 C   -5.124577   -1.463761    1.652439
 C   -6.026408   -1.095193    0.653878
 C   -5.579917   -0.396956   -0.468124
 C   -4.231815   -0.071975   -0.578225
 O   -7.318075   -1.494271    0.833019
 N    6.019900   -1.130817    0.559412
 C    7.518040   -2.103550   -1.058665
 C    6.996410   -0.773034   -0.524180
 C    8.094233    0.157208   -0.000448
 C    7.588147    1.523814    0.495609
 C    8.748193    2.285700    1.142824
 C    6.956349    2.349981   -0.628365
 C   -8.328450   -0.858691    0.136408
 C   -8.585831    0.494414    0.338863
 C   -9.651818    1.087998   -0.328438
 C  -10.456063    0.333997   -1.180816
 C  -10.189951   -1.019433   -1.366957
 C   -9.119482   -1.622705   -0.711542
 O    8.390576   -1.937051   -2.034812
 O    7.142227   -3.166070   -0.617104
 H    1.182129    3.959892   -0.701293
 H   -0.864420   -1.999371    0.707486
 H   -3.204746    3.882224   -0.312426
 H   -3.724174    2.271696    0.084257
 H    1.525807   -1.943217    0.663041
 H    2.515777    0.266851   -1.185353
 H    1.950536   -1.333519   -1.670416
 H    4.434263   -1.219046   -1.681796
 H    3.869890   -2.413583   -0.509698
 H    4.709217    0.454799    0.177706
 H    4.391870   -0.268751    2.537886
 H    3.833827   -1.857048    1.983685
 H    2.486189    0.849338    1.419676
 H    1.898545   -0.393529    2.527576
 H   -3.093708   -1.388690    2.327674
 H   -5.495297   -2.002371    2.517944
 H   -6.274793   -0.124961   -1.254920
 H   -3.883507    0.443880   -1.469322
 H    6.009935   -2.167223    0.592501
 H    6.388555   -0.810913    1.459682
 H    6.438564   -0.283049   -1.326267
 H    8.641924   -0.358832    0.800604
 H    8.809298    0.308953   -0.815751
 H    6.825465    1.366226    1.277120
 H    8.405978    3.248076    1.533366
 H    9.190000    1.723396    1.971925
 H    9.536846    2.483790    0.408295
 H    6.629668    3.321690   -0.247817
 H    6.077671    1.873174   -1.079025
 H    7.683724    2.532422   -1.427550
 H   -7.957963    1.065995    1.015191
 H   -9.860383    2.141995   -0.172746
 H  -11.291733    0.799897   -1.693056
 H  -10.816388   -1.612883   -2.025590
 H   -8.895169   -2.676102   -0.841098
 H    8.688656   -2.809281   -2.347268
