75 
5h0e_ligand_ani.xyz
 C    0.056390    1.378231   -0.280450
 C   -1.328408    1.552097   -0.459806
 C   -1.751177    2.890803   -0.630973
 N   -0.855198    3.880673   -0.683254
 C    0.431590    3.560582   -0.528875
 N    0.963555    2.360649   -0.320405
 N    0.298335    0.046008   -0.058060
 C   -0.905801   -0.609671   -0.101635
 C   -1.935786    0.249921   -0.365858
 N   -3.063786    3.231770   -0.787135
 C   -3.349618   -0.104158   -0.549474
 C    1.601952   -0.582741    0.154415
 C    2.522181   -0.407990   -1.059689
 C    3.869979   -1.092253   -0.838158
 C    4.548556   -0.596451    0.447672
 C    3.622552   -0.764710    1.654550
 C    2.277138   -0.073817    1.433549
 C   -3.978720   -0.986741    0.330908
 C   -5.322261   -1.306486    0.187879
 C   -6.041232   -0.761291   -0.874134
 C   -5.426307    0.089466   -1.784485
 C   -4.089559    0.420006   -1.615637
 O   -7.357579   -1.097403   -1.105082
 N    5.833480   -1.305724    0.679534
 C    7.321891   -2.289651   -0.920040
 C    6.967351   -0.954948   -0.222970
 C    8.142307   -0.313153    0.528984
 C    7.801081    0.996549    1.254983
 C    8.980645    1.425439    2.128172
 C    7.416068    2.122472    0.292128
 C   -8.247341   -0.956714   -0.058942
 C   -9.110483   -2.018677    0.188862
 C  -10.060502   -1.903966    1.197246
 C  -10.156578   -0.731684    1.943373
 C   -9.293552    0.326869    1.679183
 C   -8.329199    0.222389    0.679706
 O    6.617517   -3.266837   -0.699128
 N    8.396267   -2.321876   -1.743147
 H    1.130635    4.391167   -0.575300
 H   -0.935832   -1.685875    0.040275
 H   -3.246561    4.223256   -0.711458
 H   -3.755119    2.630333   -0.360995
 H    1.387163   -1.651215    0.277236
 H    2.018562   -0.808675   -1.943991
 H    2.665086    0.665725   -1.229774
 H    3.734649   -2.182993   -0.761406
 H    4.524949   -0.915367   -1.700302
 H    4.759294    0.478204    0.321506
 H    3.462364   -1.839460    1.830988
 H    4.111597   -0.359650    2.550144
 H    2.413123    1.010495    1.342120
 H    1.603373   -0.242477    2.278776
 H   -3.412253   -1.410747    1.157413
 H   -5.808854   -1.982186    0.885476
 H   -6.004256    0.480870   -2.613700
 H   -3.609920    1.087414   -2.326684
 H    6.142436   -1.175744    1.662895
 H    5.709457   -2.339319    0.496691
 H    6.603018   -0.255265   -0.981970
 H    8.533966   -1.040857    1.252681
 H    8.956512   -0.115131   -0.177912
 H    6.942107    0.812765    1.918111
 H    9.253709    0.643072    2.845219
 H    9.861683    1.635858    1.508989
 H    8.745110    2.334741    2.692278
 H    7.219422    3.049928    0.841814
 H    8.227614    2.322693   -0.419190
 H    6.515050    1.888302   -0.285798
 H   -9.021453   -2.917878   -0.414129
 H  -10.732655   -2.734628    1.397583
 H  -10.903377   -0.643688    2.728064
 H   -9.366528    1.244271    2.257948
 H   -7.651829    1.045859    0.468669
 H    8.569076   -3.167626   -2.266296
 H    8.871662   -1.481085   -2.027932
