78 
5h0g_ligand_ani.xyz
 N   -1.446125    3.497363   -1.091177
 C   -0.126569    3.311617   -1.012073
 N    0.530898    2.254756   -0.546404
 C   -0.274481    1.272296   -0.127102
 C   -1.680594    1.305242   -0.176613
 C   -2.238847    2.512474   -0.658282
 N    0.109776    0.075118    0.422102
 C   -1.027210   -0.636770    0.708706
 C   -2.153310    0.049469    0.347155
 C   -3.540889   -0.420342    0.445493
 C    1.479917   -0.388160    0.639290
 N   -3.585929    2.718882   -0.742533
 C    2.257487   -0.504292   -0.677070
 C    3.672998   -1.026431   -0.438291
 C    4.431026   -0.158506    0.577677
 C    3.644483   -0.029256    1.884221
 C    2.229920    0.497488    1.641389
 N    5.787140   -0.708286    0.840888
 C    6.789896   -0.565784   -0.253053
 C   -4.434376   -0.246938   -0.614883
 C   -5.759037   -0.651216   -0.513046
 C   -6.198627   -1.251225    0.663949
 C   -5.313597   -1.471284    1.716576
 C   -3.995760   -1.060863    1.602064
 O   -7.478006   -1.726383    0.826667
 C   -8.520914   -1.075295    0.200038
 C   -9.393265   -1.853396   -0.553928
 C  -10.487603   -1.252578   -1.165355
 C  -10.716716    0.112939   -1.014203
 C   -9.842302    0.877935   -0.247685
 C   -8.737812    0.291105    0.363086
 C    7.163681   -2.022566   -0.620697
 O    6.561839   -2.935297   -0.060569
 N    8.115607   -2.229788   -1.558051
 C    7.991452    0.300823    0.153185
 C    7.640120    1.735957    0.573142
 C    7.065506    2.559888   -0.581709
 C    8.878840    2.421628    1.149902
 C    8.542615   -3.558232   -1.949603
 H    0.485541    4.134328   -1.371443
 H   -0.942974   -1.628299    1.143512
 H    1.376920   -1.390732    1.072070
 H   -4.175699    2.228728   -0.084199
 H   -3.845988    3.678626   -0.925364
 H    2.291173    0.486685   -1.144791
 H    1.705375   -1.160666   -1.355698
 H    4.224386   -1.061748   -1.386166
 H    3.634564   -2.058289   -0.054409
 H    4.540480    0.847809    0.141212
 H    3.593291   -1.017274    2.366990
 H    4.182188    0.638155    2.570382
 H    2.263758    1.517670    1.240403
 H    1.658561    0.537938    2.573412
 H    5.731961   -1.756608    0.955620
 H    6.180310   -0.298705    1.710652
 H    6.295405   -0.106375   -1.115276
 H   -4.089197    0.215001   -1.535345
 H   -6.445504   -0.498865   -1.337884
 H   -5.676525   -1.968236    2.611184
 H   -3.309916   -1.222565    2.431531
 H   -9.198789   -2.917621   -0.649784
 H  -11.167701   -1.857137   -1.760369
 H  -11.574399    0.579611   -1.491079
 H  -10.016024    1.944291   -0.128733
 H   -8.038548    0.883758    0.947233
 H    8.597614   -1.435497   -1.946958
 H    8.696957    0.358511   -0.684597
 H    8.526170   -0.201132    0.971214
 H    6.879641    1.692086    1.367124
 H    6.123314    2.147818   -0.960193
 H    6.866748    3.588818   -0.261181
 H    7.773063    2.602873   -1.419651
 H    9.664481    2.501376    0.388017
 H    8.645657    3.434998    1.495203
 H    9.289036    1.860782    1.997270
 H    8.662869   -3.609986   -3.035915
 H    9.489481   -3.837679   -1.471158
 H    7.775899   -4.269661   -1.639085
