68 
5h3q_ligand_xtb.xyz
 C   -4.409804   -0.368139   -0.377181
 C   -5.633579   -1.008480   -0.408323
 F   -6.733683   -0.284153   -0.645646
 C   -5.716272   -2.381318   -0.196498
 F   -6.897781   -2.998803   -0.227568
 C   -4.563556   -3.106430    0.048295
 C   -3.339612   -2.461349    0.080077
 C   -3.248680   -1.091489   -0.128233
 C   -1.909704   -0.397808   -0.107962
 C   -1.882796    0.821059    0.829249
 N   -1.209460    1.888963    0.059516
 C   -1.355161    3.243498    0.618099
 C   -2.659203    3.948329    0.229138
 O   -3.753539    3.078476    0.414998
 C   -5.008631    3.718855    0.290877
 C   -1.633498    1.682751   -1.336172
 C   -1.523867    0.165673   -1.512954
 N   -0.206737   -0.265555   -1.948817
 C    0.962631    0.000411   -1.293493
 O    1.065111    0.877933   -0.427893
 N    2.017215   -0.760141   -1.650514
 C    3.280098   -0.606499   -1.051017
 C    4.501348   -0.392153   -1.648399
 C    4.846075   -0.331307   -3.093854
 C    5.382839   -0.240292   -0.543317
 O    6.685820   -0.013004   -0.660713
 C    7.403138    0.118028    0.564608
 C    8.858118    0.394038    0.233607
 N    4.739718   -0.339107    0.603754
 N    3.451644   -0.583962    0.301006
 C    2.503597   -0.758352    1.312698
 C    1.486312   -1.700777    1.187582
 C    0.544948   -1.829628    2.193392
 C    0.617097   -1.036448    3.327349
 C    1.654436   -0.127804    3.466551
 C    2.597347    0.013084    2.466162
 H   -4.395287    0.697825   -0.538842
 H   -4.640879   -4.168805    0.213474
 H   -2.448205   -3.037218    0.274198
 H   -1.146183   -1.116498    0.198812
 H   -1.320715    0.616592    1.741181
 H   -2.890795    1.148541    1.083714
 H   -0.158066    1.582913    0.010721
 H   -0.519609    3.857686    0.277172
 H   -1.298933    3.150501    1.703720
 H   -2.764628    4.840273    0.861824
 H   -2.621665    4.288384   -0.817295
 H   -5.125349    4.501782    1.044952
 H   -5.127986    4.159274   -0.704198
 H   -5.763374    2.950914    0.444001
 H   -2.670651    1.991764   -1.458154
 H   -0.990998    2.234045   -2.022601
 H   -2.224978   -0.181059   -2.273405
 H   -0.197761   -1.031588   -2.602904
 H    1.979458   -1.346581   -2.471251
 H    5.846006    0.077644   -3.202208
 H    4.142322    0.298120   -3.637295
 H    4.834387   -1.326977   -3.538512
 H    7.292988   -0.807146    1.141799
 H    6.963983    0.935272    1.148483
 H    9.429994    0.488933    1.151552
 H    9.268009   -0.419817   -0.357977
 H    8.945079    1.315010   -0.336373
 H    1.448816   -2.347633    0.322981
 H   -0.236310   -2.571277    2.106536
 H   -0.119124   -1.146429    4.108876
 H    1.729404    0.471868    4.360560
 H    3.416692    0.706942    2.557942
