47 
5hdv_ligand_ani.xyz
 N    1.070775    0.557981    1.276869
 C    4.656903   -0.764828   -1.331457
 C    4.606521   -1.809499   -0.444777
 C    1.716315    1.733691    1.653735
 C    1.444395    2.546413   -0.669098
 C    0.728007    1.264174   -1.000008
 C   -0.795695    1.324624   -0.809666
 C    0.017234   -0.921826   -0.341771
 C   -2.399979   -0.468786   -0.310140
 C   -3.834445   -2.130839    0.292887
 C   -4.583940    0.084787   -0.179393
 C   -5.251622    2.286744   -0.641025
 F   -6.141203   -1.623948    0.449004
 C   -4.878019   -1.237664    0.192644
 C   -4.091139   -3.558497    0.691730
 N   -2.577313   -1.745358    0.043580
 O   -5.592223    0.953526   -0.267758
 N   -3.351185    0.472181   -0.434727
 N   -1.136823   -0.072636   -0.582582
 O    1.663822    3.398329   -1.509634
 N    1.834013    2.709720    0.655785
 C    2.453556    3.973515    1.048737
 N    2.168603    1.999855    2.816599
 C    1.162583    0.088786   -0.113810
 C    2.530621   -0.460750   -0.443422
 C    3.464809    0.007873   -1.325913
 S    3.103308   -1.849883    0.404646
 C    5.619245   -2.780280   -0.195827
 N    6.440764   -3.572035    0.009370
 H    1.244091   -0.184914    1.939609
 H    5.521945   -0.571243   -1.957110
 H    0.939563    1.034647   -2.045553
 H   -1.320313    1.719972   -1.683960
 H   -1.058566    1.941480    0.056684
 H    0.226011   -1.566460   -1.203224
 H   -0.152476   -1.554953    0.531692
 H   -4.550512    2.722964    0.076630
 H   -4.795118    2.305870   -1.634993
 H   -6.192351    2.836658   -0.641136
 H   -4.770931   -4.043586   -0.017058
 H   -3.146145   -4.105304    0.720202
 H   -4.569239   -3.607509    1.676188
 H    1.894675    4.417271    1.874797
 H    3.480151    3.801588    1.381071
 H    2.437911    4.623500    0.176810
 H    2.013470    1.227179    3.463565
 H    3.309019    0.887859   -1.945280
