47 
5hdv_ligand_xtb.xyz
 N    1.094986    0.591415    1.247053
 C    4.808226   -0.589768   -0.966468
 C    4.640329   -1.803494   -0.351016
 C    1.465269    1.854448    1.633733
 C    1.437184    2.567948   -0.700460
 C    0.795802    1.237894   -1.045916
 C   -0.732430    1.266790   -0.901038
 C    0.085399   -0.931092   -0.358876
 C   -2.326055   -0.501255   -0.312387
 C   -3.739265   -2.165748    0.324933
 C   -4.530721    0.033333   -0.211883
 C   -5.186505    2.205900   -0.754947
 F   -6.068273   -1.682912    0.439333
 C   -4.798866   -1.283574    0.189485
 C   -3.949825   -3.580347    0.752020
 N   -2.497539   -1.764943    0.072151
 O   -5.535170    0.898597   -0.341966
 N   -3.289797    0.417211   -0.459125
 N   -1.073025   -0.106923   -0.598718
 O    1.692869    3.387978   -1.555528
 N    1.691763    2.780262    0.619688
 C    2.215578    4.068235    1.036877
 N    1.599333    2.254741    2.827461
 C    1.202453    0.093727   -0.111539
 C    2.580123   -0.442024   -0.365206
 C    3.635531    0.183611   -0.966926
 S    3.017339   -2.005037    0.235530
 C    5.596607   -2.807079   -0.174382
 N    6.384720   -3.628357   -0.030597
 H    1.070946   -0.102989    1.979698
 H    5.741038   -0.274751   -1.398032
 H    1.061970    0.994338   -2.077223
 H   -1.229625    1.598608   -1.814448
 H   -1.049402    1.925569   -0.083513
 H    0.315575   -1.545793   -1.237884
 H   -0.091505   -1.595535    0.489472
 H   -4.516190    2.672090   -0.029855
 H   -4.689232    2.181793   -1.726708
 H   -6.122219    2.756373   -0.818117
 H   -4.649024   -4.070703    0.077373
 H   -3.000897   -4.106829    0.746880
 H   -4.380295   -3.606677    1.751661
 H    1.517177    4.539348    1.725803
 H    3.165226    3.928183    1.550213
 H    2.348097    4.677564    0.146203
 H    1.439962    1.549865    3.537137
 H    3.577748    1.164884   -1.402581
