47 
5hdz_ligand_xtb.xyz
 F   -5.788704   -1.987729    0.484939
 C   -4.540256   -1.533978    0.231717
 C   -3.444180   -2.378837    0.349157
 C   -3.598908   -3.804739    0.760212
 N   -2.222923   -1.925805    0.093128
 C   -4.325929   -0.209928   -0.151796
 S   -5.660575    0.903417   -0.311595
 C   -4.762419    2.389733   -0.827258
 N   -3.103401    0.230643   -0.402002
 C   -2.104180   -0.648206   -0.274963
 N   -0.869359   -0.200853   -0.562960
 C   -0.585876    1.190585   -0.841331
 C    0.939463    1.222219   -1.009966
 O    1.743406    3.413534   -1.497586
 N    1.795410    2.773361    0.667839
 N    1.761152    2.207799    2.867400
 N    1.297934    0.551379    1.267581
 C    0.322593   -0.983319   -0.348029
 C    1.403513    0.079881   -0.100589
 C    2.796694   -0.398092   -0.382541
 C    3.815632    0.273154   -0.997789
 C    5.019176   -0.451057   -1.018952
 C    4.911387   -1.673057   -0.406545
 S    3.307396   -1.944443    0.203701
 C    5.910925   -2.636722   -0.248274
 N    6.734163   -3.425290   -0.119079
 C    1.533061    2.571024   -0.652165
 C    2.269624    4.075885    1.099173
 C    1.624112    1.822215    1.669314
 H   -4.023719   -3.858562    1.761356
 H   -2.630749   -4.294932    0.745010
 H   -4.282477   -4.313531    0.082921
 H   -4.238092    2.182695   -1.753886
 H   -4.057820    2.666190   -0.050371
 H   -5.507506    3.165419   -0.968416
 H   -0.912699    1.820240   -0.004618
 H   -1.109837    1.522628   -1.739700
 H    1.198456    1.005142   -2.048985
 H    1.641701    1.485446    3.567225
 H    1.321892   -0.155447    1.988484
 H    0.564230   -1.577437   -1.238071
 H    0.182610   -1.664975    0.493619
 H    3.710603    1.252952   -1.427832
 H    5.931555   -0.096018   -1.462963
 H    2.353983    4.707366    0.218113
 H    1.566192    4.500969    1.812483
 H    3.236226    3.970335    1.588583
