93 
5hfb_ligand_ani.xyz
 N    0.583652   -1.014940   -0.231970
 C    0.702027   -2.335063   -0.892719
 C   -0.644710   -2.619498   -1.568980
 O   -0.944393   -2.040553   -2.607343
 C    1.194784   -3.400929    0.093426
 C    2.629872   -3.167374    0.500243
 C    3.681418   -3.570661   -0.329339
 C    2.947873   -2.500400    1.685561
 C    5.006035   -3.350504    0.020590
 C    4.270500   -2.272989    2.052109
 C    5.302968   -2.700672    1.219418
 O    6.616452   -2.495374    1.512773
 N   -1.495023   -3.493779   -0.959836
 C   -2.891444   -3.565817   -1.387810
 C   -3.591152   -2.303657   -0.856931
 O   -3.953077   -2.234929    0.319288
 C   -3.544290   -4.848835   -0.897896
 N   -3.714000   -1.265393   -1.726606
 C   -4.043900    0.069613   -1.208703
 C   -2.839586    0.524086   -0.339562
 O   -1.721283    0.328512   -0.789680
 C   -5.441941    0.084876   -0.568710
 C   -6.327891    1.278774   -0.924815
 C   -6.031156    2.547166   -0.145115
 O   -5.448149    2.547656    0.931751
 N   -6.489426    3.696992   -0.702852
 N   -3.047431    1.080917    0.881225
 C   -2.078657    1.005404    1.973759
 C   -0.671105    1.558782    1.648471
 O    0.336643    0.999005    2.068413
 C   -1.968429   -0.402181    2.609236
 O   -1.585398   -1.375154    1.642680
 C   -3.250263   -0.821728    3.317525
 N   -0.616558    2.735367    0.971106
 C    0.651706    3.331848    0.583179
 C    1.363072    2.522597   -0.530891
 O    0.771962    1.724673   -1.245248
 C    1.543516    3.591442    1.808145
 O    2.521518    4.565169    1.433393
 N    2.687863    2.790800   -0.677413
 C    3.536639    1.943681   -1.484061
 C    3.827146    0.627252   -0.747486
 O    4.817143   -0.074081   -1.304903
 C    4.801426    2.667900   -1.980885
 C    4.429160    3.863167   -2.857076
 C    5.727632    3.080400   -0.834593
 O    3.195416    0.230848    0.206683
 H   -0.073771   -1.063584    0.569821
 H    1.493263   -0.659475    0.090434
 H    0.192608   -0.329274   -0.896856
 H    1.418957   -2.249414   -1.717178
 H    1.098143   -4.385254   -0.377475
 H    0.552990   -3.388055    0.984924
 H    3.462881   -4.069836   -1.271190
 H    2.148196   -2.118190    2.318749
 H    5.825281   -3.651448   -0.628191
 H    4.496339   -1.742312    2.975683
 H    6.679591   -2.020328    2.351209
 H   -1.282587   -3.811556   -0.022823
 H   -2.882915   -3.524464   -2.479824
 H   -4.572082   -4.924790   -1.266607
 H   -2.981282   -5.711951   -1.264745
 H   -3.572095   -4.879576    0.195711
 H   -3.010604   -1.265633   -2.460850
 H   -4.023488    0.725990   -2.086242
 H   -5.940974   -0.814704   -0.933622
 H   -5.376739   -0.024677    0.516113
 H   -7.372490    1.018068   -0.707362
 H   -6.286580    1.485381   -2.002085
 H   -6.403867    4.547973   -0.168360
 H   -7.070564    3.699140   -1.524862
 H   -3.972265    1.440400    1.112980
 H   -2.480726    1.681372    2.745250
 H   -1.148524   -0.351358    3.329475
 H   -2.407333   -1.777452    1.306143
 H   -4.081577   -0.905545    2.608842
 H   -3.106641   -1.801450    3.784901
 H   -3.524676   -0.105595    4.098803
 H   -1.424050    2.977225    0.414639
 H    0.412521    4.310079    0.151712
 H    0.910889    3.964358    2.622807
 H    2.021395    2.662793    2.136704
 H    3.096529    4.714169    2.192898
 H    3.100781    3.447206   -0.024193
 H    2.938849    1.644641   -2.356756
 H    4.908409   -0.900509   -0.793904
 H    5.339146    1.938846   -2.597080
 H    3.877552    4.618000   -2.285166
 H    3.804685    3.558736   -3.704843
 H    5.330367    4.337735   -3.259841
 H    5.263661    3.823253   -0.172088
 H    6.643329    3.528800   -1.234872
 H    6.013772    2.216288   -0.225340
