62 
5hfu_ligand_dft.xyz
 C    8.931598    2.597970   -1.041511
 C   -5.994904    4.870263    1.412004
 C   -6.595960    4.650296    0.175724
 C   -5.369353    3.815377    2.070426
 C   -7.045078   -0.842527   -1.525882
 C    7.660725    0.953002    0.263343
 C    6.485648    2.519996   -1.178610
 C   -6.571265    3.383911   -0.398255
 C   -5.346456    2.548863    1.496816
 C   -7.060988    0.436022   -0.978701
 C   -5.894846   -1.617840   -1.460207
 C    6.451428    0.390520    0.639208
 C    5.272442    1.956095   -0.801230
 C   -4.768300    0.179128   -0.310267
 C    7.676465    2.017154   -0.647911
 C   -5.946787    2.315893    0.254785
 C   -5.924635    0.962274   -0.355784
 C   -4.744772   -1.101776   -0.862193
 C    5.271972    0.896122    0.096563
 C   -3.535946   -1.985178   -0.818945
 C   -1.082064   -2.118634   -0.673784
 C   -0.816749   -2.793976    0.682899
 C    0.629952   -3.282011    0.780790
 C    1.551874   -2.117353    0.472726
 C    0.043175   -1.141859   -1.057695
 C    3.041538   -2.409745    0.568694
 N    9.942941    3.064682   -1.360374
 N   -2.333479   -1.380220   -0.698531
 N    3.856135   -1.350249   -0.053393
 O   -3.639410   -3.211337   -0.905830
 O    3.712364    0.016528    2.052147
 O    2.667583    0.960278   -0.046412
 O    1.302449   -1.726727   -0.877732
 O   -1.638298   -3.914160    0.918812
 O    0.905349   -3.773683    2.068698
 O   -0.117724    0.013826   -0.286149
 S    3.721124    0.179037    0.609523
 H   -6.015009    5.858541    1.861165
 H   -7.079947    5.469649   -0.347581
 H   -4.904496    3.975452    3.038617
 H   -7.940546   -1.241622   -1.992115
 H    8.592599    0.576681    0.670445
 H    6.512789    3.346388   -1.880104
 H   -7.023128    3.224948   -1.373606
 H   -4.880278    1.724473    2.029594
 H   -7.974475    1.023357   -1.005097
 H   -5.867826   -2.624338   -1.863114
 H    6.418696   -0.431391    1.345926
 H    4.334343    2.332952   -1.192749
 H   -3.890091    0.588774    0.182173
 H   -1.126792   -2.900538   -1.440617
 H   -0.968350   -2.042529    1.473538
 H    0.785381   -4.061628    0.016089
 H    1.314307   -1.286454    1.148466
 H   -0.007587   -0.913451   -2.129940
 H    3.333588   -2.522495    1.612992
 H    3.295795   -3.332031    0.038070
 H   -2.259150   -0.379319   -0.587715
 H    3.629250   -1.279122   -1.044294
 H   -2.407342   -3.881579    0.319860
 H    0.172453   -4.366531    2.288443
 H    0.707853    0.528039   -0.341019
