56 
5hgc_ligand_ani.xyz
 C    3.270532   -1.561012   -0.398877
 C    4.791433   -1.602950   -0.317588
 C    5.407646   -0.279204   -0.734250
 C    4.631927    0.926871   -0.365649
 C    3.415464    0.876283    0.195535
 C    2.769026    2.122755    0.757466
 C    1.335037    2.293973    0.260170
 C    0.473326    1.049747    0.505139
 C    1.173086   -0.193112   -0.106696
 C    2.631885   -0.414821    0.420568
 C   -1.118925   -1.204287   -0.651998
 C    0.300397   -1.464677   -0.107895
 C   -1.805974   -0.018889    0.023120
 C   -0.896956    1.207995   -0.154227
 C   -1.799540    2.391025    0.223650
 C   -3.225473    1.953636   -0.229250
 C   -3.086282    0.491833   -0.718592
 C   -2.138435   -0.298691    1.495522
 C    2.709296   -0.740445    1.924925
 C   -4.296343   -0.406357   -0.501351
 C   -5.353767   -0.133332    0.552247
 O    6.480744   -0.207374   -1.301885
 O    0.262963   -2.017166    1.201714
 O   -2.845065    0.530186   -2.113548
 O   -4.433755   -1.387991   -1.214205
 O   -6.232820   -1.207556    0.664667
 H    2.980489   -1.445764   -1.452375
 H    2.853899   -2.516016   -0.053862
 H    5.118588   -1.822707    0.709316
 H    5.207522   -2.386604   -0.956014
 H    5.118652    1.882072   -0.549134
 H    3.371809    3.002670    0.504898
 H    2.769051    2.049709    1.854290
 H    0.881267    3.174792    0.732817
 H    1.361031    2.492853   -0.821132
 H    0.348578    0.912582    1.589354
 H    1.303324    0.065657   -1.170719
 H   -1.027186   -1.001820   -1.726181
 H   -1.734116   -2.111432   -0.555306
 H    0.767165   -2.200161   -0.781421
 H   -0.705243    1.292287   -1.235027
 H   -1.482970    3.322166   -0.259400
 H   -1.781943    2.566822    1.306366
 H   -3.604607    2.552177   -1.061526
 H   -3.936371    2.052969    0.598095
 H   -2.674355    0.536053    1.960881
 H   -2.771118   -1.189385    1.574742
 H   -1.240179   -0.484824    2.085212
 H    3.752904   -0.703487    2.256412
 H    2.154098   -0.003773    2.512060
 H    2.299224   -1.727407    2.144332
 H   -5.881040    0.792747    0.270034
 H   -4.867033    0.061627    1.517713
 H   -0.430757   -2.687848    1.210485
 H   -3.086499   -0.352818   -2.434854
 H   -6.044857   -1.781986   -0.095805
