47 
5hlb_ligand_dft.xyz
 C    0.756637   -2.130024    2.312140
 S    1.363938    4.315398    0.364160
 O   -1.808937   -3.497668    0.142678
 O    0.638200   -0.159031   -1.983200
 O   -2.796914    0.290881   -1.136542
 N    2.266053   -1.125533    0.712082
 N   -0.484446   -1.148375   -0.249598
 N   -2.104147    1.400137   -0.648095
 N    1.319414    1.737942    0.238705
 N    3.342763    2.564201    1.085841
 S    3.552420   -1.232960   -0.305182
 C    1.377902   -2.261918    0.923111
 C    0.287898   -2.360793   -0.191655
 C   -0.608999   -3.558168    0.031453
 C   -0.188771   -0.132658   -1.072606
 C   -0.847541    1.178270   -0.685721
 C   -4.054796    0.145886   -0.489365
 C    0.108289    2.199627   -0.240949
 C   -0.065811    3.544212   -0.247276
 C    2.094841    2.729835    0.576583
 C   -4.957765    1.351686   -0.735752
 C   -4.626455   -1.146296   -1.079278
 C   -3.799964   -0.109992    1.000633
 O   -2.751386   -0.486536    1.477797
 O   -4.895558    0.068169    1.745193
 O    4.174013    0.080062   -0.273681
 O    4.303116   -2.423645    0.003589
 O    2.950311   -1.493214   -1.764859
 H    1.547251   -2.083810    3.063830
 H    0.157180   -1.216592    2.386851
 H    0.105362   -2.980857    2.539035
 H    1.838746   -0.190126    0.679485
 H   -1.282552   -1.038759    0.379093
 H    3.775266    1.678128    0.823496
 H    3.964805    3.357731    1.061449
 H    1.998196   -3.163457    0.882711
 H    0.794507   -2.508717   -1.152117
 H   -0.073375   -4.526807    0.101585
 H   -0.922301    4.106714   -0.586652
 H   -5.939997    1.192949   -0.285746
 H   -4.518448    2.260215   -0.319361
 H   -5.076064    1.482467   -1.814845
 H   -5.590667   -1.377551   -0.619572
 H   -3.932822   -1.974815   -0.910117
 H   -4.767796   -1.012995   -2.155168
 H   -4.658411   -0.171491    2.656255
 H    2.186394   -0.879970   -1.942081
