47 
5hlb_ligand_ani.xyz
 C    1.033415   -2.218341    2.312086
 S    1.035657    4.381558    0.526811
 O   -1.433924   -3.699576    0.452349
 O    0.676228   -0.196148   -1.929448
 O   -2.791981    0.147493   -1.029203
 N    2.389249   -1.053170    0.659624
 N   -0.408355   -1.270406   -0.234894
 N   -2.117476    1.261328   -0.569752
 N    1.319129    1.848420    0.166787
 N    3.313745    2.891033    0.806291
 S    3.700788   -1.059014   -0.316620
 C    1.590998   -2.255864    0.893139
 C    0.480886   -2.410456   -0.188873
 C   -0.302909   -3.688772    0.030956
 C   -0.146577   -0.198628   -1.012384
 C   -0.851584    1.080268   -0.599951
 C   -4.149714    0.091017   -0.560113
 C    0.012868    2.168352   -0.139705
 C   -0.347544    3.465092    0.014537
 C    1.999191    2.907154    0.491429
 C   -4.864608    1.418676   -0.766359
 C   -4.800453   -1.027624   -1.369271
 C   -4.110058   -0.359271    0.908459
 O   -3.231757   -1.013913    1.418544
 O   -5.222075   -0.022090    1.583788
 O    4.211610    0.299541   -0.299653
 O    4.541559   -2.173525    0.027244
 O    3.124954   -1.384127   -1.767827
 H    1.842895   -2.010872    3.015925
 H    0.271006   -1.436599    2.413659
 H    0.576388   -3.175782    2.578470
 H    1.963003   -0.131450    0.758387
 H   -1.220622   -1.275363    0.374633
 H    3.819672    2.051137    0.539258
 H    3.830983    3.753743    0.847649
 H    2.285415   -3.095175    0.788800
 H    0.976098   -2.478659   -1.162281
 H    0.225476   -4.637892   -0.202374
 H   -1.318967    3.905094   -0.151607
 H   -5.905920    1.321053   -0.454694
 H   -4.391880    2.222077   -0.197785
 H   -4.837989    1.681313   -1.828390
 H   -5.827169   -1.190487   -1.027037
 H   -4.238776   -1.960357   -1.259414
 H   -4.822075   -0.756839   -2.429072
 H   -5.107388   -0.385417    2.477251
 H    2.362300   -0.791534   -1.970869
