47 
5hlb_ligand_xtb.xyz
 C    0.648751   -2.094645    2.289065
 S    1.545990    4.216663    0.485257
 O   -1.887485   -3.358311    0.141544
 O    0.711483   -0.092928   -1.979969
 O   -2.813797    0.379235   -1.148674
 N    2.193334   -1.074745    0.719550
 N   -0.483677   -1.068124   -0.304554
 N   -2.060768    1.437197   -0.628868
 N    1.397230    1.669426    0.132142
 N    3.497722    2.337031    0.868406
 S    3.458773   -1.312015   -0.297535
 C    1.319387   -2.194121    0.920523
 C    0.242502   -2.306926   -0.213475
 C   -0.696659   -3.454104    0.043443
 C   -0.129935   -0.047347   -1.089568
 C   -0.805962    1.236844   -0.672960
 C   -4.068456    0.251717   -0.499213
 C    0.169667    2.188048   -0.191144
 C    0.052895    3.538258   -0.045485
 C    2.240410    2.579722    0.484532
 C   -4.894609    1.535197   -0.582303
 C   -4.758514   -0.930840   -1.183996
 C   -3.819120   -0.135833    0.960417
 O   -2.736223   -0.402624    1.419804
 O   -4.932381   -0.175971    1.679706
 O    4.205887   -0.087435   -0.293615
 O    4.121209   -2.511594    0.077496
 O    2.830795   -1.564812   -1.712021
 H    1.411466   -1.996051    3.055611
 H   -0.000686   -1.224007    2.333377
 H    0.056928   -2.985014    2.486750
 H    1.777243   -0.149081    0.606511
 H   -1.258372   -0.945323    0.346865
 H    3.883134    1.439615    0.560467
 H    4.132346    3.114506    0.934914
 H    1.972593   -3.070935    0.874132
 H    0.763702   -2.494373   -1.160515
 H   -0.177555   -4.425305    0.140372
 H   -0.799663    4.152600   -0.242819
 H   -5.828830    1.410924   -0.044207
 H   -4.330673    2.359316   -0.152497
 H   -5.100770    1.758743   -1.625622
 H   -5.729540   -1.104408   -0.730909
 H   -4.143599   -1.822598   -1.085897
 H   -4.881229   -0.705326   -2.239471
 H   -4.742685   -0.459222    2.589441
 H    2.115064   -0.914221   -1.949964
