41 
5hld_ligand_xtb.xyz
 O   -2.133472    3.365466   -0.625004
 C   -1.496648    2.216837   -0.516361
 O   -0.328938    2.093782   -0.263829
 C   -2.441347    1.036479   -0.771415
 N   -1.684664   -0.228305   -0.732353
 C   -3.643015    1.019129    0.197580
 C   -4.709094    0.031753   -0.272084
 C   -3.195020    0.717744    1.625996
 S   -2.429707   -0.930038    1.770789
 C   -1.087564   -0.578960    0.576598
 C   -0.160794   -1.799607    0.437968
 C   -0.776909   -2.926201   -0.397603
 O   -1.855200   -2.874888   -0.912923
 N    1.153848   -1.459113   -0.086223
 C    1.395860   -0.859150   -1.266820
 O    0.505216   -0.470739   -2.018895
 C    2.857082   -0.678195   -1.598678
 C    3.540057    0.130874   -0.541281
 S    4.169360   -0.627526    0.895989
 C    4.684901    0.891380    1.513163
 C    4.397476    1.906965    0.664652
 C    3.736216    1.474846   -0.509148
 H   -1.544937    4.129018   -0.497390
 H   -2.825392    1.165630   -1.790087
 H   -0.826366   -0.240238   -1.432137
 H   -2.297119   -1.020811   -0.996662
 H   -4.069823    2.027260    0.187728
 H   -4.998747    0.234590   -1.299574
 H   -4.369901   -0.999072   -0.195631
 H   -5.595167    0.129733    0.348767
 H   -2.478279    1.453381    1.993293
 H   -4.052266    0.695946    2.296219
 H   -0.505557    0.274580    0.936703
 H   -0.010252   -2.212383    1.442550
 H   -0.120711   -3.804156   -0.486814
 H    1.960181   -1.681917    0.484431
 H    2.921419   -0.166698   -2.560181
 H    3.328005   -1.659966   -1.687565
 H    5.178744    0.925725    2.463298
 H    4.649954    2.932427    0.861975
 H    3.429420    2.137558   -1.297541
