41 
5hld_ligand_ani.xyz
 O   -2.283889    3.230369   -0.745190
 C   -1.619138    2.072994   -0.877675
 O   -0.422970    2.029518   -1.049093
 C   -2.549081    0.860218   -0.852523
 N   -1.723933   -0.363255   -0.721682
 C   -3.686619    0.971907    0.184959
 C   -4.808096   -0.033503   -0.087345
 C   -3.137837    0.873944    1.608237
 S   -2.312928   -0.703231    1.935473
 C   -1.076651   -0.550562    0.611542
 C   -0.168465   -1.794452    0.593799
 C   -0.773271   -2.938027   -0.217698
 O   -1.895804   -2.935948   -0.676993
 N    1.192919   -1.524819    0.104035
 C    1.444264   -1.085680   -1.152451
 O    0.544672   -0.919821   -1.976572
 C    2.907011   -0.795471   -1.477708
 C    3.523752    0.146687   -0.474902
 S    4.783840   -0.332845    0.602937
 C    4.790578    1.204387    1.381933
 C    3.867230    2.045551    0.837328
 C    3.137218    1.431565   -0.226899
 H   -1.622110    3.939740   -0.807583
 H   -3.015097    0.844589   -1.844370
 H   -0.963687   -0.361375   -1.445928
 H   -2.290949   -1.221290   -0.889315
 H   -4.098879    1.976055    0.064127
 H   -5.192882    0.091245   -1.104849
 H   -4.477233   -1.072796    0.024893
 H   -5.636958    0.123157    0.611478
 H   -2.421991    1.684003    1.790960
 H   -3.945352    0.978159    2.340181
 H   -0.478991    0.330236    0.834994
 H   -0.046039   -2.157293    1.616761
 H   -0.109281   -3.805921   -0.373381
 H    1.949174   -1.516760    0.775723
 H    2.906691   -0.354354   -2.479274
 H    3.469629   -1.736166   -1.524594
 H    5.476800    1.399697    2.196384
 H    3.709428    3.061776    1.181060
 H    2.328801    1.900766   -0.779102
