42 
5hls_ligand_xtb.xyz
 N   -3.304481    0.429680    2.203509
 C   -2.179910   -0.275135    0.458013
 C   -1.902278    1.065257    0.575445
 C   -1.022418    1.789984   -0.323876
 C   -1.301897    3.104558   -0.691729
 C    0.600910    3.132456   -2.147169
 C    0.541556   -0.202533   -0.434694
 C   -1.602324   -1.211817   -0.547340
 C   -2.176479   -2.626220   -0.427372
 C    1.977912   -0.373715   -0.145090
 C    2.745894    0.671250    0.364410
 C    4.668566   -0.749758    0.414677
 C    3.918013   -1.805742   -0.081877
 C   -0.500966    3.770532   -1.597235
 C    0.912555    1.844121   -1.761693
 C    2.578249   -1.614452   -0.352872
 C    4.086193    0.486913    0.646290
 C    0.113698    1.152159   -0.850747
 C   -2.668440    1.460077    1.713636
 C   -3.634097   -2.609938   -0.861093
 C   -2.771397    2.798857    2.343843
 N   -0.181236   -1.240932   -0.302138
 N   -4.523792   -2.830726    0.131736
 O   -3.970463   -2.423143   -2.009442
 O   -3.013619   -0.653980    1.430896
Cl    6.346470   -0.978224    0.752493
 H   -2.172991    3.591309   -0.281606
 H    1.219309    3.642912   -2.869912
 H   -1.817556   -0.816696   -1.554616
 H   -2.059735   -2.986684    0.593219
 H   -1.616911   -3.272362   -1.103823
 H    2.292407    1.632498    0.556214
 H    4.382851   -2.763978   -0.252728
 H   -0.739374    4.784058   -1.883284
 H    1.775990    1.349104   -2.182354
 H    1.973356   -2.421024   -0.735019
 H    4.678332    1.296176    1.043873
 H   -1.802622    3.294002    2.340723
 H   -3.480353    3.418310    1.795282
 H   -3.129702    2.690321    3.363572
 H   -4.249588   -2.793253    1.097773
 H   -5.504225   -2.745182   -0.084256
