42 
5hls_ligand_ani.xyz
 N   -3.626835    0.455575    1.986114
 C   -2.245249   -0.233305    0.404960
 C   -2.014804    1.102729    0.548269
 C   -1.088862    1.857654   -0.278837
 C   -1.371793    3.198523   -0.572171
 C    0.546945    3.366605   -1.994172
 C    0.588829   -0.093215   -0.434514
 C   -1.552636   -1.187557   -0.532335
 C   -2.013399   -2.631002   -0.302939
 C    2.047917   -0.280611   -0.146350
 C    2.842978    0.729975    0.405201
 C    4.739431   -0.732491    0.419152
 C    3.970121   -1.761517   -0.110461
 C   -0.580517    3.945782   -1.418178
 C    0.873304    2.064314   -1.677088
 C    2.627371   -1.534403   -0.376137
 C    4.184548    0.513187    0.687688
 C    0.094704    1.283798   -0.803384
 C   -2.930417    1.484224    1.580548
 C   -3.440663   -2.865203   -0.772226
 C   -3.158633    2.815509    2.229591
 N   -0.098745   -1.176448   -0.432233
 N   -4.046922   -3.960553   -0.234836
 O   -3.983052   -2.163443   -1.608275
 O   -3.207822   -0.621780    1.234451
Cl    6.422532   -1.011109    0.760375
 H   -2.267174    3.644437   -0.148010
 H    1.177004    3.938430   -2.668707
 H   -1.861833   -0.906134   -1.556313
 H   -1.879941   -2.905380    0.748406
 H   -1.340180   -3.266181   -0.889992
 H    2.408060    1.706090    0.604750
 H    4.419324   -2.731624   -0.303251
 H   -0.843168    4.975430   -1.642303
 H    1.775755    1.621381   -2.089622
 H    2.004904   -2.331405   -0.769121
 H    4.799951    1.303206    1.105727
 H   -2.212712    3.340899    2.391267
 H   -3.796493    3.454435    1.606556
 H   -3.662246    2.677380    3.189424
 H   -3.663061   -4.436509    0.565474
 H   -5.021770   -4.101827   -0.453098
