80 
5hm3_ligand_ani.xyz
 C    0.933500    1.718516   -1.464377
 C    0.887919    0.454920   -0.605370
 C    3.335166    2.520629   -0.889113
 C    0.047492   -0.625637   -1.254623
 C    5.487996    2.270741   -2.277602
 C    6.155244    1.248100   -1.347683
 C    0.751816   -2.320636    2.946371
 C    1.360057   -1.077821    2.799403
 C    2.609295   -0.969757    2.191641
 C    3.255827   -2.116874    1.722630
 C    2.659787   -3.369915    1.900263
 C    1.410916   -3.463746    2.495242
 O   -0.672644   -0.433505   -2.210284
 C    1.831988    2.826630   -0.907806
 C    3.951527    2.256691   -2.268312
 C    5.941779   -0.214908   -1.765003
 C    5.932019   -1.206689   -0.595589
 C    4.767598   -0.931998    0.348330
 O    4.465670   -2.099430    1.098173
 N    0.204652   -1.884103   -0.673467
 S   -0.974411   -3.035483   -0.870807
 O   -0.759389   -4.025316    0.161247
 O   -1.116576   -3.424337   -2.252453
 O   -2.233210   -2.105559   -0.464442
 C   -3.524128   -2.736013   -0.500191
 C   -4.555328   -1.630576   -0.363938
 O   -4.207878   -0.808203    0.747550
 C   -3.965799    0.518720    0.346678
 C   -3.808151    0.501348   -1.177184
 O   -4.291133    1.679273   -1.766857
 C   -4.671060   -0.693399   -1.577812
 O   -6.019268   -0.306872   -1.694551
 N   -2.776059    1.015453    1.011822
 C   -2.316388    2.308206    0.901470
 N   -2.709381    3.254847    0.045446
 C   -2.061933    4.410631    0.231789
 N   -1.096552    4.678299    1.113770
 C   -0.698237    3.691839    1.932145
 N    0.360246    3.920380    2.768468
 C   -1.304400    2.430547    1.850451
 N   -1.099547    1.226385    2.505332
 C   -1.995184    0.425600    1.984038
 H    1.258715    1.450949   -2.477453
 H   -0.093394    2.089645   -1.576495
 H    1.895094    0.049880   -0.436835
 H    0.466202    0.678893    0.388327
 H    3.849414    3.377758   -0.431879
 H    3.533163    1.668008   -0.225446
 H    5.841431    2.116795   -3.307051
 H    5.826535    3.275707   -1.988581
 H    7.231429    1.455109   -1.293849
 H    5.781664    1.407332   -0.328408
 H   -0.235880   -2.398712    3.398591
 H    0.834749   -0.181284    3.122105
 H    3.068614    0.008001    2.071193
 H    3.184065   -4.248926    1.537343
 H    0.930738   -4.434843    2.578939
 H    1.518637    3.076829    0.113538
 H    1.668632    3.734183   -1.505276
 H    3.595443    3.024667   -2.969013
 H    3.580595    1.299968   -2.660294
 H    6.702765   -0.504324   -2.500308
 H    4.977721   -0.308540   -2.285578
 H    5.822110   -2.225838   -0.981620
 H    6.877791   -1.175326   -0.038438
 H    3.884728   -0.647953   -0.245160
 H    4.999976   -0.101821    1.032373
 H    0.599931   -1.931820    0.261315
 H   -3.648629   -3.282028   -1.442265
 H   -3.590890   -3.434475    0.339334
 H   -5.535977   -2.078017   -0.173796
 H   -4.819591    1.152982    0.622971
 H   -2.755939    0.322633   -1.438906
 H   -3.828350    2.430408   -1.343319
 H   -4.316140   -1.159652   -2.512474
 H   -6.011983    0.616034   -1.993015
 H   -2.347448    5.232774   -0.417568
 H    0.423998    3.291558    3.558055
 H    0.543489    4.896209    2.959725
 H   -2.146850   -0.613180    2.240374
