85 
5hmi_ligand_dft.xyz
 C   -0.815033    0.456214    1.738383
 C    0.361840    1.318679    2.249402
 C    1.219726    1.766679   -0.105114
 C    2.487869    1.151638   -0.679447
 C    6.820508    2.609430   -1.966789
 C    7.354937    1.340936   -2.143159
 C    6.674289    0.214733   -1.683108
 C    5.184118   -2.005446   -0.752095
 C    4.091436   -2.930650   -0.253511
 C    3.726425    1.827286    1.272975
 C    2.469221    2.453136    1.868067
 C   -1.930957    2.280224    0.606756
 C   -1.797527    3.241440    1.571665
 C   -3.029936    4.036213   -0.416478
 C   -3.769180    4.841435   -1.434426
 C   -2.640120    2.739959   -0.543589
 C   -0.235887   -0.899828    1.249293
 C    1.017478   -3.033987    1.843519
 C    1.986126   -3.693008    2.822871
 C   -1.442744   -1.857003   -0.600096
 C   -2.674298   -2.556187   -1.120444
 C   -2.836614   -3.940428   -1.185372
 C   -4.928544   -3.560595   -2.279671
 C   -3.681752   -1.760393   -1.667570
 C   -2.965406   -0.715106    2.298963
 F   -1.943747   -4.904027    0.768510
 C   -1.821487   -4.880192   -0.576870
 F   -1.991587   -6.137458   -1.007087
 F   -0.566712   -4.518200   -0.854666
 C   -3.985285   -4.451015   -1.777720
 N   -4.791960   -2.235468   -2.227836
 O   -0.620947   -1.431940   -1.399788
 N   -1.336886   -1.711054    0.749078
 C   -2.387006   -2.006010    1.717271
 C   -1.868604    0.214779    2.827920
 C    0.611611   -1.631967    2.298403
 O   -1.466787    1.006652    0.586392
 F   -4.876522    5.400290   -0.918829
 F   -4.139581    4.074478   -2.468985
 F   -3.018846    5.844630   -1.920009
 S   -2.543697    4.722056    1.092182
 O    0.473768    1.493698    3.458597
 N    1.285191    1.768580    1.357617
 N    3.651954    1.865635   -0.182528
 C    4.889923    1.640814   -0.855090
 C    5.447529    0.359076   -1.036079
 O    4.726842   -0.681546   -0.538037
 O    2.945701   -2.912790   -1.071466
 C    5.590510    2.745317   -1.327273
 H    0.355797    1.213344   -0.460039
 H    1.124145    2.806787   -0.442776
 H    2.507538    0.082538   -0.408060
 H    2.463351    1.224396   -1.770517
 H    7.347803    3.486176   -2.328417
 H    8.311190    1.213134   -2.641435
 H    7.114577   -0.765770   -1.822493
 H    5.356257   -2.182694   -1.821313
 H    6.120917   -2.177981   -0.203636
 H    3.854717   -2.672413    0.789654
 H    4.462228   -3.959485   -0.267848
 H    4.601853    2.399727    1.593557
 H    3.835479    0.795137    1.651703
 H    2.418594    3.512723    1.585319
 H    2.464414    2.373900    2.954472
 H   -1.307347    3.173851    2.532261
 H   -2.831948    2.122689   -1.411723
 H    0.397233   -0.710564    0.383567
 H    1.465629   -2.989140    0.844020
 H    0.124896   -3.659323    1.738538
 H    2.278555   -4.688877    2.475079
 H    2.899553   -3.098141    2.943654
 H    1.533094   -3.803068    3.815181
 H   -5.836809   -3.932876   -2.746550
 H   -3.574709   -0.678213   -1.642765
 H   -3.661239   -0.965267    3.106506
 H   -3.540512   -0.201593    1.520364
 H   -4.142888   -5.520029   -1.854110
 H   -1.956089   -2.626719    2.511979
 H   -3.165462   -2.598974    1.238605
 H   -1.381023   -0.209854    3.707654
 H   -2.303045    1.163216    3.151608
 H    0.096692   -1.695132    3.263885
 H    1.510830   -1.030118    2.478501
 H    2.584157   -2.016629   -1.077172
 H    5.137955    3.721454   -1.182003
