88 
5hmk_ligand_xtb.xyz
 F    3.773339    4.891432    0.200387
 F    3.347140    4.927999    2.307050
 F    4.769756    3.521088    1.524479
 F   -7.388182   -0.478685   -1.919925
 F   -6.220271   -0.835365   -0.152609
 F   -5.453632   -1.392648   -2.081959
 C   -1.674034    0.219744    2.799788
 C   -2.811982    1.130339    2.345906
 C   -3.859624    0.338079    1.563274
 N   -3.226422   -0.384623    0.484126
 C   -2.192158   -1.325170    0.875999
 C   -1.069908   -0.527163    1.598030
 C    0.008781   -1.519720    2.075382
 N    0.796189   -2.113316    1.160704
 O    0.087987   -1.785981    3.265188
 O   -0.613266    0.410167    0.621269
 C    0.424256    1.248366    0.854561
 C    1.307178    1.180905    1.931282
 C    2.327664    2.105973    2.040933
 C    2.483548    3.099324    1.082753
 C    1.621172    3.161422   -0.005761
 C    0.604890    2.238671   -0.116588
 C   -3.262532   -0.006494   -0.809226
 O   -2.596296   -0.518270   -1.688190
 C   -4.191755    1.122668   -1.161355
 C   -3.687510    2.420415   -1.259116
 N   -4.395856    3.449797   -1.673738
 C   -5.649028    3.252458   -2.039202
 C   -6.264465    2.009228   -1.998201
 C   -5.516021    0.928163   -1.551986
 C    0.875791   -1.903731   -0.269493
 C    2.283069   -1.416847   -0.645502
 N    3.236237   -2.405797   -0.209078
 C    3.188728   -2.587127    1.224620
 C    1.792251   -3.067761    1.617890
 C    4.458326   -2.584364   -0.869851
 C    5.021434   -3.857079   -0.852127
 C    6.202369   -4.137480   -1.512646
 C    6.835062   -3.140155   -2.228660
 C    6.299416   -1.863104   -2.258442
 C    5.131214   -1.564655   -1.571771
 O    4.588606   -0.306176   -1.511731
 C    5.253391    0.764600   -2.152122
 C    4.465294    2.026745   -1.801387
 O    3.176059    2.014842   -2.353419
 C    3.580619    4.103839    1.264929
 C   -6.137096   -0.440012   -1.442737
 C   -2.729375   -2.508246    1.681300
 C   -3.781276   -3.288152    0.894021
 C   -4.235998   -4.526546    1.655620
 H   -0.903899    0.815654    3.290273
 H   -2.023669   -0.516065    3.522233
 H   -3.278749    1.598257    3.212823
 H   -2.411739    1.921168    1.707041
 H   -4.358467   -0.381053    2.218202
 H   -4.618924    1.009344    1.159516
 H   -1.792691   -1.713083   -0.066222
 H    1.215028    0.415391    2.683868
 H    3.009671    2.054827    2.876233
 H    1.753462    3.916373   -0.763584
 H   -0.065202    2.257601   -0.961146
 H   -2.662888    2.627989   -0.982662
 H   -6.184353    4.127622   -2.379162
 H   -7.290186    1.882716   -2.305034
 H    0.140271   -1.184506   -0.617981
 H    0.694917   -2.866156   -0.762022
 H    2.458147   -0.433084   -0.179837
 H    2.339981   -1.318050   -1.729214
 H    3.401617   -1.638402    1.746808
 H    3.933630   -3.322201    1.528201
 H    1.590885   -4.034413    1.145134
 H    1.700777   -3.161723    2.700573
 H    4.506210   -4.638008   -0.313477
 H    6.615656   -5.133731   -1.479809
 H    7.749513   -3.344087   -2.763942
 H    6.815712   -1.093405   -2.809794
 H    6.282959    0.860839   -1.786577
 H    5.260938    0.617588   -3.240062
 H    4.968360    2.907294   -2.203720
 H    4.418189    2.108319   -0.706617
 H    2.760395    1.178540   -2.111291
 H   -3.155355   -2.181164    2.629680
 H   -1.891204   -3.166999    1.915801
 H   -3.366248   -3.582803   -0.071711
 H   -4.641592   -2.646874    0.700846
 H   -4.670471   -4.248957    2.613462
 H   -3.395491   -5.191470    1.841989
 H   -4.984439   -5.069535    1.084649
