63 
5htb_ligand_dft.xyz
 N    2.148135    2.969336    0.678938
 C   -0.666588    3.083902    0.835292
 N    1.716089    1.094072   -0.827830
 C    0.543526    0.536181   -1.275732
 C    3.071921    0.737964   -1.235382
 C    4.088405    0.764954   -0.075922
 C    4.193295   -1.303369   -1.222024
 C    0.521771   -3.730808    0.793677
 C   -0.451459   -2.546329    0.838619
 C   -1.423556   -0.615883    2.189125
 C   -2.796417   -0.818937    1.574864
 C   -4.312088   -0.247799   -0.229806
 C   -4.294525   -1.459008   -1.188173
 C   -5.620312   -2.080864   -1.533095
 C    5.105525   -0.255096   -0.590983
 N   -1.993597    3.177247    0.962575
 C    3.814390   -2.389394   -0.208055
 C    1.979533   -3.383039    1.092449
 C   -0.630133   -1.926503    2.226656
 N   -0.527968    1.106291   -0.787020
 O   -3.622140   -1.578893    2.067072
 N    2.508603   -2.433072    0.131688
 O    4.677478   -3.124965    0.244551
 O    3.043987   -0.585658   -1.707115
 O    5.889995    0.335578   -1.597951
 O    4.707535    1.996140    0.120224
 C   -0.037467    2.117878    0.015161
 C    1.350432    2.127736    0.001155
 C    1.440126    3.827431    1.415290
 N    0.117691    3.930300    1.532229
 N   -3.045006   -0.114331    0.437379
 C   -4.659568    1.086158   -0.907378
 N   -5.849971    1.116245   -1.534779
 O   -3.903220    2.051523   -0.883373
 O   -6.709207   -1.590372   -1.325881
 H    0.553620   -0.296498   -1.964501
 H    3.395052    1.421472   -2.028289
 H    3.600432    0.386702    0.834962
 H    4.687484   -1.781303   -2.070575
 H    0.472459   -4.204204   -0.194471
 H    0.199042   -4.485207    1.521541
 H   -1.428947   -2.890983    0.478690
 H   -0.140632   -1.764802    0.130274
 H   -0.861267    0.149178    1.645719
 H   -1.579167   -0.248715    3.208766
 H   -5.064383   -0.450416    0.540938
 H   -3.706188   -2.249450   -0.705738
 H   -3.771456   -1.225986   -2.126873
 H   -5.551077   -3.079706   -2.007412
 H    5.718716   -0.687648    0.207019
 H   -2.348853    3.941887    1.515962
 H   -2.631845    2.678795    0.340671
 H    2.085033   -2.983103    2.109123
 H    2.604505   -4.278574    1.041904
 H    0.344664   -1.721350    2.684116
 H   -1.147831   -2.640139    2.877214
 H    1.894723   -1.771227   -0.317241
 H    6.094563    1.228757   -1.280514
 H    4.003116    2.608534    0.424325
 H    2.020098    4.538393    1.998094
 H   -2.293405    0.378456   -0.044395
 H   -6.497256    0.338974   -1.458318
 H   -6.145319    1.987662   -1.947916
