62 
5htc_ligand_ani.xyz
 N    2.304106    2.482706   -0.277827
 C    0.049218    3.627842   -1.461207
 N    1.569664    0.454332   -1.438477
 C    0.472930    0.226286   -2.237241
 C    2.663166   -0.457258   -1.153152
 C    3.054601   -0.423697    0.333227
 C    2.515461   -2.646330   -0.307355
 C   -2.081398   -2.565893   -1.151880
 C   -3.554258   -2.592135   -0.750126
 C   -3.974360   -0.133146   -1.396037
 C   -3.745338    0.230400    0.062034
 C   -1.957097    0.668425    1.673471
 C   -1.380521    1.998351    2.177872
 C   -0.859137    1.937166    3.598093
 C    3.442732   -1.869809    0.619876
 N   -1.064844    4.200095   -1.989739
 C    1.162783   -3.012592    0.329006
 C   -1.200644   -3.467232   -0.285242
 C   -4.438097   -1.594508   -1.509061
 N   -0.313309    1.263415   -2.377945
 O   -4.577031   -0.020011    0.919977
 N    0.200103   -3.216396   -0.583528
 O    1.006307   -3.103458    1.550825
 O    2.260998   -1.786416   -1.440054
 O    4.761426   -2.118733    0.197535
 O    4.120378    0.451716    0.574347
 C    0.328269    2.264769   -1.667198
 C    1.480270    1.778268   -1.058234
 C    1.924597    3.759620   -0.148935
 N    0.866190    4.361079   -0.692083
 N   -2.537852    0.814111    0.353402
 C   -0.851219   -0.381479    1.568461
 O   -0.853214   -1.297771    2.527886
 O   -0.056384   -0.351119    0.651524
 O    0.017541    2.657295    4.009259
 H    0.323362   -0.737739   -2.698560
 H    3.526185   -0.200302   -1.779989
 H    2.166398   -0.160388    0.920638
 H    3.017837   -3.550561   -0.665423
 H   -1.973168   -2.861133   -2.205878
 H   -1.694222   -1.542135   -1.077819
 H   -3.957660   -3.604359   -0.891704
 H   -3.633010   -2.372897    0.324369
 H   -4.752384    0.530486   -1.794677
 H   -3.066524    0.045903   -1.986715
 H   -2.744069    0.321129    2.350368
 H   -0.564641    2.349049    1.536649
 H   -2.179966    2.746515    2.136222
 H   -1.340823    1.195394    4.270390
 H    3.286580   -2.146085    1.672661
 H   -1.087421    5.209347   -2.005213
 H   -1.501725    3.707110   -2.755497
 H   -1.441191   -4.525365   -0.455891
 H   -1.362426   -3.271165    0.779388
 H   -4.498650   -1.869391   -2.569935
 H   -5.452827   -1.660947   -1.101838
 H    0.426032   -2.978227   -1.539837
 H    5.276113   -1.330517    0.427166
 H    3.765684    1.352007    0.427696
 H    2.557379    4.387219    0.470895
 H   -1.862187    0.885231   -0.405363
 H   -0.152985   -1.967884    2.312634
