43 
5htz_ligand_ani.xyz
 C   -3.152825   -0.629546   -0.519771
 C    3.507283   -1.566389    0.963290
 C    2.249836    1.349280    1.785332
 C    5.550213   -2.115644   -0.288482
 C   -1.537394    1.326989   -0.561978
 C   -1.834437    0.012732   -0.342332
 C   -6.739424   -0.061084    0.324881
 C   -0.167136    1.621665   -0.309763
 C   -8.960242    1.049542    1.301204
 C    2.022205    0.449676    0.552254
 C   -4.302475   -0.032370   -0.011997
 C   -5.565335   -1.856540   -0.903073
 C   -3.303986   -1.837946   -1.207432
 C    0.566033    0.546564    0.117733
 C    2.905461    0.849389   -0.650955
 C   -5.539941   -0.649969   -0.194804
 N   -4.477610   -2.439723   -1.401452
 S    4.598397    0.352114   -0.446141
 N    4.354328   -1.288392   -0.135078
 N    2.271092   -0.945916    0.913999
 N    3.737223   -2.387280    1.909463
 O    5.163685    0.986241    0.735083
 O    5.285818    0.466356   -1.721882
 S   -0.430871   -0.862096    0.170074
Cl    0.461524    3.221106   -0.545192
 C   -7.747122    0.436997    0.764193
 H    3.283035    1.266052    2.123534
 H    2.028838    2.390536    1.543693
 H    1.578050    1.027459    2.587927
 H    5.986867   -1.889610   -1.261693
 H    6.300878   -1.932349    0.492823
 H    5.242270   -3.163641   -0.270167
 H   -2.252085    2.059089   -0.921538
 H   -9.363334    0.456717    2.128683
 H   -9.733407    1.126815    0.529950
 H   -8.753017    2.057377    1.675788
 H   -4.248166    0.899264    0.542904
 H   -6.510808   -2.369611   -1.071553
 H   -2.433382   -2.333877   -1.631680
 H    2.566590    0.350099   -1.564566
 H    2.889276    1.926964   -0.815421
 H    1.724201   -1.241901    1.712332
 H    4.672337   -2.780157    1.860403
