43 
5htz_ligand_dft.xyz
 C   -3.090674   -0.664551   -0.324083
 C    3.534835   -1.522893    1.009006
 C    2.476088    1.562859    1.694828
 C    5.453850   -2.175243   -0.396559
 C   -1.553686    1.358809   -0.329061
 C   -1.806109    0.028056   -0.156209
 C   -6.753943   -0.085821    0.101380
 C   -0.194749    1.688249   -0.071254
 C   -9.100568    1.051708    0.661486
 C    2.075557    0.541749    0.615169
 C   -4.290476   -0.027561   -0.007461
 C   -5.440178   -2.011404   -0.696186
 C   -3.164636   -1.972392   -0.817811
 C    0.585586    0.627972    0.303399
 C    2.801755    0.763399   -0.725841
 C   -5.498338   -0.699526   -0.202013
 N   -4.305247   -2.636139   -0.994763
 S    4.523722    0.302906   -0.682245
 N    4.317416   -1.290803   -0.147205
 N    2.335791   -0.818744    1.092437
 N    3.761441   -2.402437    1.901925
 O    5.229758    1.094012    0.313985
 O    5.043531    0.225324   -2.034972
 S   -0.369256   -0.820389    0.316416
Cl    0.364282    3.321886   -0.303336
 C   -7.816580    0.429013    0.354820
 H    3.528781    1.437764    1.953885
 H    2.321140    2.589960    1.360476
 H    1.864215    1.398219    2.586991
 H    5.875679   -1.917765   -1.368062
 H    6.230188   -2.082450    0.372133
 H    5.088141   -3.203511   -0.437706
 H   -2.288786    2.084358   -0.655761
 H   -9.535587    0.621197    1.569465
 H   -9.812200    0.903366   -0.157181
 H   -8.982948    2.128476    0.819134
 H   -4.291113    0.977042    0.403970
 H   -6.360979   -2.568448   -0.850117
 H   -2.256205   -2.504056   -1.096218
 H    2.359306    0.154643   -1.517031
 H    2.767510    1.816700   -1.013862
 H    1.941781   -0.993058    2.010596
 H    4.628301   -2.907136    1.748745
