45 
5hu1_ligand_xtb.xyz
 C    1.390791    1.407313    0.328337
 C    2.636147    0.623859    0.748157
 C    3.332829    1.298301    1.937391
 C    3.590212    0.539637   -0.445105
 S    4.462259   -1.037823   -0.349935
 N    3.121266   -2.039431   -0.494612
 C    2.113366   -1.834151    0.431318
 N    2.287428   -0.711870    1.202263
 N    1.109347   -2.573606    0.661865
 C    3.128460   -3.170072   -1.389037
 O    5.257917   -1.234472   -1.522415
 O    5.092109   -1.196232    0.922214
 C    0.131197    0.829118    0.331346
 C   -1.004190    1.545967   -0.048713
 C   -0.882779    2.876010   -0.442623
 C    0.368126    3.461280   -0.469389
 C    1.479597    2.730841   -0.095393
 F    2.688416    3.338223   -0.164723
 N   -2.221547    0.878054   -0.016472
 C   -6.777020   -0.448295   -0.231481
 C   -6.314306   -1.694124    0.160941
 C   -4.958789   -1.901240    0.384513
 N   -4.077684   -0.934890    0.232342
 C   -4.500836    0.269321   -0.146144
 C   -5.840730    0.558369   -0.388361
 C   -3.463526    1.340264   -0.311719
 O   -3.747140    2.465539   -0.667547
 F   -7.176863   -2.707905    0.326851
 H    4.196764    0.697912    2.210919
 H    2.653087    1.350187    2.784933
 H    3.658143    2.303293    1.689362
 H    3.070733    0.507427   -1.399685
 H    4.315129    1.347704   -0.447654
 H    1.633151   -0.702459    1.974266
 H    1.093611   -3.452029    0.159721
 H    2.214429   -3.187925   -1.986992
 H    3.232279   -4.113695   -0.846080
 H    3.988099   -3.035289   -2.041477
 H    0.013704   -0.205882    0.616351
 H   -1.757788    3.433596   -0.730266
 H    0.494452    4.484876   -0.783526
 H   -2.204155   -0.099693    0.262975
 H   -7.829568   -0.286107   -0.403870
 H   -4.581389   -2.866251    0.692136
 H   -6.116867    1.555763   -0.691272
