81 
5i3m_ligand_dft.xyz
 O   -5.238529   -4.373406   -0.629467
 C   -4.241398   -4.085833   -1.294484
 C   -3.821753   -4.923637   -2.480767
 N   -3.464784   -3.015032   -1.023007
 C   -3.596616   -2.201411    0.177104
 C   -4.850460   -1.309054    0.183006
 O   -6.055033   -1.997762    0.391857
 C   -4.757599   -0.292003    1.315243
 O   -5.843191    0.610819    1.262429
 C   -3.459642    0.496744    1.241891
 C   -3.314101    1.523976    2.362017
 O   -4.109447    2.657144    2.112427
 O   -2.384271   -0.428432    1.337119
 C   -2.335316   -1.317387    0.246236
 N   -1.128534   -2.086321    0.425384
 C   -0.123316   -2.184599   -0.494011
 S   -0.394438   -1.963946   -2.147166
 N    1.073306   -2.508903    0.033828
 C    2.308643   -2.519738   -0.727992
 C    2.934846   -1.128183   -0.901674
 N    3.707903   -0.606741    0.233081
 C    5.173018   -0.559665    0.158376
 C    5.815489   -1.955453    0.138844
 C    5.438188   -2.724097    1.407212
 C    7.338808   -1.845011    0.015550
 C    5.538794    0.286006   -1.059973
 O    5.553901    1.598583   -0.770696
 O    5.742755   -0.135560   -2.174204
 S    2.936815    0.033854    1.563817
 O    3.959660    0.659788    2.383560
 O    2.083595   -0.996906    2.159815
 C    1.860946    1.271250    0.887541
 C    0.496956    1.022850    0.807965
 C   -0.329988    1.979093    0.238684
 C    2.404497    2.467710    0.421883
 C    1.557466    3.425938   -0.116927
 C    0.177000    3.197660   -0.219823
 C   -0.742184    4.217497   -0.781716
 C   -0.354120    5.017863   -1.861894
 C   -1.221251    5.969810   -2.386248
 C   -2.489751    6.137510   -1.837403
 C   -2.886344    5.344663   -0.764217
 C   -2.021738    4.391303   -0.238953
 H   -4.631643   -4.924818   -3.215012
 H   -3.682894   -5.954154   -2.143374
 H   -2.902011   -4.572240   -2.954836
 H   -2.647770   -2.844661   -1.606207
 H   -3.628627   -2.854012    1.060273
 H   -4.875728   -0.758865   -0.774094
 H   -5.955466   -2.915121    0.059052
 H   -4.764062   -0.845557    2.267880
 H   -6.640217    0.069081    1.167657
 H   -3.411863    1.032609    0.279471
 H   -3.554414    1.051991    3.327238
 H   -2.273659    1.859072    2.405818
 H   -5.009128    2.332535    1.949471
 H   -2.237729   -0.762139   -0.697005
 H   -0.910339   -2.281757    1.395428
 H    1.211522   -2.316127    1.022572
 H    3.007097   -3.193425   -0.225680
 H    2.088586   -2.925204   -1.717381
 H    2.149354   -0.415131   -1.178060
 H    3.626207   -1.167591   -1.746713
 H    5.514560   -0.023885    1.046470
 H    5.439524   -2.493035   -0.741642
 H    4.355655   -2.782887    1.552597
 H    5.859514   -2.234908    2.293330
 H    5.834711   -3.743477    1.365320
 H    7.639893   -1.383203   -0.928215
 H    7.793908   -2.839215    0.060722
 H    7.752894   -1.254888    0.842702
 H    5.734484    2.063017   -1.604717
 H    0.074984    0.104003    1.193155
 H   -1.387660    1.769801    0.137217
 H    3.471762    2.647776    0.501106
 H    1.968939    4.377583   -0.439173
 H    0.623574    4.875562   -2.314247
 H   -0.907472    6.576734   -3.230366
 H   -3.166818    6.881951   -2.245548
 H   -3.870329    5.468466   -0.322748
 H   -2.352554    3.799602    0.610569
