62 
5i3v_ligand_xtb.xyz
 C   -8.044622    0.113471   -0.723768
 C   -7.165631   -1.076072   -0.333145
 C   -7.227408   -2.128409   -1.446277
 C   -7.690020   -1.699361    0.962560
 C   -5.696550   -0.643308   -0.177840
 C   -5.443973    0.476423    0.834309
 N   -4.030280    0.759416    0.942841
 C   -3.471167    1.912773    0.512163
 O   -4.116213    2.832659    0.055384
 C   -1.948698    1.923123    0.623066
 C   -1.454951    3.307396    1.026836
 C   -1.356542    1.494200   -0.744784
 C   -0.219919    0.537986   -0.545850
 C   -0.465132   -0.825993   -0.191217
 N    0.487020   -1.689877    0.058557
 N   -1.756033   -1.284780   -0.028486
 C    1.083536    0.936702   -0.631237
 C    2.135008    0.029581   -0.366144
 C    3.491625    0.379176   -0.434389
 C    1.773744   -1.296487   -0.011268
 C    2.793097   -2.232901    0.247918
 C    4.107166   -1.862565    0.180301
 C    4.473801   -0.541751   -0.147967
 C    5.888811   -0.136694   -0.239157
 N    6.196247    0.566254   -1.326499
 C    7.438749    0.961818   -1.514986
 C    8.463086    0.683788   -0.623882
 C    8.141898   -0.011576    0.528744
 C    6.836661   -0.434809    0.751194
 C    6.493533   -1.137031    2.029582
 H   -7.634954    0.624880   -1.591528
 H   -8.122835    0.826693    0.092094
 H   -9.047432   -0.228472   -0.970120
 H   -6.602457   -2.985014   -1.202258
 H   -8.247506   -2.479613   -1.581651
 H   -6.884029   -1.710344   -2.389907
 H   -8.694405   -2.087119    0.808778
 H   -7.734419   -0.965543    1.762798
 H   -7.052650   -2.521866    1.280265
 H   -5.329507   -0.307292   -1.151213
 H   -5.107709   -1.517029    0.118445
 H   -5.826196    0.198509    1.820516
 H   -5.915983    1.405570    0.511617
 H   -3.432495    0.014986    1.269553
 H   -1.644260    1.194938    1.381442
 H   -1.857943    4.052239    0.344790
 H   -0.368283    3.344489    1.003735
 H   -1.791011    3.550200    2.032592
 H   -1.006689    2.379832   -1.275827
 H   -2.137048    1.038221   -1.361080
 H   -1.795938   -2.290318    0.056551
 H   -2.451062   -0.891672   -0.644961
 H    1.326962    1.955385   -0.901906
 H    3.769747    1.385568   -0.710793
 H    2.505688   -3.243907    0.491733
 H    4.880735   -2.596536    0.348891
 H    7.616298    1.526086   -2.421571
 H    9.472446    1.013742   -0.815257
 H    8.902705   -0.222326    1.268503
 H    6.696588   -2.204985    1.945915
 H    5.443859   -1.006599    2.280570
 H    7.104198   -0.747950    2.842749
