78 
5i4o_ligand_dft.xyz
 O    0.913804   -0.582540    1.739547
 S    1.551076    0.412701    0.887272
 O    1.417613    1.839367    1.142752
 C    3.291713    0.041596    0.864315
 C    3.713037   -1.282494    0.952655
 C    5.065655   -1.571607    0.835766
 C    6.005933   -0.553315    0.634515
 C    7.449335   -0.868729    0.496821
 C    8.416684   -0.072331    1.119069
 C    9.769292   -0.363447    0.981936
 C   10.175848   -1.454920    0.219380
 C    9.221656   -2.255269   -0.402633
 C    7.868900   -1.965109   -0.264116
 C    5.556183    0.770731    0.569819
 C    4.206361    1.073837    0.684274
 N    1.016034    0.152002   -0.654945
 C    0.835292    1.251747   -1.605290
 C   -0.078792    2.320933   -0.986590
 O    0.410199    3.561718   -1.030233
 O   -1.176012    2.072243   -0.541645
 C    2.142036    1.750079   -2.256517
 C    1.842355    2.627289   -3.478909
 C    3.013097    0.565998   -2.689178
 C    0.515071   -1.180371   -1.025420
 C   -0.975333   -1.210776   -1.055316
 N   -1.663523   -0.835937   -2.168432
 N   -2.930225   -0.784672   -1.892982
 C   -1.874751   -1.414442   -0.040630
 N   -3.072088   -1.154831   -0.609743
 C   -4.333828   -0.978857    0.078916
 C   -4.605782    0.526584    0.275581
 N   -3.539665    1.198244    0.998279
 C   -3.119779    0.794640    2.239165
 C   -1.835582    1.425637    2.727041
 O   -3.732410   -0.030158    2.906691
 O   -5.343454   -1.569964   -0.682667
 C   -6.623334   -1.501634   -0.050231
 C   -7.560848   -2.301010   -0.939681
 O   -7.110281   -3.624672   -1.093020
 C   -7.033029   -0.040164    0.116217
 O   -8.284185   -0.000552    0.759546
 C   -5.978688    0.698411    0.930076
 O   -6.376699    2.055073    0.974617
 H    2.993302   -2.072632    1.139683
 H    5.402325   -2.599462    0.931055
 H    8.105633    0.766702    1.735380
 H   10.506770    0.260229    1.478071
 H   11.232236   -1.680008    0.109408
 H    9.531144   -3.104271   -1.004696
 H    7.130988   -2.579297   -0.772904
 H    6.271224    1.571258    0.406425
 H    3.858584    2.100096    0.635249
 H    0.207993    0.818368   -2.396299
 H   -0.245894    4.132654   -0.599315
 H    2.691620    2.345957   -1.518370
 H    1.264491    3.516953   -3.222911
 H    2.778404    2.956639   -3.940917
 H    1.285649    2.055554   -4.232053
 H    3.281022   -0.086344   -1.854296
 H    2.496244   -0.037567   -3.446055
 H    3.941366    0.932693   -3.138422
 H    0.905276   -1.907648   -0.313427
 H    0.914646   -1.427125   -2.013320
 H   -1.761692   -1.679660    0.999352
 H   -4.233043   -1.466045    1.055864
 H   -4.644705    0.976183   -0.721388
 H   -2.852870    1.681395    0.429693
 H   -1.038866    0.676963    2.673104
 H   -1.524376    2.290800    2.138201
 H   -1.959414    1.706304    3.775270
 H   -6.567326   -1.981523    0.938849
 H   -8.548737   -2.338589   -0.476754
 H   -7.652579   -1.787320   -1.909951
 H   -6.198245   -3.561074   -1.406815
 H   -7.087055    0.424674   -0.882584
 H   -8.422294    0.921421    1.016791
 H   -5.954416    0.268916    1.939388
 H   -5.759156    2.515795    1.556194
