60 
5i4v_ligand_ani.xyz
 O    6.197837   -1.967547   -0.747063
 S    5.416637   -0.785850   -1.131788
 O    4.732895   -0.756176   -2.419714
 C    6.524014    0.609289   -1.082609
 C    4.203675   -0.461869    0.146878
 C    3.006119    0.078699   -0.300726
 C    4.428477   -0.728011    1.509251
 C    5.654052   -1.428333    2.062928
 O    5.662798   -2.813812    1.819884
 C    3.408882   -0.355166    2.387508
 C    2.222183    0.226411    1.961733
 C    1.997538    0.442891    0.597495
 N    0.816923    1.015793    0.079542
 C   -0.072240    1.676378    1.033669
 C   -1.139636    2.511169    0.308089
 C   -0.547892    3.738708   -0.415141
 C   -0.037677    4.791046    0.578665
 C   -1.564065    4.378986   -1.364267
 C    0.097584    0.167038   -0.871598
 C   -0.970261    0.986006   -1.586947
 N   -1.853198    1.624690   -0.621465
 C   -2.883230    0.858492   -0.124447
 N   -3.225099   -0.226137   -0.834566
 C   -4.239162   -0.951455   -0.381348
 C   -4.584087   -2.174641   -1.203481
 F   -3.863661   -2.230268   -2.320041
 F   -5.890537   -2.190467   -1.543195
 F   -4.359465   -3.311063   -0.507137
 N   -3.480096    1.249135    1.009598
 C   -4.489798    0.494422    1.435854
 C   -4.937994   -0.645831    0.780121
 C   -6.097666   -1.458589    1.301030
 O   -6.369314   -1.041819    2.623169
 H    5.957054    1.521110   -1.277534
 H    7.023823    0.662800   -0.113200
 H    7.260678    0.445220   -1.872841
 H    2.859036    0.236593   -1.363775
 H    5.648135   -1.305890    3.150316
 H    6.573770   -0.947812    1.695578
 H    5.875278   -2.917472    0.879143
 H    3.553508   -0.530100    3.451422
 H    1.466649    0.493669    2.692715
 H    0.528488    2.321791    1.680412
 H   -0.590023    0.949156    1.684878
 H   -1.871828    2.852045    1.042141
 H    0.315441    3.392520   -1.000766
 H    0.762028    4.415053    1.225946
 H    0.362061    5.657462    0.040316
 H   -0.853454    5.147776    1.220313
 H   -2.437374    4.743630   -0.807044
 H   -1.920380    3.672176   -2.118471
 H   -1.117347    5.236431   -1.879222
 H   -0.382205   -0.693987   -0.371656
 H    0.810314   -0.237472   -1.596090
 H   -1.570916    0.354613   -2.242516
 H   -0.494059    1.768451   -2.186538
 H   -4.974978    0.800189    2.356318
 H   -5.844326   -2.526203    1.260314
 H   -6.969975   -1.311682    0.648139
 H   -7.088968   -1.583656    2.965738
