42 
5i86_ligand_xtb.xyz
 C   -0.135882    1.863450    0.164257
 C    0.742954    2.924844    0.151270
 C    2.100117    2.670712    0.058571
 C    2.598143    1.383599   -0.080697
 N    3.994620    1.280237   -0.184711
 C    4.866583    0.316669    0.210781
 O    6.063237    0.516888    0.164401
 C    4.253058   -0.993215    0.629617
 C    3.387734   -1.548259   -0.515258
 C    3.253321   -3.064828   -0.418720
 N    2.068288   -0.977860   -0.465264
 C    1.703555    0.287441   -0.167941
 C    0.320968    0.553847    0.039888
 C   -0.647306   -0.567145    0.099707
 O   -0.490953   -1.643728   -0.472946
 N   -1.724611   -0.353436    0.887739
 C   -2.848977   -1.262920    0.943174
 C   -4.080684   -0.621621    0.358538
 C   -5.234695   -0.456766    1.110710
 C   -6.345808    0.161384    0.562376
 C   -6.308962    0.627312   -0.740219
 C   -5.158969    0.468598   -1.496358
 C   -4.051602   -0.152900   -0.950019
 H   -1.196151    2.062432    0.225408
 H    0.383488    3.938794    0.222290
 H    2.799037    3.495125    0.080687
 H    4.453282    2.155474   -0.412681
 H    5.063572   -1.681076    0.868828
 H    3.631772   -0.852336    1.516524
 H    3.871648   -1.298402   -1.473108
 H    2.817308   -3.343121    0.538144
 H    2.611852   -3.435138   -1.214713
 H    4.227424   -3.536972   -0.511702
 H    1.284459   -1.620475   -0.562484
 H   -1.827514    0.529156    1.360996
 H   -2.558546   -2.142702    0.360382
 H   -3.027833   -1.564556    1.980406
 H   -5.266550   -0.817568    2.129227
 H   -7.240286    0.282676    1.155552
 H   -7.174394    1.112739   -1.166292
 H   -5.126508    0.828509   -2.514131
 H   -3.153706   -0.281636   -1.537372
