38 
5icp_ligand_ani.xyz
 C   -0.338482    3.143247    0.033700
 C    0.816604    2.846969   -0.679499
 C    1.545350    1.708567   -0.352244
 C    1.133879    0.869027    0.679688
 C   -0.026432    1.193510    1.382036
 C   -0.773475    2.323735    1.068961
 C    1.927722   -0.368701    1.076001
 C    4.325375   -0.200959    0.687785
 C    3.785832   -1.320506   -0.200872
 N    2.334937   -1.197246   -0.064765
 C    0.047428   -1.639404   -0.789939
 C   -2.315364   -1.104241   -0.956297
 C   -2.693110   -2.373783    2.428341
Cl   -1.258085    4.564039   -0.376138
 C    3.262062   -0.064153    1.783132
 C    1.532726   -1.773221   -0.998588
 O    1.978044   -2.348143   -1.978979
 N   -0.539531   -1.998892    0.304506
 N   -1.855213   -1.699099    0.193824
 C   -3.644295   -0.853219   -0.723600
 N   -3.977529   -1.281851    0.545366
 C   -2.891744   -1.780866    1.082630
 S   -0.964518   -0.951091   -2.044029
 H    1.138509    3.496610   -1.487311
 H    2.432911    1.471704   -0.933769
 H   -0.358353    0.541210    2.188333
 H   -1.677347    2.573530    1.617800
 H    1.272553   -0.973431    1.713004
 H    5.317968   -0.424630    1.086996
 H    4.399956    0.730619    0.115533
 H    4.060977   -1.226747   -1.254222
 H    4.107704   -2.312496    0.141208
 H   -2.295775   -3.389751    2.342055
 H   -3.644158   -2.392367    2.962577
 H   -1.965934   -1.788822    3.003165
 H    3.429323   -0.811497    2.566567
 H    3.253812    0.921466    2.256379
 H   -4.379856   -0.397855   -1.367583
