38 
5icp_ligand_dft.xyz
 C    3.021724    1.649158   -0.544437
 C    2.615585    0.626047   -1.390336
 C    1.898252   -0.446169   -0.866098
 C    1.584845   -0.503466    0.488745
 C    2.001078    0.539640    1.317777
 C    2.718825    1.616065    0.813691
 C    0.833489   -1.670814    1.106365
 C    2.089122   -3.654709    0.561468
 C    0.740237   -3.771122   -0.147624
 N    0.096863   -2.480083    0.128028
 C   -1.756940   -0.897603   -0.262023
 C   -3.319433    0.951673   -0.436502
 C   -1.213683    2.830745    1.901756
Cl    3.919621    3.001504   -1.192022
 C    1.784422   -2.713598    1.728294
 C   -1.077762   -2.213622   -0.487505
 O   -1.616588   -3.003316   -1.254259
 N   -1.357611    0.058858    0.504656
 N   -2.225647    1.089590    0.403997
 C   -3.987394    2.141517   -0.346855
 N   -3.315186    2.979300    0.518322
 C   -2.257111    2.340199    0.961377
 S   -3.245498   -0.629277   -1.172682
 H    2.850643    0.668900   -2.448160
 H    1.566756   -1.236664   -1.533070
 H    1.752014    0.517082    2.376108
 H    3.036774    2.424530    1.463090
 H    0.141583   -1.277695    1.854147
 H    2.472473   -4.625315    0.883715
 H    2.830735   -3.200491   -0.104215
 H    0.820100   -3.928641   -1.226239
 H    0.124837   -4.581987    0.259093
 H   -1.230120    2.273311    2.845069
 H   -1.404701    3.883971    2.112464
 H   -0.213663    2.725157    1.467126
 H    1.259410   -3.254373    2.523796
 H    2.673908   -2.247520    2.157901
 H   -4.894092    2.451818   -0.843058
