37 
5ief_ligand_xtb.xyz
 O    0.247978    2.937248   -0.524491
 C    1.119259    2.251057    0.354782
 C    0.465309    0.889624    0.638121
 C    1.409688   -0.115161    1.311383
 O    0.602233   -1.071995    1.944854
 C    2.414733   -0.758849    0.329218
 O    3.369560    0.219857    0.001597
 C    1.712106   -1.277386   -0.949849
 O    0.864641   -2.366454   -0.716914
 N   -0.127751    0.383187   -0.630678
 C    0.894296   -0.139310   -1.562889
 C   -1.274181   -0.541801   -0.408352
 C   -2.560739    0.222937   -0.128685
 C   -3.741128   -0.740630    0.014113
 C   -5.041287    0.007840    0.278245
 H    0.501917    3.863860   -0.579958
 H    2.111013    2.121782   -0.092833
 H    1.234857    2.789185    1.300386
 H   -0.372346    1.040393    1.325819
 H    2.004294    0.448503    2.046030
 H    1.116074   -1.597052    2.568106
 H    2.882145   -1.609948    0.847863
 H    4.176994   -0.190125   -0.328714
 H    2.495220   -1.540600   -1.680570
 H    1.368854   -3.145245   -0.458688
 H   -0.506289    1.244824   -1.060550
 H    0.393415   -0.500038   -2.462114
 H    1.576965    0.669265   -1.827137
 H   -1.398633   -1.148483   -1.305340
 H   -1.020814   -1.209688    0.414620
 H   -2.476751    0.805766    0.790109
 H   -2.765254    0.916553   -0.949007
 H   -3.543340   -1.430384    0.835607
 H   -3.840999   -1.329351   -0.899048
 H   -5.864709   -0.693261    0.376207
 H   -4.974325    0.585257    1.197028
 H   -5.267661    0.687306   -0.539954
