75 
5ieo_ligand_xtb.xyz
 O   -8.582362    0.626045   -0.196041
 O    6.395618   -1.629174   -1.605699
 C   -5.997907   -1.478819    1.469164
 C   -7.378368   -1.040846    0.997601
 C   -7.279942    0.267400    0.221484
 C   -6.331748    0.087610   -0.971386
 C   -4.977548   -0.388626   -0.530249
 C   -3.874440    0.276397   -0.899031
 C   -2.507727   -0.087652   -0.617066
 C   -1.411199    0.600517   -0.957511
 C   -1.383261    1.920181   -1.677530
 C   -4.991647   -1.633416    0.318552
 C   -0.609362    2.967608   -0.868920
 C    0.787407    2.483715   -0.476227
 C    0.722538    1.145856    0.265444
 C   -0.016882    0.143692   -0.656878
 C    0.235744   -1.203012    0.008691
 C    1.675356   -1.078946    0.536338
 C    2.075927    0.413839    0.437278
 C   -0.009153    1.299969    1.600280
 C   -5.281134   -2.873727   -0.533538
 C    2.989720    0.835720    1.598528
 C    3.403644    2.305901    1.522916
 C    4.243127   -0.056359    1.676434
 C    5.156126   -0.000385    0.453585
 C    6.378421   -0.895321    0.647868
 C    7.236758   -1.050792   -0.617595
 C    7.775880    0.298140   -1.109756
 C    8.412812   -1.991831   -0.321465
 H   -8.526381    1.417020   -0.742816
 H    6.914022   -1.759564   -2.407014
 H   -5.612196   -0.730249    2.166465
 H   -6.077355   -2.425950    2.006683
 H   -8.042631   -0.899524    1.851430
 H   -7.829312   -1.794061    0.351008
 H   -6.873591    1.052041    0.883423
 H   -6.781661   -0.645891   -1.647288
 H   -6.241010    1.031059   -1.517494
 H   -4.013414    1.169088   -1.495462
 H   -2.367450   -1.028127   -0.105405
 H   -2.386018    2.294675   -1.877318
 H   -0.881877    1.779172   -2.640938
 H   -4.006673   -1.773108    0.772158
 H   -0.519346    3.881753   -1.461029
 H   -1.176662    3.214452    0.029808
 H    1.390985    2.361783   -1.379916
 H    1.260235    3.251061    0.136112
 H    0.528606    0.141519   -1.610460
 H    0.123325   -2.029663   -0.692048
 H   -0.458045   -1.363041    0.832947
 H    2.359811   -1.694637   -0.045773
 H    1.726240   -1.418359    1.571110
 H    2.633697    0.566281   -0.491914
 H    0.126709    0.420890    2.222522
 H   -1.076360    1.431230    1.438356
 H    0.365732    2.163206    2.145606
 H   -4.538997   -2.960350   -1.324374
 H   -5.236818   -3.769419    0.082781
 H   -6.264483   -2.821683   -0.991203
 H    2.446137    0.688135    2.538232
 H    3.725686    2.570302    0.519290
 H    4.225382    2.497147    2.210422
 H    2.582180    2.958541    1.803285
 H    3.941680   -1.091983    1.839390
 H    4.819799    0.250683    2.553884
 H    4.625095   -0.348363   -0.431309
 H    5.477397    1.027038    0.285954
 H    6.036780   -1.892011    0.934009
 H    7.003852   -0.506484    1.453382
 H    8.287947    0.818216   -0.305164
 H    6.960558    0.918844   -1.470847
 H    8.479633    0.147583   -1.927486
 H    9.042211   -1.578413    0.461579
 H    9.020445   -2.135245   -1.214136
 H    8.041224   -2.961438    0.001409
