77 
5iep_ligand_xtb.xyz
 O    3.768056    2.608539    0.895101
 O   -7.232654    2.148641   -0.863174
 C    6.508751    1.587324    0.576727
 C    5.933273    2.840062   -0.073154
 C    4.440707    2.668945   -0.347648
 C    4.205843    1.409954   -1.185453
 C    4.765571    0.163222   -0.494914
 C    4.409807   -1.090623   -1.313352
 C    2.923034   -1.265895   -1.434836
 C    2.121939   -1.756270   -0.496609
 C    2.572195   -2.264486    0.846876
 C    6.275743    0.337160   -0.277110
 C    1.870551   -1.506399    1.978023
 C    0.348246   -1.519458    1.823333
 C   -0.076384   -0.989930    0.450168
 C    0.631642   -1.862254   -0.617984
 C   -0.071256   -1.473838   -1.911183
 C   -1.536751   -1.301298   -1.479006
 C   -1.559404   -1.227517    0.070760
 C    0.317116    0.480923    0.291561
 C    6.916286   -0.868975    0.408255
 C   -2.617027   -0.230009    0.577789
 C   -2.606376   -0.088624    2.099120
 C   -4.010459   -0.692302    0.117431
 C   -5.086261    0.388596    0.224187
 C   -6.401250   -0.097668   -0.385741
 C   -7.576633    0.898932   -0.286103
 C   -8.016472    1.092978    1.170210
 C   -8.752406    0.369533   -1.110542
 H    2.836216    2.427411    0.730462
 H   -6.551706    2.558873   -0.319681
 H    6.030849    1.448812    1.547878
 H    7.579246    1.726387    0.742000
 H    6.074904    3.696979    0.586513
 H    6.440356    3.042535   -1.018471
 H    4.076308    3.546730   -0.911548
 H    4.686107    1.540873   -2.157484
 H    3.133484    1.283724   -1.357431
 H    4.291886    0.078725    0.488629
 H    4.842244   -1.969626   -0.836029
 H    4.848870   -0.999526   -2.309021
 H    2.492958   -0.939092   -2.371088
 H    3.650684   -2.179220    0.967159
 H    2.309142   -3.324958    0.920238
 H    6.756272    0.480820   -1.252494
 H    2.136444   -1.961633    2.935149
 H    2.227960   -0.475474    1.998515
 H   -0.086231   -0.927582    2.628147
 H   -0.013004   -2.545442    1.935251
 H    0.362463   -2.904209   -0.399991
 H    0.043053   -2.234939   -2.682088
 H    0.326478   -0.538219   -2.301682
 H   -2.136252   -2.141513   -1.828222
 H   -1.957410   -0.393268   -1.911651
 H   -1.836294   -2.212999    0.462837
 H    0.035843    1.054384    1.171727
 H    1.392231    0.563670    0.153515
 H   -0.168638    0.923765   -0.572717
 H    7.948470   -0.643235    0.667978
 H    6.919814   -1.741936   -0.238936
 H    6.382023   -1.114014    1.324059
 H   -2.419127    0.751636    0.135099
 H   -1.714469    0.424067    2.444256
 H   -3.462639    0.491922    2.432509
 H   -2.653260   -1.067038    2.571965
 H   -3.962750   -1.010334   -0.923839
 H   -4.309284   -1.559081    0.711752
 H   -4.742596    1.278966   -0.308967
 H   -5.241203    0.654757    1.270492
 H   -6.232119   -0.311807   -1.443341
 H   -6.700610   -1.028163    0.100067
 H   -7.212443    1.514382    1.770419
 H   -8.861585    1.776522    1.207930
 H   -8.314684    0.143328    1.605702
 H   -8.461194    0.292713   -2.154367
 H   -9.061144   -0.607669   -0.751124
 H   -9.589038    1.059079   -1.040303
