77 
5iep_ligand_ani.xyz
 O    4.348839    2.602110    1.232499
 O   -7.463510    2.329950   -0.419318
 C    6.913122    1.362724    0.619149
 C    6.421962    2.711201    0.094792
 C    4.908055    2.714313   -0.072710
 C    4.462637    1.550050   -0.956921
 C    4.929707    0.192530   -0.415122
 C    4.411474   -0.962309   -1.292554
 C    2.913858   -0.971588   -1.429549
 C    2.055258   -1.615155   -0.629084
 C    2.434773   -2.404008    0.604632
 C    6.463482    0.188877   -0.263063
 C    1.649275   -1.942710    1.842112
 C    0.133450   -1.863137    1.590521
 C   -0.208025   -1.011989    0.358864
 C    0.568497   -1.623383   -0.836870
 C   -0.049368   -0.963882   -2.070236
 C   -1.541710   -0.817581   -1.689169
 C   -1.662615   -1.133367   -0.168521
 C    0.177312    0.458225    0.574360
 C    7.003607   -1.129978    0.295209
 C   -2.767031   -0.307590    0.516877
 C   -2.841991   -0.561885    2.026162
 C   -4.125430   -0.591889   -0.155836
 C   -5.267303    0.329883    0.281247
 C   -6.543663    0.075319   -0.525435
 C   -7.757669    0.953960   -0.169829
 C   -8.192036    0.775945    1.287800
 C   -8.916503    0.623358   -1.103330
 H    3.394621    2.490323    1.129798
 H   -6.699254    2.567072    0.122731
 H    6.522457    1.211549    1.634200
 H    8.007922    1.368082    0.693698
 H    6.711252    3.520446    0.773786
 H    6.884165    2.924817   -0.879125
 H    4.592617    3.666469   -0.532119
 H    4.872600    1.700138   -1.965744
 H    3.369031    1.570351   -1.055239
 H    4.495807    0.068752    0.590948
 H    4.755930   -1.921596   -0.885840
 H    4.864174   -0.868405   -2.288865
 H    2.514356   -0.349957   -2.230778
 H    3.510696   -2.345401    0.797837
 H    2.206969   -3.463597    0.415498
 H    6.893478    0.339119   -1.269164
 H    1.847530   -2.620628    2.680822
 H    2.019042   -0.957337    2.156875
 H   -0.357708   -1.477142    2.489356
 H   -0.255240   -2.880175    1.429748
 H    0.267803   -2.683631   -0.849362
 H    0.100193   -1.558670   -2.976961
 H    0.396007    0.021227   -2.249755
 H   -2.174603   -1.498667   -2.270417
 H   -1.896974    0.198751   -1.901777
 H   -1.939631   -2.196140   -0.062277
 H   -0.310291    0.868282    1.464520
 H    1.256902    0.570162    0.708291
 H   -0.109831    1.086698   -0.275437
 H    8.077916   -1.053948    0.497265
 H    6.859746   -1.964913   -0.397393
 H    6.508055   -1.381575    1.241943
 H   -2.540363    0.758658    0.355174
 H   -1.969420   -0.171048    2.556709
 H   -3.717555   -0.083094    2.475510
 H   -2.914659   -1.637578    2.235140
 H   -4.023503   -0.508138   -1.246339
 H   -4.409637   -1.637544    0.043263
 H   -4.949681    1.376508    0.157794
 H   -5.474401    0.192235    1.349011
 H   -6.324841    0.227036   -1.591997
 H   -6.837975   -0.978618   -0.410958
 H   -7.388714    1.030276    1.988823
 H   -9.043315    1.429508    1.504285
 H   -8.493522   -0.260697    1.479059
 H   -8.621846    0.796309   -2.142851
 H   -9.225244   -0.423194   -0.996912
 H   -9.772447    1.266833   -0.879194
