77 
5iep_ligand_dft.xyz
 O    3.537307    2.581869    0.777034
 O   -7.248241    2.060495   -0.989955
 C    6.371046    1.751970    0.553162
 C    5.698813    2.938228   -0.139229
 C    4.236507    2.651912   -0.461448
 C    4.107391    1.346338   -1.247472
 C    4.742591    0.158906   -0.512199
 C    4.476953   -1.157941   -1.269672
 C    2.998597   -1.422275   -1.417338
 C    2.191723   -1.854538   -0.443864
 C    2.651880   -2.251052    0.942447
 C    6.232372    0.440722   -0.237760
 C    1.942121   -1.432393    2.034460
 C    0.414664   -1.420955    1.867966
 C   -0.010458   -0.984098    0.455202
 C    0.694524   -1.933692   -0.562100
 C   -0.005045   -1.644930   -1.885818
 C   -1.471856   -1.381910   -1.474250
 C   -1.499654   -1.232325    0.078438
 C    0.382673    0.481272    0.204270
 C    6.927722   -0.697431    0.512280
 C   -2.568458   -0.225124    0.550041
 C   -2.561479   -0.008915    2.066833
 C   -3.961466   -0.683527    0.075891
 C   -5.079461    0.346941    0.253710
 C   -6.400853   -0.133243   -0.349703
 C   -7.572197    0.867005   -0.276890
 C   -7.943357    1.211811    1.169799
 C   -8.782807    0.288687   -1.004852
 H    2.608168    2.411750    0.579680
 H   -6.570560    2.527845   -0.486772
 H    5.920644    1.614133    1.544617
 H    7.433416    1.972451    0.714876
 H    5.760510    3.834992    0.486585
 H    6.217264    3.160289   -1.081504
 H    3.833760    3.480690   -1.065127
 H    4.589031    1.472705   -2.228474
 H    3.047074    1.143164   -1.445575
 H    4.245852    0.079391    0.465608
 H    4.956169   -1.989934   -0.743555
 H    4.949604   -1.105974   -2.259387
 H    2.555210   -1.165535   -2.377464
 H    3.735175   -2.156591    1.057550
 H    2.409169   -3.313850    1.092968
 H    6.735087    0.572523   -1.210287
 H    2.196588   -1.840969    3.019092
 H    2.326666   -0.404748    2.019690
 H   -0.020230   -0.775278    2.636431
 H    0.023738   -2.432432    2.051067
 H    0.399266   -2.952098   -0.256839
 H    0.096295   -2.470042   -2.596754
 H    0.422578   -0.757794   -2.365267
 H   -2.127048   -2.195819   -1.797952
 H   -1.850997   -0.470649   -1.951845
 H   -1.767560   -2.208502    0.512642
 H   -0.041619    1.136850    0.972716
 H    1.470373    0.599101    0.219854
 H    0.028333    0.841923   -0.767373
 H    7.949642   -0.411730    0.785935
 H    6.992996   -1.613018   -0.083152
 H    6.389622   -0.933607    1.439489
 H   -2.359408    0.740625    0.064718
 H   -1.647447    0.483292    2.407126
 H   -3.396972    0.622052    2.384333
 H   -2.644791   -0.966479    2.595641
 H   -3.916233   -0.944336   -0.987770
 H   -4.230422   -1.609151    0.606681
 H   -4.771040    1.283313   -0.233022
 H   -5.219715    0.570845    1.317316
 H   -6.239699   -0.372536   -1.408801
 H   -6.702948   -1.066761    0.144594
 H   -7.113977    1.704797    1.690850
 H   -8.799434    1.893445    1.181736
 H   -8.204742    0.311620    1.736731
 H   -8.534114    0.087995   -2.051577
 H   -9.108581   -0.645651   -0.536412
 H   -9.612142    1.002118   -0.981659
