54 
5ier_ligand_ani.xyz
 C   -5.588482   -0.273847    0.867854
 C    2.418146   -0.592628    1.989145
 C   -2.293559   -0.249648    1.664287
 O   -4.650206   -1.902699   -0.583127
 O    6.318404   -0.253115   -1.055849
 O   -3.248215   -0.142005   -1.980240
 C    4.374566    0.902046   -0.376382
 C    2.410890    2.166556    0.445251
 C    4.592626   -1.607281   -0.082336
 C    0.998316    2.197860   -0.132486
 C    0.068525   -1.577839    0.227579
 C   -2.144589    2.180428   -0.108845
 C    3.075869   -1.606373   -0.230352
 C   -1.365768   -1.497706   -0.323703
 C   -3.571614    1.626873   -0.400837
 C   -4.571050   -0.779187   -0.122635
 C    5.205438   -0.307455   -0.568334
 C    3.126287    0.876451    0.111559
 C    0.179035    0.987562    0.324582
 C    0.910616   -0.318895   -0.076791
 C   -1.215059    0.975248   -0.302742
 C    2.379343   -0.408180    0.460250
 C   -2.068668   -0.225774    0.146536
 C   -3.407514    0.101123   -0.592222
 H   -6.263498   -1.091454    1.122450
 H   -5.103158    0.102057    1.774107
 H   -6.163436    0.549773    0.430231
 H    1.971032   -1.547000    2.288200
 H    3.451848   -0.578389    2.350702
 H    1.882556    0.211816    2.503527
 H   -2.778172    0.662945    2.029555
 H   -2.928597   -1.096513    1.945828
 H   -1.352659   -0.354230    2.209809
 H   -3.452395   -1.085246   -2.089077
 H    4.847045    1.846652   -0.635561
 H    2.358567    2.262666    1.539589
 H    2.995862    3.021219    0.086001
 H    5.050881   -2.427765   -0.641217
 H    4.879572   -1.745740    0.970722
 H    0.499324    3.133385    0.152612
 H    1.061405    2.193384   -1.230427
 H    0.549503   -2.463056   -0.201274
 H    0.027542   -1.750864    1.310842
 H   -2.087338    2.558300    0.919740
 H   -1.884478    3.013646   -0.771590
 H    2.674501   -2.543678    0.171771
 H    2.823181   -1.584041   -1.299527
 H   -1.327512   -1.496519   -1.421065
 H   -1.946569   -2.382244   -0.032163
 H   -3.997714    2.035414   -1.321139
 H   -4.254338    1.878774    0.417434
 H    0.080930    1.042394    1.420094
 H    1.014178   -0.258888   -1.174694
 H   -1.068050    0.859737   -1.388010
