54 
5if6_ligand_xtb.xyz
 C   -5.507178   -0.245604    0.895223
 C    2.409908   -0.619537    1.973546
 C   -2.325217   -0.270208    1.666549
 O   -4.673032   -1.860119   -0.628198
 O    6.272422   -0.229910   -1.093205
 O   -3.211069   -0.173831   -1.991768
 C    4.338972    0.888314   -0.362177
 C    2.393032    2.144926    0.463330
 C    4.575360   -1.581109   -0.076117
 C    0.989589    2.180048   -0.133937
 C    0.065876   -1.560311    0.280976
 C   -2.124632    2.169035   -0.063131
 C    3.063009   -1.593155   -0.254742
 C   -1.354098   -1.502290   -0.289210
 C   -3.515283    1.636010   -0.462014
 C   -4.540453   -0.764213   -0.129560
 C    5.171678   -0.290238   -0.586894
 C    3.096830    0.865945    0.135454
 C    0.184884    0.973839    0.340061
 C    0.899598   -0.322701   -0.082885
 C   -1.205326    0.969351   -0.285853
 C    2.359616   -0.417112    0.448742
 C   -2.057771   -0.226364    0.161988
 C   -3.381195    0.105381   -0.616408
 H   -6.091873   -1.075270    1.286139
 H   -5.016258    0.280224    1.706317
 H   -6.183790    0.445930    0.393650
 H    2.121905   -1.633984    2.236225
 H    3.419158   -0.446684    2.340588
 H    1.747409    0.072698    2.484852
 H   -2.840708    0.621784    2.008432
 H   -2.931857   -1.141019    1.908271
 H   -1.397214   -0.349124    2.223786
 H   -3.510476   -1.085856   -2.132058
 H    4.815267    1.832856   -0.590600
 H    2.316003    2.229440    1.551577
 H    2.977821    2.994160    0.106393
 H    5.034559   -2.422092   -0.598566
 H    4.838127   -1.668317    0.981405
 H    0.491688    3.104394    0.162443
 H    1.057861    2.167750   -1.223882
 H    0.546797   -2.453395   -0.118356
 H    0.016921   -1.670042    1.363483
 H   -2.106361    2.484265    0.980896
 H   -1.838885    3.020940   -0.676643
 H    2.673334   -2.538103    0.125725
 H    2.843629   -1.545581   -1.324337
 H   -1.297744   -1.510442   -1.379249
 H   -1.913328   -2.385245    0.028810
 H   -3.819397    2.032931   -1.429534
 H   -4.269657    1.910161    0.270362
 H    0.095430    1.023552    1.428528
 H    0.973060   -0.288684   -1.177521
 H   -1.081178    0.863579   -1.369424
