67 
5ij7_ligand_dft.xyz
 C    1.286210    1.724735   -0.238828
 C    0.945169    0.913417    0.861340
 C   -0.396234    0.785821    1.244898
 C    2.035676    0.086543    1.513389
 C    3.540981    1.862511    0.746160
 C    5.285146   -0.726676    0.659885
 C    5.855287   -2.238992   -1.155158
 C    8.005869   -1.922828   -2.459945
 C    3.690023   -2.601471    0.046538
 C    2.660921   -2.193782   -1.017725
 C   -3.389751    0.112562    0.504882
 C   -5.483480   -1.177467    0.988725
 C   -1.405943    1.404849    0.495489
 C   -1.070177    2.159740   -0.620974
 C    0.260950    2.318812   -0.971410
Cl   -0.883324   -0.050870    2.687424
 N    3.296311    0.573689    1.379146
 C    2.744877    1.954246   -0.544024
 C    4.442484   -0.220438    1.811907
 C    4.971901   -1.820490   -0.109187
 C    7.006857   -1.562691   -1.402870
 N    7.289333   -0.465349   -0.639459
 C    6.489151    0.043125    0.380972
 O    6.830165    1.078383    0.951884
 O    1.785284   -0.987569    2.045130
Cl    0.625648    3.291735   -2.379447
 O   -2.714560    1.325940    0.860116
 C   -4.638922    0.040592    1.370753
 N   -5.784736   -1.168011   -0.435729
 C   -4.605728   -1.143599   -1.293092
 C   -3.745204    0.081961   -0.979573
 C   -7.019524   -1.096939   -0.995343
 C   -8.270726   -1.015282   -0.101196
 C   -8.428629    0.403373    0.460942
 O   -9.379582   -1.358163   -0.883345
 O   -7.190048   -1.064545   -2.212016
 H    3.252859    2.676645    1.424813
 H    4.613096    1.952649    0.564375
 H    5.607406   -3.110931   -1.750743
 H    7.695021   -2.825725   -2.988674
 H    8.110398   -1.114718   -3.193058
 H    8.992256   -2.105419   -2.018688
 H    3.911503   -3.670248   -0.059175
 H    3.245209   -2.451641    1.031743
 H    1.733187   -2.756948   -0.883715
 H    3.036413   -2.376390   -2.030482
 H    2.420323   -1.129364   -0.935550
 H   -2.740104   -0.742404    0.740589
 H   -6.401303   -1.202782    1.573990
 H   -4.930974   -2.099507    1.218821
 H   -1.861937    2.635629   -1.187629
 H    2.883398    2.938027   -0.999129
 H    3.112832    1.209591   -1.262437
 H    5.074911    0.406655    2.445678
 H    4.050953   -1.039788    2.413773
 H    8.127771    0.074741   -0.813297
 H   -5.220770    0.958174    1.223757
 H   -4.350991   -0.012708    2.425166
 H   -4.945308   -1.138746   -2.327785
 H   -4.030955   -2.064824   -1.122706
 H   -4.300298    0.993156   -1.232629
 H   -2.835713    0.059892   -1.590313
 H   -8.205546   -1.739656    0.719832
 H   -8.442872    1.124028   -0.362842
 H   -7.625442    0.680653    1.151730
 H   -9.382518    0.469393    0.990239
 H   -9.071857   -1.256595   -1.802452
