31 
5ikb_ligand_ani.xyz
 N    1.075877   -0.890584    1.161974
 C    0.086265    0.120663    1.647466
 C   -2.617013    1.355585    1.103549
 C   -1.640610    2.858167   -0.604779
 C    1.377486   -0.577343   -0.274522
 C    0.197361    0.246287   -0.794054
 C   -0.935330   -0.609266   -1.382671
 C   -0.191649    1.065252    0.461399
 C   -1.445006   -1.736234   -0.512093
 C   -1.550246    1.725070    0.394440
 C    2.697620    0.166838   -0.385226
 O    3.540267   -0.214866    0.603879
 O   -2.782665   -1.843491   -0.546696
 O   -0.768776   -2.513867    0.136199
 O    2.995098    0.974140   -1.226649
 H    0.642055   -1.828899    1.170141
 H    1.950377   -0.909045    1.708215
 H    0.484494    0.668535    2.504557
 H   -0.809296   -0.396672    1.991370
 H   -3.577033    1.851974    0.981168
 H   -2.569293    0.568761    1.849011
 H   -0.898787    3.638846   -0.390032
 H   -1.443978    2.509838   -1.627298
 H   -2.631053    3.323632   -0.593934
 H    1.497743   -1.510734   -0.828009
 H    0.543174    0.914776   -1.586905
 H   -1.781580    0.025887   -1.655242
 H   -0.584649   -1.080711   -2.310240
 H    0.546129    1.877829    0.518331
 H    4.365004    0.281061    0.467577
 H   -3.009111   -2.606442    0.012550
