31 
5ikb_ligand_xtb.xyz
 N    1.022992   -0.613919    1.232704
 C    0.644515    0.794617    1.475784
 C   -2.341689    0.923988    1.211365
 C   -2.091943    2.450946   -0.709182
 C    1.388741   -0.668970   -0.195722
 C    0.287047    0.155717   -0.874416
 C   -0.898592   -0.698739   -1.339103
 C   -0.065876    1.247223    0.185986
 C   -1.651172   -1.478285   -0.288267
 C   -1.557638    1.485313    0.303966
 C    2.785887   -0.076257   -0.448155
 O    3.577841   -0.266714    0.605321
 O   -2.875092   -1.743416   -0.661599
 O   -1.181314   -1.886868    0.762063
 O    3.101316    0.460270   -1.463352
 H    0.143880   -1.226042    1.293035
 H    1.770754   -0.942333    1.848120
 H    1.546803    1.384660    1.642330
 H    0.008496    0.877087    2.354884
 H   -3.394338    1.144154    1.230850
 H   -2.001354    0.253074    1.981122
 H   -1.833183    3.467009   -0.411822
 H   -1.660124    2.281355   -1.693158
 H   -3.173282    2.387310   -0.778175
 H    1.413250   -1.705734   -0.546430
 H    0.706484    0.624108   -1.768288
 H   -1.624333   -0.081827   -1.868979
 H   -0.537230   -1.437444   -2.062299
 H    0.375900    2.191725   -0.139995
 H    4.480727    0.052712    0.438181
 H   -3.361087   -2.291874   -0.021289
