72 
5iq6_ligand_ani.xyz
 O   -6.064553   -1.440187   -0.471039
 C   -0.075255   -1.629556   -0.141468
 C   -2.182564   -2.860584   -0.506436
 O   -2.098726    1.262904    0.315619
 C   -3.271025   -3.707152   -0.712505
 N   -1.175511   -0.802157   -0.084196
 C   -4.547439   -3.183480   -0.689900
 C   -4.754621   -1.812409   -0.462459
 C   -6.421718   -0.078729   -0.253069
 O    4.646292    3.466403   -1.913055
 C   -7.851209    0.088790   -0.757026
 C   -8.353384    1.518072   -0.537967
 C   -8.239822    1.919103    0.936367
 C   -6.809512    1.731221    1.451933
 C   -6.331849    0.294587    1.227694
 C   -3.679872   -0.952199   -0.262717
 C   -1.085006    0.599291    0.164384
 C   -2.394757   -1.495919   -0.280616
 S   -0.493277   -3.282987   -0.482589
 C    0.272516    1.134778    0.192237
 C    0.497781    2.591965    0.268892
 C    1.559437    3.155672   -0.452128
 C    1.859032    4.508645   -0.359088
 C    1.098949    5.328964    0.469219
 C    0.033104    4.785572    1.180954
 C   -0.273512    3.434302    1.075740
 C    1.339825    0.264901    0.173414
 C    1.197778   -1.123117    0.081704
 C    2.361494   -2.055832    0.142969
 O    2.376902   -3.138236   -0.432692
 N    3.395865   -1.604216    0.894917
 C    4.696138   -2.216057    0.859199
 C    5.480759   -1.664171    2.032690
 O    5.110046   -0.758289    2.741810
 O    6.664014   -2.278453    2.191921
 C    5.436972   -1.965290   -0.483471
 C    5.339283   -0.525723   -0.928314
 C    6.125280    0.477737   -0.360335
 C    5.920884    1.817259   -0.678016
 C    4.923029    2.168285   -1.582233
 C    4.161528    1.177015   -2.197199
 C    4.377071   -0.153952   -1.870389
 H   -3.125867   -4.770138   -0.888690
 H   -5.416496   -3.814779   -0.846541
 H   -5.758852    0.568765   -0.846146
 H    5.218083    4.050292   -1.398920
 H   -8.485203   -0.619853   -0.206618
 H   -7.899668   -0.194085   -1.814858
 H   -9.389333    1.614628   -0.884253
 H   -7.753631    2.209268   -1.149162
 H   -8.569624    2.954920    1.080808
 H   -8.916199    1.287487    1.530038
 H   -6.136816    2.421242    0.920729
 H   -6.746773    1.990137    2.515270
 H   -6.964572   -0.403825    1.791902
 H   -5.308321    0.157254    1.597315
 H   -3.807000    0.105396   -0.087726
 H    2.140271    2.526060   -1.119043
 H    2.692582    4.909288   -0.927734
 H    1.329227    6.387715    0.556335
 H   -0.571810    5.422037    1.821859
 H   -1.116555    3.015736    1.615036
 H    2.344381    0.684535    0.228119
 H    3.307231   -0.763046    1.448541
 H    4.592168   -3.298106    0.994159
 H    7.093675   -1.852024    2.952355
 H    6.478467   -2.286426   -0.370600
 H    4.965516   -2.615028   -1.226818
 H    6.910770    0.211931    0.345650
 H    6.533183    2.590622   -0.216562
 H    3.413643    1.457976   -2.933195
 H    3.769790   -0.920625   -2.347738
