120 
5iql_ligand_ani.xyz
 N    0.581277   -1.264863    0.335663
 C    0.148562   -1.683145    1.686759
 C    1.228342   -1.415435    2.739508
 O    0.934379   -1.117055    3.885170
 C   -0.307456   -3.134878    1.716725
 N    2.516267   -1.551906    2.306301
 C    3.604090   -0.861399    2.963159
 C    4.148914    0.158429    1.947778
 O    4.070656   -0.091912    0.746908
 C    4.709463   -1.815555    3.415159
 N    4.713442    1.278683    2.459462
 C    5.059117    2.534789    1.767174
 C    3.897724    3.187233    0.987361
 O    3.525103    4.315576    1.272505
 C    6.373718    2.481495    0.953774
 C    6.599117    1.282517    0.031894
 C    7.864783    1.441465   -0.816212
 N    8.388403    0.190961   -1.356206
 C    7.619782   -0.599325   -2.198042
 N    6.545959   -0.289354   -2.830709
 N    8.102283   -1.902204   -2.293387
 N    3.385229    2.475089   -0.048240
 C    2.164474    2.886417   -0.696852
 C    2.147513    2.353451   -2.142329
 C    2.018130    0.827849   -2.189334
 C    2.414338    0.175376   -3.512980
 C    2.633415   -1.331298   -3.348788
 N    3.787920   -1.625229   -2.518969
 C    3.756879   -2.381859   -1.397343
 O    2.711861   -2.740295   -0.842066
 C    5.097604   -2.767559   -0.878426
 C    5.254821   -3.657473    0.100998
 C    6.583476   -4.108358    0.621278
 C    0.930636    2.372559    0.068303
 O    0.989753    1.460224    0.892760
 N   -0.243436    2.934607   -0.311440
 C   -1.526137    2.584154    0.254968
 C   -1.807152    1.080091    0.174849
 O   -1.430740    0.377792   -0.752160
 C   -2.610485    3.292554   -0.563977
 O   -2.251758    4.664518   -0.619235
 N   -2.562465    0.582846    1.211105
 C   -3.409757   -0.581340    0.976053
 C   -4.665101   -0.133197    0.199243
 O   -5.060488    1.023802    0.267680
 C   -3.793511   -1.227420    2.306179
 N   -5.328395   -1.065540   -0.541096
 C   -6.593123   -0.702234   -1.163698
 C   -7.645730   -0.322379   -0.121252
 O   -7.736808   -0.879862    0.952510
 C   -6.991685   -1.984142   -1.863261
 C   -6.096029   -2.940422   -1.655715
 C   -4.961324   -2.456194   -0.789409
 N   -8.519662    0.670015   -0.515808
 C   -9.813327    0.710760    0.129583
 C  -10.633652   -0.496239   -0.321339
 O  -10.318453   -1.256799   -1.203935
 C  -10.537638    2.022061   -0.158137
 O  -11.774084   -0.618641    0.378742
 H   -0.249484   -1.070487   -0.243735
 H    1.057799   -0.352172    0.419833
 H    1.178859   -1.957839   -0.146047
 H   -0.686616   -1.028460    1.965613
 H   -0.716310   -3.383286    2.700694
 H    0.523966   -3.820618    1.511126
 H   -1.087608   -3.303666    0.965478
 H    2.666990   -1.712160    1.316620
 H    3.185498   -0.347062    3.835865
 H    4.291415   -2.562168    4.094852
 H    5.158650   -2.334321    2.562706
 H    5.499055   -1.265179    3.937394
 H    4.747245    1.331921    3.466703
 H    5.222600    3.255340    2.569852
 H    7.199552    2.514066    1.676534
 H    6.424382    3.415502    0.377597
 H    6.682597    0.373405    0.636878
 H    5.747230    1.132784   -0.637948
 H    8.674460    1.870958   -0.215105
 H    7.688196    2.148804   -1.637278
 H    8.850653   -0.361828   -0.644416
 H    6.340284    0.703886   -2.755772
 H    7.720407   -2.385004   -3.097407
 H    9.109882   -1.985180   -2.246390
 H    3.604062    1.484126   -0.061186
 H    2.150476    3.982546   -0.705036
 H    1.334011    2.827151   -2.705490
 H    3.088003    2.674130   -2.606572
 H    2.655642    0.401114   -1.409784
 H    0.991600    0.534893   -1.924245
 H    1.649924    0.353933   -4.280029
 H    3.347961    0.619281   -3.893521
 H    1.767030   -1.790368   -2.858019
 H    2.744901   -1.804744   -4.333507
 H    4.703000   -1.278914   -2.814328
 H    5.957186   -2.308611   -1.350543
 H    4.355732   -4.084634    0.554074
 H    6.692386   -3.888873    1.689740
 H    7.396483   -3.612743    0.075959
 H    6.699038   -5.193984    0.520490
 H   -0.239729    3.802895   -0.829567
 H   -1.589034    2.906265    1.305886
 H   -3.596868    3.136752   -0.106145
 H   -2.622679    2.845665   -1.570069
 H   -2.873591    5.111297   -1.204741
 H   -3.042085    1.295953    1.748667
 H   -2.825533   -1.281411    0.369650
 H   -2.891265   -1.524104    2.851882
 H   -4.354706   -0.521881    2.928603
 H   -4.410629   -2.120482    2.160322
 H   -6.464518    0.137728   -1.862661
 H   -7.930829   -2.066641   -2.398700
 H   -6.136972   -3.954172   -2.036294
 H   -4.883790   -3.041084    0.138629
 H   -3.992764   -2.541616   -1.303716
 H   -8.521023    0.901563   -1.500289
 H   -9.640938    0.602515    1.203842
 H  -10.729895    2.135128   -1.231624
 H  -11.496235    2.053219    0.365925
 H   -9.920776    2.860049    0.176741
 H  -12.223129   -1.407792    0.032337
