91 
5ivs_ligand_ani.xyz
 C    1.166272   -2.436598   -0.812999
 C   -0.549461   -3.995978   -1.049480
 C    4.911901    0.654928   -0.285777
 C    4.825171   -2.705512    0.440998
 C    5.650723   -3.757533    0.829620
 C    6.883564   -3.950824    0.214552
 C    7.289381   -3.078688   -0.791411
 C    6.463866   -2.025641   -1.171741
 C    5.644880    2.964816   -0.372984
 C    4.976014    0.707157    1.106059
 C    0.935987    3.547516    0.167247
 C    0.219749    4.710853   -0.110782
 C   -0.243347    5.003450   -1.388006
 C    2.127905    0.391307   -1.444138
 N    2.383026   -2.022097   -1.267964
 O    1.764390    0.291737   -2.602636
 C    2.881225   -0.762744   -0.756887
 O    0.695104   -3.472353   -1.521662
 O    0.567690   -1.943790    0.133607
 C    4.406812   -0.603586   -0.982930
 C    5.219111   -1.827127   -0.569551
 C    5.269082    1.789654   -1.019221
 C    5.676473    3.015273    1.018073
 C    5.347962    1.880343    1.756448
 C    1.203823    2.664316   -0.899663
 C    0.008311    4.105992   -2.420159
 C    0.722597    2.939160   -2.180522
 C   -0.937860   -0.838654    3.027923
 C   -2.011023   -1.079229    1.964700
 N   -1.618520   -0.379217    0.707337
 C   -1.170079    1.018046    0.916359
 C   -0.148387    1.132433    2.057639
 O   -0.699320    0.536522    3.229292
 C    0.206655    2.566355    2.438676
 N    1.929985    1.481981   -0.634879
 C    1.303799    3.258171    1.607106
 C   -3.408045   -0.656841    2.447995
 O   -4.450455   -1.528434    1.963717
 C   -4.763771   -1.432164    0.661909
 N   -5.835188   -2.208802    0.351164
 O   -4.152542   -0.748690   -0.151557
 C   -6.492491   -2.027097   -0.936998
 C   -7.496201   -0.889648   -0.947208
 C   -8.856601   -1.135811   -0.760182
 C   -9.771016   -0.086726   -0.729763
 C   -9.331431    1.223215   -0.889467
 C   -7.975389    1.477836   -1.075360
 C   -7.061611    0.429369   -1.100765
 H   -0.839769   -4.762561   -1.765550
 H   -0.432910   -4.425976   -0.051037
 H   -1.303292   -3.203321   -1.006641
 H    3.860730   -2.590106    0.932816
 H    5.323396   -4.431083    1.617750
 H    7.524711   -4.774316    0.517921
 H    8.251134   -3.216558   -1.280183
 H    6.796499   -1.341133   -1.950926
 H    5.914892    3.841921   -0.957214
 H    4.739787   -0.181042    1.693569
 H    0.022366    5.407147    0.702670
 H   -0.797882    5.919085   -1.575252
 H    2.510210   -2.161167   -2.261890
 H    2.662339   -0.745701    0.316444
 H    4.546728   -0.464839   -2.063511
 H    5.234050    1.758585   -2.107752
 H    5.966649    3.931313    1.526932
 H    5.385808    1.905719    2.842703
 H   -0.353109    4.308517   -3.426037
 H    0.910243    2.226289   -2.974485
 H   -1.253852   -1.257482    3.991302
 H   -0.011036   -1.347390    2.716517
 H   -2.050212   -2.149996    1.741359
 H   -2.447058   -0.388757    0.080086
 H   -0.852449   -0.914087    0.259505
 H   -0.750337    1.385932   -0.022225
 H   -2.033292    1.645927    1.161435
 H    0.764559    0.573961    1.783425
 H   -0.709151    3.171486    2.419889
 H    0.534967    2.531486    3.482202
 H    2.464678    1.482182    0.220450
 H    2.233497    2.680528    1.688380
 H    1.525630    4.215977    2.091803
 H   -3.487823   -0.737721    3.531727
 H   -3.626843    0.371540    2.147723
 H   -6.401779   -2.503790    1.135041
 H   -5.698654   -1.832995   -1.662993
 H   -6.977696   -2.969809   -1.213017
 H   -9.206823   -2.159933   -0.641941
 H  -10.828302   -0.294779   -0.583582
 H  -10.043418    2.044900   -0.868327
 H   -7.626835    2.499851   -1.202620
 H   -6.001728    0.630478   -1.237981
