46 
5ix0_ligand_dft.xyz
 C   -6.233317   -0.877389    0.178607
 C   -5.858134    0.103629    1.082590
 C   -4.589478    0.661160    0.974109
 C   -3.697938    0.255978   -0.026151
 C   -4.116877   -0.736393   -0.920162
 C   -5.379219   -1.310242   -0.823538
 C   -1.231784    0.079265   -0.437074
 C    0.031778    0.645769   -0.518837
 C    1.591665   -1.238127   -0.231158
 O    0.870232   -1.883742    0.509078
 C    3.898120   -0.869791   -1.447079
 C    4.500319    0.349099   -0.698031
 C    5.943063    0.118762   -0.183413
 C    5.736455   -0.278193    1.297846
 C    4.215183   -0.460814    1.376066
 C    3.746330   -1.850072    0.862785
 C    0.227064    2.014370   -0.260500
 C   -0.892269    2.800558    0.009926
 F   -7.456937   -1.423989    0.276520
 C   -2.348243    0.863890   -0.130778
 N    1.179709   -0.100234   -0.870519
 C    3.031276   -1.710867   -0.494434
 O    3.746165    0.567194    0.496408
 N    1.529637    2.535632   -0.335374
 C   -2.159522    2.233952    0.068417
 H   -6.548961    0.410113    1.860386
 H   -4.276903    1.409165    1.696778
 H   -3.450047   -1.054171   -1.716286
 H   -5.709034   -2.075010   -1.518196
 H   -1.333091   -0.989339   -0.585582
 H    4.704200   -1.503874   -1.831899
 H    3.326004   -0.556875   -2.327798
 H    4.410553    1.261029   -1.292663
 H    6.458351   -0.656191   -0.757113
 H    6.532343    1.035320   -0.265224
 H    6.284814   -1.179382    1.583902
 H    6.048127    0.533306    1.960865
 H    3.799828   -0.240624    2.360387
 H    4.607687   -2.517494    0.742660
 H    3.062751   -2.322713    1.571213
 H   -0.765793    3.865630    0.188765
 H    1.893850    0.460332   -1.311845
 H    2.908921   -2.713925   -0.917141
 H    1.578349    3.508551   -0.061271
 H    2.213270    1.987991    0.185525
 H   -3.016214    2.871393    0.268083
