94 
5iz8_ligand_xtb.xyz
 C    9.050015   -0.107753    0.268985
 O    9.452978   -0.159688   -0.873436
 C    9.842966    0.474989    1.418908
 N    7.842208   -0.594716    0.639364
 C    6.877821   -1.088089   -0.313512
 C    5.546810   -0.377842   -0.100695
 O    5.228915    0.066138    0.995800
 C    6.627581   -2.590545   -0.123729
 N    4.773261   -0.291445   -1.192010
 C    3.376860    0.062892   -1.111762
 C    2.531693   -1.199954   -0.872598
 O    3.013397   -2.312984   -0.923948
 N    1.250760   -0.918354   -0.594574
 C    0.295736   -1.909920   -0.172739
 C   -0.937001   -2.022502   -1.073128
 O   -1.682162   -2.987932   -0.953007
 C   -0.224153   -1.603144    1.244384
 C    0.883234   -1.660517    2.298276
 C    1.985103   -0.653047    2.052298
 O    1.801212    0.524401    1.824093
 O    3.177732   -1.195067    2.134060
 N   -1.140713   -1.007380   -1.920863
 C   -2.319060   -0.823149   -2.763486
 C   -3.512802   -0.472464   -1.867164
 O   -4.027556    0.639808   -1.880589
 C   -2.589057   -2.025823   -3.664550
 N   -3.921557   -1.459255   -1.065592
 C   -4.837496   -1.177763    0.022979
 C   -4.293901    0.050686    0.769176
 O   -3.159074    0.083812    1.201646
 C   -4.895822   -2.369731    0.975714
 C   -5.499816   -3.632222    0.348939
 C   -7.011557   -3.501649    0.179299
 C   -5.168902   -4.840758    1.221656
 N   -5.156422    1.079644    0.872640
 C   -4.818583    2.316822    1.554471
 C   -3.412466    2.810336    1.166662
 O   -2.697096    3.367617    1.981583
 C   -4.912236    2.152865    3.070183
 N   -3.111993    2.663098   -0.131971
 C   -1.846210    3.023693   -0.745911
 C   -0.674494    2.150766   -0.265711
 O   -0.039916    1.485339   -1.086960
 C   -1.517087    4.514981   -0.533504
 C   -0.240873    4.836018   -1.275224
 O    0.830323    4.705237   -0.489783
 O   -0.170674    5.148473   -2.431730
 N   -0.394992    2.181128    1.021389
 H    9.325835    1.344347    1.819319
 H    9.953715   -0.262046    2.210631
 H   10.824128    0.774585    1.063166
 H    7.485447   -0.428982    1.569118
 H    7.282729   -0.889035   -1.311185
 H    5.834035   -2.933869   -0.782419
 H    7.537661   -3.144953   -0.335802
 H    6.324563   -2.785116    0.902801
 H    5.051131   -0.814238   -2.009099
 H    3.240405    0.751388   -0.273843
 H    3.061623    0.554639   -2.034082
 H    0.951432    0.059215   -0.582657
 H    0.807514   -2.879898   -0.179680
 H   -0.984406   -2.344048    1.493709
 H   -0.701196   -0.621056    1.248288
 H    0.447315   -1.441956    3.275685
 H    1.336997   -2.651325    2.327844
 H    3.909744   -0.572966    1.876589
 H   -0.556918   -0.183204   -1.825227
 H   -2.120568    0.056465   -3.383847
 H   -3.487062   -1.847977   -4.250389
 H   -2.716410   -2.931396   -3.080134
 H   -1.749564   -2.167899   -4.340791
 H   -3.325188   -2.286015   -0.986239
 H   -5.825442   -0.951532   -0.394913
 H   -3.873948   -2.575417    1.301205
 H   -5.476216   -2.088306    1.857595
 H   -5.049177   -3.786284   -0.636318
 H   -7.265873   -2.680465   -0.486351
 H   -7.422074   -4.414629   -0.244863
 H   -7.488989   -3.328728    1.141895
 H   -5.602173   -5.744308    0.800160
 H   -5.565944   -4.705900    2.225634
 H   -4.092725   -4.977795    1.289969
 H   -6.075025    0.997025    0.470076
 H   -5.526200    3.083241    1.217806
 H   -4.239879    1.360189    3.387227
 H   -4.608394    3.076023    3.553808
 H   -5.928719    1.904646    3.364740
 H   -3.704246    2.076303   -0.713045
 H   -1.959005    2.839384   -1.819488
 H   -2.330647    5.114815   -0.941857
 H   -1.391629    4.721336    0.528160
 H    1.648112    4.870809   -0.985246
 H   -0.984793    2.708761    1.656591
 H    0.383704    1.632843    1.385644
