71 
5j0d_ligand_xtb.xyz
 O   -4.932750   -3.657551   -0.662231
 C    2.868697    2.130487   -0.449504
 C    1.057304    0.637841   -0.963250
 O    1.356575    4.688512    1.107182
 C   -0.014990    1.494227   -1.229436
 N    3.077995   -1.465528   -0.666920
 C    0.222290    2.888288   -1.767075
 C   -1.311999    1.057957   -1.008889
 N    4.835445   -2.478022    1.693971
 C   -1.588914   -0.215242   -0.519015
 C   -0.515919   -1.057543   -0.268362
 C    0.800351   -0.659054   -0.488350
 C    1.825306   -1.690403   -0.181168
 C    4.131952   -2.459173   -0.739389
 C    5.457723   -1.782336   -1.093944
 C    5.957675   -0.946960    0.081089
 C    0.573702    4.273406    0.277909
 C   -0.929452    4.387105    0.425994
 C   -1.296649    5.170326    1.680286
 N    1.028774    3.691233   -0.875595
 C   -2.970845   -0.650186   -0.276877
 C   -3.903202    0.239736    0.240487
 C   -5.213015   -0.170824    0.475331
 O   -6.037306    0.775803    0.990580
 C   -7.380622    0.444078    1.255560
 C   -5.597297   -1.475961    0.182547
 C   -4.664431   -2.366993   -0.339930
 C   -6.237718   -4.153627   -0.473673
 C   -3.353390   -1.953946   -0.563384
 O    2.369149    1.025752   -1.196543
 C    2.453471    3.493332   -1.003722
 O    1.566603   -2.665390    0.508979
 C    4.292859   -3.268311    0.554586
 C    3.859113   -1.536270    2.273991
 C    6.115814   -1.815845    1.322396
 H    2.542101    2.054647    0.594684
 H    3.957385    2.035048   -0.500277
 H    3.172836   -0.672042   -1.288869
 H   -0.734379    3.376657   -1.953466
 H    0.756456    2.819257   -2.721309
 H   -2.132774    1.716357   -1.251203
 H    5.044807   -3.158361    2.430712
 H   -0.679404   -2.050386    0.121421
 H    3.881091   -3.195540   -1.519325
 H    5.327896   -1.150842   -1.972169
 H    6.193171   -2.548095   -1.344707
 H    6.928556   -0.513161   -0.157078
 H    5.270123   -0.123318    0.271906
 H   -1.352039    3.380640    0.478863
 H   -1.336852    4.886379   -0.455895
 H   -0.885211    6.174568    1.630370
 H   -0.887081    4.683923    2.561458
 H   -2.376699    5.235269    1.781441
 H   -3.634849    1.250612    0.500045
 H   -7.910189    0.152338    0.343328
 H   -7.458269   -0.356627    1.997594
 H   -7.831932    1.349445    1.657359
 H   -6.610191   -1.794302    0.359792
 H   -6.533297   -4.118696    0.579596
 H   -6.967319   -3.606116   -1.078286
 H   -6.206997   -5.190881   -0.802402
 H   -2.660625   -2.661481   -0.987776
 H    2.955128    4.271754   -0.425588
 H    2.735728    3.573022   -2.056636
 H    3.311170   -3.662493    0.834074
 H    4.981931   -4.091593    0.356597
 H    3.670140   -0.717826    1.585737
 H    2.915452   -2.049175    2.453853
 H    4.240630   -1.138663    3.212442
 H    6.854053   -2.597108    1.125178
 H    6.458908   -1.218660    2.169367
