65 
5j6a_ligand_dft.xyz
 C   -5.435530   -0.102260   -1.077389
 C   -4.525763    0.881924   -0.690043
 C   -3.040973   -0.833045    0.144500
 C   -3.972539   -1.804643   -0.225908
 O   -0.466295   -0.430461    0.507119
 C   -0.802026   -2.979552   -0.868124
 C    0.687757   -3.038259   -0.632230
 C    0.922004   -3.422247    0.685296
 C   -0.407349   -3.628303    1.376592
 C    2.214270   -3.466204    1.182235
 C   -3.336770    0.526841   -0.068771
 C   -5.159746   -1.454248   -0.843404
 S   -1.567795   -1.284752    1.009289
 O   -1.766705   -1.287780    2.448803
 N   -1.357929   -2.874700    0.507783
 C    3.258783   -3.039738    0.361743
 C    3.017438   -2.571475   -0.932675
 C    1.719797   -2.635407   -1.457396
 N    4.080701   -1.938429   -1.646945
 C    4.166513   -0.478106   -1.457818
 C    4.559667   -0.130544   -0.015974
 C    4.592943    1.380294    0.221042
 N    3.291109    1.955697   -0.142133
 C    2.985590    1.775728   -1.560598
 C    2.887849    0.283524   -1.876068
 C    2.362914    2.071451    0.826861
 C    0.922917    2.485939    0.442524
 C    0.855992    4.011719    0.289100
 C   -0.554542    4.532960    0.038801
 O   -1.535282    4.001891    0.563823
 N   -0.660700    5.609153   -0.755315
 N    0.076720    2.021811    1.571940
 O    2.592974    1.939927    2.025602
 O   -2.449588    1.455387    0.348978
 O   -6.564261    0.323298   -1.670787
 H   -4.771488    1.924386   -0.867293
 H   -3.750092   -2.846867   -0.027998
 H   -1.124123   -2.142421   -1.491393
 H   -1.196051   -3.902453   -1.309180
 H   -0.729290   -4.675743    1.371276
 H   -0.454757   -3.264432    2.403824
 H    2.415707   -3.782543    2.201283
 H   -5.871189   -2.221579   -1.132807
 H    4.278348   -3.024793    0.732335
 H    1.523978   -2.284388   -2.467759
 H    4.005300   -2.136526   -2.640318
 H    4.982693   -0.146939   -2.113799
 H    5.535739   -0.570636    0.209215
 H    3.835867   -0.561363    0.684233
 H    4.793875    1.611525    1.266024
 H    5.353374    1.869639   -0.397343
 H    3.795681    2.248288   -2.127364
 H    2.068032    2.302539   -1.831570
 H    2.703239    0.143624   -2.948107
 H    2.024275   -0.124027   -1.336437
 H    0.544908    1.979339   -0.446127
 H    1.538286    4.311462   -0.511803
 H    1.230650    4.478529    1.209560
 H    0.139930    6.075138   -1.153248
 H   -1.568585    6.038163   -0.871462
 H    0.657371    2.056977    2.423415
 H   -0.773196    2.602099    1.622089
 H   -0.213246    1.035309    1.381583
 H   -2.762691    2.358086    0.186964
 H   -7.139050   -0.425273   -1.875809
