40 
5j6s_ligand_dft.xyz
 O    1.700593   -1.811051   -0.116766
 C    1.460185   -0.794684    0.533468
 C    2.259708    0.496938    0.364703
 C    3.755981    0.279728    0.180508
 O    4.592884    1.015558    0.698877
 C    1.704041    1.318748   -0.830634
 C    0.256211    1.691148   -0.627638
 C   -0.104965    2.637555    0.336416
 C   -1.441176    2.917132    0.604909
 C   -0.755566    1.040706   -1.334515
 C   -2.095968    1.316198   -1.091687
 C   -2.417063    2.242674   -0.114523
 F   -3.709397    2.494342    0.147446
 N    0.464054   -0.730078    1.445482
 C   -0.467140   -1.831257    1.656634
 C   -1.677539   -1.794178    0.748632
 C   -2.880848   -1.243671    1.187977
 C   -3.994418   -1.211154    0.352255
 C   -3.911303   -1.734620   -0.934516
 C   -2.708884   -2.277066   -1.385227
 C   -1.597593   -2.305999   -0.548991
 N    4.119675   -0.689069   -0.685995
 O    5.478513   -0.963047   -0.758094
 H    2.176732    1.105233    1.269962
 H    1.826383    0.732299   -1.746297
 H    2.327644    2.213964   -0.928653
 H    0.669959    3.166225    0.887542
 H   -1.731475    3.648639    1.351108
 H   -0.496412    0.289331   -2.074757
 H   -2.884403    0.796576   -1.622398
 H    0.191154    0.183412    1.780101
 H    0.097288   -2.752828    1.500314
 H   -0.777696   -1.800954    2.705467
 H   -2.953454   -0.839693    2.195409
 H   -4.924186   -0.777585    0.707544
 H   -4.780654   -1.720553   -1.585590
 H   -2.639421   -2.689242   -2.387777
 H   -0.657154   -2.725102   -0.895406
 H    3.528820   -1.510694   -0.787584
 H    5.847433   -0.254952   -0.191173
