40 
5j6s_ligand_ani.xyz
 O    1.749695   -1.888633    0.022074
 C    1.469261   -0.814238    0.546122
 C    2.257012    0.474615    0.303886
 C    3.752041    0.271984    0.136838
 O    4.569328    1.070145    0.591828
 C    1.680291    1.283391   -0.890645
 C    0.248944    1.693638   -0.643142
 C   -0.056292    2.651853    0.326666
 C   -1.373952    2.987789    0.618352
 C   -0.802170    1.075333   -1.320774
 C   -2.125196    1.404841   -1.053930
 C   -2.387982    2.352775   -0.079092
 F   -3.667573    2.668609    0.201380
 N    0.420184   -0.679008    1.401775
 C   -0.495824   -1.779566    1.659531
 C   -1.701853   -1.796799    0.737082
 C   -2.952618   -1.358385    1.176430
 C   -4.058742   -1.396518    0.331371
 C   -3.922805   -1.871559   -0.969426
 C   -2.674423   -2.288041   -1.424511
 C   -1.571065   -2.249011   -0.579218
 N    4.151922   -0.775381   -0.619113
 O    5.519618   -0.996120   -0.670289
 H    2.164837    1.094546    1.199105
 H    1.751736    0.679798   -1.801438
 H    2.316260    2.165221   -1.032455
 H    0.749263    3.143703    0.871486
 H   -1.623563    3.726687    1.372970
 H   -0.571956    0.303341   -2.053352
 H   -2.952200    0.929889   -1.571154
 H    0.073586    0.255643    1.575514
 H    0.080135   -2.701902    1.541844
 H   -0.820445   -1.716667    2.703752
 H   -3.064124   -0.992232    2.195709
 H   -5.026824   -1.052376    0.688621
 H   -4.785205   -1.908215   -1.631042
 H   -2.562973   -2.650782   -2.443652
 H   -0.599483   -2.583466   -0.934847
 H    3.601890   -1.629958   -0.624916
 H    5.855603   -0.235734   -0.149349
