55 
5j7w_ligand_xtb.xyz
 N   -4.312403    2.700899    0.374960
 C   -3.357517    3.364267   -0.251266
 N   -3.552643    4.676225   -0.463333
 N   -2.177898    2.875751   -0.703715
 C   -1.938017    1.599281   -0.520239
 N   -0.749577    1.063901   -0.873111
 C   -2.906054    0.766599    0.135776
 N   -2.679138   -0.534864    0.310399
 C   -3.601576   -1.233517    0.937853
 C   -4.783714   -0.610645    1.386248
 N   -5.037096    0.659519    1.211560
 C   -4.100034    1.396494    0.578611
 C   -3.315130   -2.704804    1.132565
 N   -2.546729   -3.258157    0.035379
 C   -3.351370   -3.632380   -1.105643
 C    1.359273   -1.813330   -0.602166
 C    0.524282   -2.119308   -1.674786
 C   -0.761848   -2.574675   -1.479280
 C   -1.275674   -2.758263   -0.187073
 C   -0.412906   -2.486409    0.886771
 C    0.866771   -2.021024    0.686861
 C    2.722414   -1.320163   -0.904542
 O    3.287106   -1.529996   -1.962298
 N    3.302942   -0.573213    0.073481
 C    4.647224   -0.076575   -0.049251
 C    5.285588   -0.049092    1.325936
 O    4.698624   -0.260259    2.353885
 O    6.582228    0.254775    1.276022
 C    4.685645    1.326114   -0.690088
 C    3.737652    2.294116    0.023900
 C    2.303235    1.987193   -0.340688
 O    1.875491    1.993470   -1.467933
 O    1.541075    1.730722    0.718390
 H   -4.423021    5.087147   -0.181184
 H   -2.863000    5.197339   -0.971717
 H   -0.144060    1.572978   -1.509143
 H   -0.708842    0.053847   -0.894607
 H   -5.548744   -1.181870    1.898273
 H   -4.252679   -3.258078    1.223436
 H   -2.767744   -2.834778    2.070851
 H   -4.226759   -4.175642   -0.750225
 H   -2.781050   -4.299888   -1.749497
 H   -3.694326   -2.770455   -1.691988
 H    0.906763   -1.976063   -2.674334
 H   -1.371574   -2.769227   -2.345935
 H   -0.743952   -2.650942    1.899612
 H    1.493401   -1.854397    1.551322
 H    2.865278   -0.451193    0.974235
 H    5.214164   -0.760355   -0.694672
 H    6.965684    0.270196    2.167904
 H    5.709103    1.699163   -0.658617
 H    4.372900    1.232716   -1.731059
 H    3.948393    3.310116   -0.315323
 H    3.851899    2.245393    1.106691
 H    0.620316    1.530604    0.435098
