54 
5j9y_ligand_ani.xyz
 C   -0.172023    1.444197    0.790892
 C    1.200557    1.201338    0.679421
 C    2.036536    2.332676    0.854312
 N    1.492276    3.539059    1.038046
 N   -0.743869    2.646358    0.974610
 C   -7.364973    0.367884   -1.898017
 C   -6.491435   -0.512461   -1.016401
 C   -5.011909   -0.183163   -1.173072
 O   -4.646465    0.732335   -1.894944
 N   -4.113774   -0.962295   -0.487250
 C   -2.699908   -0.630830   -0.569080
 C   -4.438684   -1.921661    0.557887
 C   -3.996630   -1.399894    1.926206
 C   -2.513110   -1.029840    1.906211
 C   -2.207269   -0.052262    0.763840
 N   -0.781864    0.233867    0.689499
 N    0.110169   -0.773580    0.541837
 C    0.150370    3.614317    1.077744
 N    3.383771    2.225814    0.817392
 C    1.306962   -0.216284    0.480868
 C    2.521938   -1.032628    0.340367
 C    3.530125   -0.676827   -0.613570
 C    3.339357    0.263607   -1.668420
 C    4.369772    0.605654   -2.511340
 C    5.636627    0.005826   -2.367992
 C    5.835145   -0.947097   -1.404581
 C    4.786635   -1.337136   -0.530071
 C    4.960669   -2.387233    0.407295
 C    3.931046   -2.783990    1.222391
 C    2.697901   -2.108042    1.179051
 H   -7.227877    1.424126   -1.651324
 H   -7.106333    0.242689   -2.953082
 H   -8.421598    0.113456   -1.767162
 H   -6.772409   -0.389655    0.037695
 H   -6.650058   -1.570783   -1.261206
 H   -2.107644   -1.526224   -0.802831
 H   -2.582023    0.096105   -1.374222
 H   -3.901152   -2.855817    0.339100
 H   -5.505708   -2.153950    0.541439
 H   -4.191771   -2.158269    2.693848
 H   -4.593633   -0.516495    2.190624
 H   -2.217051   -0.578044    2.858124
 H   -1.890852   -1.924447    1.766180
 H   -2.704839    0.903411    0.943844
 H   -0.249450    4.616196    1.224221
 H    3.917817    3.036127    1.091786
 H    3.814220    1.315894    0.883669
 H    2.360535    0.719016   -1.786092
 H    4.210450    1.340299   -3.295244
 H    6.446362    0.290287   -3.035082
 H    6.801356   -1.435996   -1.302084
 H    5.924016   -2.890290    0.450563
 H    4.065010   -3.611748    1.913762
 H    1.881189   -2.406047    1.830435
