62 
5jf1_ligand_xtb.xyz
 C    3.559925    1.627162   -0.165381
 C    4.737818    0.689754   -0.325430
 O    5.728134    0.687613    0.390121
 N    4.636066   -0.147139   -1.371501
 O    5.623767   -1.132362   -1.498771
 C    2.497970    0.999893    0.748358
 C    1.758036   -0.128580    0.036927
 O    1.880544   -0.376424   -1.152373
 C    1.463630    2.042461    1.213348
 C    0.589122    2.578237    0.076293
 C   -0.726419    3.141669    0.609936
 C   -1.635523    3.649329   -0.506357
 C   -2.998122    4.073211    0.029350
 N    0.946208   -0.845522    0.839832
 C   -0.114438   -1.661397    0.289423
 C   -0.255615   -3.003724    1.035714
 C   -0.389131   -2.800462    2.543882
 C    0.938057   -3.899342    0.714441
 C   -1.398929   -0.832069    0.382950
 O   -1.568179   -0.073839    1.333649
 N   -2.288021   -0.948506   -0.606749
 C   -3.455693   -0.064621   -0.691725
 C   -2.198711   -1.844684   -1.745924
 C   -3.587669   -1.769524   -2.373013
 C   -3.993511   -0.324439   -2.099850
 C   -4.467777   -0.343752    0.438843
 O   -4.250788    0.468473    1.554890
 H    3.123942    1.844262   -1.139789
 H    3.924322    2.548253    0.289703
 H    3.745464   -0.402261   -1.785251
 H    6.267562   -0.883752   -0.802566
 H    2.995937    0.586555    1.633071
 H    0.809260    1.587849    1.960866
 H    1.984703    2.867674    1.701925
 H    1.124413    3.349352   -0.480705
 H    0.360919    1.768754   -0.621529
 H   -0.520763    3.955115    1.308989
 H   -1.246472    2.353868    1.159812
 H   -1.160127    4.494272   -1.010240
 H   -1.764974    2.858463   -1.251001
 H   -3.641826    4.411009   -0.779900
 H   -3.487120    3.244142    0.537104
 H   -2.887582    4.887209    0.741999
 H    0.759154   -0.500561    1.770483
 H    0.149547   -1.842709   -0.755967
 H   -1.170164   -3.485297    0.669927
 H   -0.685056   -3.732924    3.018339
 H   -1.139696   -2.047244    2.771145
 H    0.560600   -2.491325    2.973924
 H    1.863129   -3.408983    1.007390
 H    0.859120   -4.840149    1.253273
 H    0.987776   -4.113799   -0.350583
 H   -3.123619    0.972675   -0.569729
 H   -1.437309   -1.486705   -2.449648
 H   -1.939382   -2.856888   -1.432250
 H   -4.268393   -2.452757   -1.864734
 H   -3.573202   -2.012587   -3.432869
 H   -5.067127   -0.167860   -2.164684
 H   -3.502532    0.339387   -2.812639
 H   -4.423661   -1.410122    0.712073
 H   -5.480579   -0.116390    0.096261
 H   -3.301990    0.409205    1.775887
