30 
5jf2_ligand_ani.xyz
 O   -1.975491   -2.527450    0.320368
 C   -2.058655   -1.304933    0.427653
 N   -2.817506   -0.600090   -0.443215
 O   -3.300406   -1.310150   -1.533994
 C   -1.373984   -0.494183    1.508177
 C   -0.000594    0.078164    1.097395
 C    0.841047   -0.952111    0.319516
 C    2.292235   -0.543566    0.097263
 C    3.150117   -1.689535   -0.434487
 C    4.605244   -1.279471   -0.645679
 C   -0.125365    1.391097    0.387715
 O    0.940016    2.202573    0.434415
 N    0.616500    3.357600   -0.261238
 C   -0.601186    3.124130   -0.651341
 N   -1.120006    1.911983   -0.274188
 H   -2.561847    0.351780   -0.690807
 H   -3.001457   -2.217447   -1.312844
 H   -1.232997   -1.178886    2.348551
 H   -2.023636    0.320938    1.842557
 H    0.535611    0.310989    2.025217
 H    0.362301   -1.164563   -0.646003
 H    0.801926   -1.891263    0.887721
 H    2.715042   -0.176147    1.043102
 H    2.339202    0.299467   -0.602160
 H    3.104220   -2.536333    0.264845
 H    2.725910   -2.047831   -1.382848
 H    4.676830   -0.437917   -1.344990
 H    5.201894   -2.103574   -1.050481
 H    5.065937   -0.964295    0.298045
 H   -1.147952    3.851307   -1.232995
