30 
5jf2_ligand_dft.xyz
 O   -1.961437   -2.522689    0.353702
 C   -2.048390   -1.299345    0.436572
 N   -2.795659   -0.599715   -0.450112
 O   -3.224791   -1.315008   -1.563334
 C   -1.376627   -0.493703    1.536115
 C    0.005602    0.081397    1.146263
 C    0.855993   -0.931593    0.347711
 C    2.328400   -0.549444    0.207882
 C    3.132146   -1.612806   -0.542054
 C    4.609656   -1.249079   -0.673265
 C   -0.122884    1.378817    0.410694
 O    0.835045    2.292303    0.560328
 N    0.501090    3.382858   -0.234945
 C   -0.622443    3.013983   -0.775477
 N   -1.060505    1.769905   -0.405521
 H   -2.516559    0.349794   -0.691483
 H   -2.939065   -2.222492   -1.328676
 H   -1.231464   -1.193472    2.362068
 H   -2.037154    0.308062    1.880624
 H    0.537704    0.312777    2.076328
 H    0.407470   -1.069897   -0.644220
 H    0.768717   -1.899683    0.854457
 H    2.763991   -0.400169    1.205919
 H    2.426755    0.411150   -0.313649
 H    3.033014   -2.575018   -0.022979
 H    2.696708   -1.756341   -1.539598
 H    4.735729   -0.303157   -1.212049
 H    5.162595   -2.021701   -1.216708
 H    5.075208   -1.133600    0.312249
 H   -1.157390    3.656199   -1.460438
