30 
5jf3_ligand_ani.xyz
 N   -2.816755   -0.609242   -0.439853
 O   -3.299620   -1.319551   -1.530423
 C   -2.051556   -1.311971    0.427130
 O   -1.961670   -2.533788    0.316598
 C   -1.369486   -0.499580    1.508117
 C    0.000894    0.079293    1.096858
 C    0.846177   -0.947659    0.318869
 C    2.296752   -0.535973    0.098554
 C    3.156314   -1.681375   -0.431740
 C    4.610038   -1.269307   -0.648480
 C   -0.130411    1.391528    0.387006
 O    0.930854    2.208223    0.432684
 N   -1.128358    1.907564   -0.273764
 N    0.600539    3.361981   -0.262238
 C   -0.616348    3.122354   -0.651179
 H   -2.565584    0.343989   -0.686719
 H   -2.994949   -2.225651   -1.312401
 H   -2.022704    0.312145    1.843581
 H   -1.224946   -1.184679    2.347526
 H    0.536691    0.314609    2.024279
 H    0.369127   -1.160201   -0.647370
 H    0.808515   -1.887508    0.885949
 H    2.343091    0.306910   -0.601059
 H    2.717769   -0.167652    1.044868
 H    2.729985   -2.043889   -1.377546
 H    3.113967   -2.525982    0.270455
 H    5.072369   -0.948594    0.292577
 H    5.207502   -2.094156   -1.050695
 H    4.678092   -0.431069   -1.352147
 H   -1.167669    3.846675   -1.231988
