28 
5jf4_ligand_xtb.xyz
 N   -3.065619   -1.105906   -0.521790
 O   -4.216792   -1.377004    0.225465
 C   -1.918670   -1.680622   -0.118132
 O   -1.906657   -2.520420    0.764771
 C   -0.693387   -1.222877   -0.884845
 C    0.064473   -0.157069   -0.072474
 C    1.353700    0.190905   -0.763113
 C   -0.736969    1.088930    0.053924
 O   -0.376954    2.026943    0.930730
 N   -1.784362    1.444145   -0.637052
 N   -1.253920    3.054554    0.794240
 C   -2.070016    2.675163   -0.138188
 C    2.577823   -0.097350   -0.306106
 C    2.966021   -0.783042    0.925922
 C    3.830906    0.221179   -0.994031
 C    4.847900   -0.231188   -0.243657
 C    4.306881   -0.860573    0.954241
 H   -3.101439   -0.210324   -0.992675
 H   -3.923159   -2.073269    0.849047
 H   -0.034661   -2.081135   -1.020973
 H   -0.978548   -0.817789   -1.854899
 H    0.272067   -0.538841    0.930969
 H    1.242374    0.695730   -1.714493
 H   -2.889594    3.270624   -0.481001
 H    2.281880   -1.158704    1.662094
 H    3.879291    0.733304   -1.935995
 H    5.898068   -0.157831   -0.460114
 H    4.912301   -1.308213    1.721281
