28 
5jf4_ligand_ani.xyz
 N   -2.894640   -1.376940   -0.617115
 O   -3.961849   -1.815860    0.155781
 C   -1.662048   -1.763840   -0.194600
 O   -1.542673   -2.575875    0.718594
 C   -0.506136   -1.133072   -0.925713
 C    0.083342    0.019184   -0.085747
 C    1.385416    0.519124   -0.658928
 C   -0.893002    1.151225    0.031047
 O   -0.928878    1.845441    1.170366
 N   -1.733726    1.591466   -0.860980
 N   -1.886486    2.837940    1.018077
 C   -2.315773    2.639794   -0.194844
 C    2.609376    0.122060   -0.255103
 C    2.967931   -0.810932    0.812190
 C    3.885008    0.554349   -0.836705
 C    4.892062   -0.060218   -0.180752
 C    4.318269   -0.918742    0.854897
 H   -3.033847   -0.427408   -0.944606
 H   -3.500074   -2.367311    0.822847
 H    0.251380   -1.908721   -1.057516
 H   -0.813709   -0.765817   -1.907146
 H    0.260237   -0.366604    0.923918
 H    1.321059    1.217216   -1.492003
 H   -3.084240    3.267516   -0.623664
 H    2.259691   -1.328589    1.447356
 H    3.975235    1.251667   -1.661808
 H    5.953370    0.052092   -0.376661
 H    4.895403   -1.534532    1.537021
