28 
5jf5_ligand_xtb.xyz
 N   -3.313515   -0.591826   -0.433638
 O   -4.467476   -0.404285    0.334921
 C   -2.374434   -1.422675    0.054753
 O   -2.583917   -2.102000    1.044175
 C   -1.095562   -1.453854   -0.758975
 C   -0.029414   -0.572538   -0.094238
 C    1.261023   -0.602463   -0.870131
 C   -0.454895    0.853768   -0.062095
 O    0.118034    1.704562    0.788620
 N   -1.330658    1.443128   -0.828010
 N   -0.426175    2.926166    0.553024
 C   -1.276895    2.733146   -0.405434
 C    2.483945   -0.523526   -0.332736
 C    2.865448   -0.407480    1.074124
 C    3.739836   -0.522903   -1.086358
 C    4.752228   -0.407484   -0.212480
 C    4.205323   -0.333066    1.136666
 H   -3.102667    0.200969   -1.026224
 H   -4.372213   -1.065910    1.051120
 H   -0.729044   -2.480691   -0.783173
 H   -1.286272   -1.104686   -1.773129
 H    0.143966   -0.901348    0.934184
 H    1.149377   -0.653543   -1.945390
 H   -1.880555    3.511446   -0.821954
 H    2.174691   -0.371506    1.894204
 H    3.792481   -0.600728   -2.155509
 H    5.802952   -0.373346   -0.435952
 H    4.806973   -0.234708    2.021896
