33 
5jf8_ligand_ani.xyz
 C   -1.813720   -1.953358   -0.509307
 O   -1.865347   -1.879624   -1.722956
 N   -2.344255   -1.031982    0.333692
 O   -2.103858   -1.163799    1.685686
 C   -2.843740    0.242333   -0.119354
 C   -1.826032    1.368373    0.121418
 C   -2.358110    2.714863   -0.343964
 N   -0.562910    1.068736   -0.531153
 C    0.458612    0.464588    0.121136
 O    0.358681   -0.029025    1.241155
 O    1.573492    0.483014   -0.618739
 C    2.826041   -0.032619   -0.070202
 C    3.833595    0.235003   -1.183220
 C    3.213665    0.731288    1.192337
 C    2.705157   -1.530139    0.188760
 H   -1.343795   -2.782705    0.051798
 H   -1.206792   -0.771037    1.800906
 H   -3.018564    0.110825   -1.189458
 H   -3.786512    0.455910    0.398307
 H   -1.614514    1.398901    1.197144
 H   -1.627316    3.503942   -0.144224
 H   -2.564441    2.688680   -1.420915
 H   -3.288056    2.969532    0.175500
 H   -0.347513    1.483904   -1.426376
 H    3.541595   -0.288550   -2.099083
 H    4.828231   -0.114078   -0.888185
 H    3.893287    1.306811   -1.397682
 H    4.219265    0.426551    1.501471
 H    2.516725    0.521644    2.005963
 H    3.223147    1.809113    0.998622
 H    3.686973   -1.932239    0.460158
 H    2.005890   -1.726817    1.004169
 H    2.355992   -2.044182   -0.712688
